MODEL        1
REMARK 921   NORMALIZED FREE ENERGY PREDICTED BY IDOCK:   -7.21 KCAL/MOL
REMARK 922        TOTAL FREE ENERGY PREDICTED BY IDOCK:  -10.56 KCAL/MOL
REMARK 923 INTER-LIGAND FREE ENERGY PREDICTED BY IDOCK:   -9.74 KCAL/MOL
REMARK 924 INTRA-LIGAND FREE ENERGY PREDICTED BY IDOCK:   -0.82 KCAL/MOL
REMARK 927      BINDING AFFINITY PREDICTED BY RF-SCORE:    0.00 PKD
ROOT
HETATM    1  C   UNL     1     -14.394   7.496  71.585  1.00  0.00    -0.477 C  
HETATM    2  O   UNL     1     -13.222   8.083  72.141  1.00  0.00    -0.273 OA 
ENDROOT
BRANCH   2   3
HETATM    3  C   UNL     1     -12.760   9.226  71.542  1.00  0.00    -0.350 A  
HETATM    4  C   UNL     1     -11.855   9.319  70.475  1.00  0.00    -0.124 A  
HETATM    5  C   UNL     1     -11.531  10.584  69.981  1.00  0.00    -0.393 A  
HETATM    6  N   UNL     1     -12.569  14.230  70.345  1.00  0.00    -0.351 NA 
HETATM    7  C   UNL     1     -12.098  11.762  70.496  1.00  0.00    -0.439 A  
HETATM    8  C   UNL     1     -12.752  14.200  71.803  1.00  0.00    -0.337 C  
HETATM    9  C   UNL     1     -11.728  13.107  69.880  1.00  0.00    -0.257 C  
HETATM   10  C   UNL     1     -11.850  13.090  68.345  1.00  0.00    -0.370 C  
HETATM   11  C   UNL     1     -11.300  14.373  67.720  1.00  0.00    -0.312 C  
HETATM   12  C   UNL     1     -13.439  12.914  72.290  1.00  0.00    -0.631 C  
HETATM   13  C   UNL     1     -11.903  15.631  68.379  1.00  0.00    -0.211 C  
HETATM   14  C   UNL     1     -11.956  15.497  69.918  1.00  0.00    -0.362 C  
HETATM   15  C   UNL     1     -13.255  10.402  72.125  1.00  0.00    -0.418 A  
HETATM   16  C   UNL     1     -12.916  11.670  71.624  1.00  0.00    -0.483 A  
BRANCH   4  17
HETATM   17  O   UNL     1     -11.263   8.179  69.997  1.00  0.00    -0.205 OA 
HETATM   18  C   UNL     1     -10.297   8.351  68.965  1.00  0.00    -0.218 C  
ENDBRANCH   4  17
BRANCH  11  19
HETATM   19  O   UNL     1     -11.652  14.369  66.312  1.00  0.00    -0.354 OA 
BRANCH  19  20
HETATM   20  C   UNL     1     -10.689  14.022  65.411  1.00  0.00    -0.337 C  
HETATM   21  O   UNL     1      -9.745  14.743  65.099  1.00  0.00    -0.223 OA 
BRANCH  20  22
HETATM   22  C   UNL     1     -10.912  12.603  64.816  1.00  0.00    -0.302 C  
HETATM   23  C   UNL     1      -9.118  11.540  66.300  1.00  0.00    -0.215 C  
HETATM   24  C   UNL     1      -9.853  10.330  64.260  1.00  0.00    -0.357 C  
HETATM   25  H2  UNL     1     -10.825  13.267  62.837  1.00  0.00     0.000 HD 
HETATM   26  H1  UNL     1     -11.576  11.766  63.039  1.00  0.00     0.000 HD 
HETATM   27  C   UNL     1      -9.633  11.726  64.867  1.00  0.00    -0.132 C  
HETATM   28  N   UNL     1     -11.429  12.698  63.429  1.00  0.00    -0.488 NA 
ENDBRANCH  20  22
ENDBRANCH  19  20
ENDBRANCH  11  19
BRANCH  13  29
HETATM   29  C   UNL     1     -11.110  16.918  68.030  1.00  0.00    -0.190 C  
HETATM   30  C   UNL     1      -9.291  18.595  68.501  1.00  0.00    -0.379 C  
HETATM   31  C   UNL     1      -8.846  16.171  68.930  1.00  0.00    -0.248 C  
HETATM   32  C   UNL     1      -9.915  17.265  68.933  1.00  0.00    -0.307 C  
ENDBRANCH  13  29
ENDBRANCH   2   3
TORSDOF 6
ENDMDL
MODEL        2
REMARK 921   NORMALIZED FREE ENERGY PREDICTED BY IDOCK:   -7.02 KCAL/MOL
REMARK 922        TOTAL FREE ENERGY PREDICTED BY IDOCK:  -10.30 KCAL/MOL
REMARK 923 INTER-LIGAND FREE ENERGY PREDICTED BY IDOCK:   -9.95 KCAL/MOL
REMARK 924 INTRA-LIGAND FREE ENERGY PREDICTED BY IDOCK:   -0.35 KCAL/MOL
REMARK 927      BINDING AFFINITY PREDICTED BY RF-SCORE:    0.00 PKD
ROOT
HETATM    1  C   UNL     1     -13.173   9.167  72.535  1.00  0.00    -0.397 C  
HETATM    2  O   UNL     1     -13.293   9.376  71.132  1.00  0.00    -0.314 OA 
ENDROOT
BRANCH   2   3
HETATM    3  C   UNL     1     -12.559  10.402  70.594  1.00  0.00    -0.348 A  
HETATM    4  C   UNL     1     -11.448  10.296  69.745  1.00  0.00    -0.256 A  
HETATM    5  C   UNL     1     -10.853  11.468  69.275  1.00  0.00    -0.217 A  
HETATM    6  N   UNL     1     -11.418  15.234  69.234  1.00  0.00    -0.298 NA 
HETATM    7  C   UNL     1     -11.342  12.745  69.599  1.00  0.00    -0.170 A  
HETATM    8  C   UNL     1     -11.902  15.338  70.618  1.00  0.00    -0.335 C  
HETATM    9  C   UNL     1     -10.666  13.980  69.015  1.00  0.00    -0.211 C  
HETATM   10  C   UNL     1     -10.467  13.864  67.493  1.00  0.00    -0.248 C  
HETATM   11  C   UNL     1      -9.624  15.014  66.942  1.00  0.00    -0.239 C  
HETATM   12  C   UNL     1     -12.851  14.192  71.004  1.00  0.00    -0.421 C  
HETATM   13  C   UNL     1     -10.166  16.386  67.396  1.00  0.00    -0.281 C  
HETATM   14  C   UNL     1     -10.557  16.376  68.892  1.00  0.00    -0.307 C  
HETATM   15  C   UNL     1     -12.993  11.672  71.001  1.00  0.00    -0.227 A  
HETATM   16  C   UNL     1     -12.381  12.844  70.526  1.00  0.00    -0.362 A  
BRANCH   4  17
HETATM   17  O   UNL     1     -10.937   9.057  69.460  1.00  0.00    -0.207 OA 
HETATM   18  C   UNL     1      -9.601   9.020  68.970  1.00  0.00    -0.160 C  
ENDBRANCH   4  17
BRANCH  11  19
HETATM   19  O   UNL     1      -9.672  14.948  65.494  1.00  0.00    -0.331 OA 
BRANCH  19  20
HETATM   20  C   UNL     1     -10.871  15.162  64.880  1.00  0.00    -0.418 C  
HETATM   21  O   UNL     1     -11.167  16.196  64.288  1.00  0.00    -0.660 OA 
BRANCH  20  22
HETATM   22  C   UNL     1     -11.830  13.946  65.006  1.00  0.00    -0.373 C  
HETATM   23  C   UNL     1     -10.304  12.414  63.637  1.00  0.00    -0.434 C  
HETATM   24  C   UNL     1     -12.689  11.781  63.922  1.00  0.00    -0.318 C  
HETATM   25  H2  UNL     1     -13.518  15.042  64.444  1.00  0.00     0.000 HD 
HETATM   26  H1  UNL     1     -13.860  13.608  65.269  1.00  0.00     0.000 HD 
HETATM   27  C   UNL     1     -11.723  12.972  63.803  1.00  0.00    -0.547 C  
HETATM   28  N   UNL     1     -13.229  14.406  65.186  1.00  0.00    -0.481 NA 
ENDBRANCH  20  22
ENDBRANCH  19  20
ENDBRANCH  11  19
BRANCH  13  29
HETATM   29  C   UNL     1      -9.145  17.530  67.167  1.00  0.00    -0.247 C  
HETATM   30  C   UNL     1      -8.454  19.698  66.087  1.00  0.00    -0.354 C  
HETATM   31  C   UNL     1     -10.826  19.416  66.830  1.00  0.00    -0.490 C  
HETATM   32  C   UNL     1      -9.597  18.696  66.272  1.00  0.00    -0.295 C  
ENDBRANCH  13  29
ENDBRANCH   2   3
TORSDOF 6
ENDMDL
MODEL        3
REMARK 921   NORMALIZED FREE ENERGY PREDICTED BY IDOCK:   -6.68 KCAL/MOL
REMARK 922        TOTAL FREE ENERGY PREDICTED BY IDOCK:   -9.84 KCAL/MOL
REMARK 923 INTER-LIGAND FREE ENERGY PREDICTED BY IDOCK:   -9.54 KCAL/MOL
REMARK 924 INTRA-LIGAND FREE ENERGY PREDICTED BY IDOCK:   -0.30 KCAL/MOL
REMARK 927      BINDING AFFINITY PREDICTED BY RF-SCORE:    0.00 PKD
ROOT
HETATM    1  C   UNL     1      -8.603  18.597  68.104  1.00  0.00    -0.307 C  
HETATM    2  O   UNL     1      -9.809  18.239  67.440  1.00  0.00    -0.298 OA 
ENDROOT
BRANCH   2   3
HETATM    3  C   UNL     1     -10.397  17.060  67.819  1.00  0.00    -0.335 A  
HETATM    4  C   UNL     1     -10.666  15.947  67.009  1.00  0.00    -0.292 A  
HETATM    5  C   UNL     1     -11.246  14.819  67.594  1.00  0.00    -0.332 A  
HETATM    6  N   UNL     1     -12.175  13.440  71.020  1.00  0.00    -0.304 NA 
HETATM    7  C   UNL     1     -11.543  14.750  68.965  1.00  0.00    -0.324 A  
HETATM    8  C   UNL     1     -12.673  14.708  71.573  1.00  0.00    -0.338 C  
HETATM    9  C   UNL     1     -12.137  13.470  69.543  1.00  0.00    -0.297 C  
HETATM   10  C   UNL     1     -11.347  12.222  69.111  1.00  0.00    -0.330 C  
HETATM   11  C   UNL     1     -12.051  10.931  69.533  1.00  0.00    -0.309 C  
HETATM   12  C   UNL     1     -11.797  15.911  71.186  1.00  0.00    -0.483 C  
HETATM   13  C   UNL     1     -12.420  10.948  71.031  1.00  0.00    -0.514 C  
HETATM   14  C   UNL     1     -13.011  12.312  71.456  1.00  0.00    -0.289 C  
HETATM   15  C   UNL     1     -10.781  17.035  69.168  1.00  0.00    -0.253 A  
HETATM   16  C   UNL     1     -11.370  15.896  69.743  1.00  0.00    -0.347 A  
BRANCH   4  17
HETATM   17  O   UNL     1     -10.421  16.022  65.662  1.00  0.00    -0.358 OA 
HETATM   18  C   UNL     1     -10.642  14.834  64.911  1.00  0.00    -0.406 C  
ENDBRANCH   4  17
BRANCH  11  19
HETATM   19  O   UNL     1     -11.142   9.827  69.287  1.00  0.00    -0.219 OA 
BRANCH  19  20
HETATM   20  C   UNL     1      -9.886  10.116  68.843  1.00  0.00    -0.189 C  
HETATM   21  O   UNL     1      -9.009  10.625  69.536  1.00  0.00    -0.104 OA 
BRANCH  20  22
HETATM   22  C   UNL     1      -9.676   9.725  67.353  1.00  0.00    -0.163 C  
HETATM   23  C   UNL     1      -8.870  12.064  66.701  1.00  0.00    -0.191 C  
HETATM   24  C   UNL     1      -9.663  10.533  64.915  1.00  0.00    -0.360 C  
HETATM   25  H2  UNL     1     -11.559   8.835  67.177  1.00  0.00     0.000 HD 
HETATM   26  H1  UNL     1     -10.446   8.357  65.998  1.00  0.00     0.000 HD 
HETATM   27  C   UNL     1      -9.851  10.928  66.389  1.00  0.00    -0.249 C  
HETATM   28  N   UNL     1     -10.584   8.613  66.976  1.00  0.00    -0.277 NA 
ENDBRANCH  20  22
ENDBRANCH  19  20
ENDBRANCH  11  19
BRANCH  13  29
HETATM   29  C   UNL     1     -13.440   9.839  71.401  1.00  0.00    -0.397 C  
HETATM   30  C   UNL     1     -14.049   7.422  71.760  1.00  0.00    -0.510 C  
HETATM   31  C   UNL     1     -11.798   8.228  72.497  1.00  0.00    -0.439 C  
HETATM   32  C   UNL     1     -12.908   8.397  71.459  1.00  0.00    -0.322 C  
ENDBRANCH  13  29
ENDBRANCH   2   3
TORSDOF 6
ENDMDL
MODEL        4
REMARK 921   NORMALIZED FREE ENERGY PREDICTED BY IDOCK:   -6.67 KCAL/MOL
REMARK 922        TOTAL FREE ENERGY PREDICTED BY IDOCK:   -9.83 KCAL/MOL
REMARK 923 INTER-LIGAND FREE ENERGY PREDICTED BY IDOCK:   -8.82 KCAL/MOL
REMARK 924 INTRA-LIGAND FREE ENERGY PREDICTED BY IDOCK:   -1.01 KCAL/MOL
REMARK 927      BINDING AFFINITY PREDICTED BY RF-SCORE:    0.00 PKD
ROOT
HETATM    1  C   UNL     1     -10.185  17.512  68.495  1.00  0.00    -0.378 C  
HETATM    2  O   UNL     1     -11.398  16.881  68.100  1.00  0.00    -0.217 OA 
ENDROOT
BRANCH   2   3
HETATM    3  C   UNL     1     -11.552  15.564  68.450  1.00  0.00    -0.357 A  
HETATM    4  C   UNL     1     -11.263  14.439  67.665  1.00  0.00    -0.313 A  
HETATM    5  C   UNL     1     -11.459  13.171  68.216  1.00  0.00    -0.349 A  
HETATM    6  N   UNL     1     -12.306  11.516  71.540  1.00  0.00    -0.131 NA 
HETATM    7  C   UNL     1     -11.910  12.984  69.534  1.00  0.00    -0.385 A  
HETATM    8  C   UNL     1     -13.318  12.498  71.954  1.00  0.00    -0.368 C  
HETATM    9  C   UNL     1     -12.062  11.570  70.083  1.00  0.00    -0.351 C  
HETATM   10  C   UNL     1     -10.808  10.714  69.829  1.00  0.00    -0.317 C  
HETATM   11  C   UNL     1     -11.033   9.250  70.209  1.00  0.00    -0.247 C  
HETATM   12  C   UNL     1     -12.908  13.945  71.637  1.00  0.00    -0.432 C  
HETATM   13  C   UNL     1     -11.602   9.115  71.637  1.00  0.00    -0.449 C  
HETATM   14  C   UNL     1     -12.716  10.152  71.908  1.00  0.00    -0.396 C  
HETATM   15  C   UNL     1     -12.096  15.386  69.731  1.00  0.00    -0.373 A  
HETATM   16  C   UNL     1     -12.295  14.105  70.271  1.00  0.00    -0.421 A  
BRANCH   4  17
HETATM   17  O   UNL     1     -10.865  14.612  66.364  1.00  0.00    -0.303 OA 
HETATM   18  C   UNL     1     -11.837  14.332  65.363  1.00  0.00    -0.363 C  
ENDBRANCH   4  17
BRANCH  11  19
HETATM   19  O   UNL     1      -9.753   8.572  70.148  1.00  0.00    -0.167 OA 
BRANCH  19  20
HETATM   20  C   UNL     1      -9.161   8.425  68.928  1.00  0.00    -0.147 C  
HETATM   21  O   UNL     1      -8.026   8.813  68.662  1.00  0.00    -0.104 OA 
BRANCH  20  22
HETATM   22  C   UNL     1     -10.079   7.706  67.902  1.00  0.00    -0.185 C  
HETATM   23  C   UNL     1     -10.023   5.491  69.183  1.00  0.00    -0.256 C  
HETATM   24  C   UNL     1     -10.711   5.475  66.796  1.00  0.00    -0.329 C  
HETATM   25  H2  UNL     1      -8.975   8.353  66.250  1.00  0.00     0.000 HD 
HETATM   26  H1  UNL     1     -10.549   7.856  65.887  1.00  0.00     0.000 HD 
HETATM   27  C   UNL     1      -9.813   6.180  67.828  1.00  0.00    -0.131 C  
HETATM   28  N   UNL     1      -9.945   8.328  66.561  1.00  0.00    -0.266 NA 
ENDBRANCH  20  22
ENDBRANCH  19  20
ENDBRANCH  11  19
BRANCH  13  29
HETATM   29  C   UNL     1     -12.176   7.700  71.913  1.00  0.00    -0.336 C  
HETATM   30  C   UNL     1     -11.885   5.265  72.484  1.00  0.00    -0.047 C  
HETATM   31  C   UNL     1     -10.434   6.958  73.617  1.00  0.00    -0.400 C  
HETATM   32  C   UNL     1     -11.172   6.610  72.325  1.00  0.00    -0.303 C  
ENDBRANCH  13  29
ENDBRANCH   2   3
TORSDOF 6
ENDMDL
MODEL        5
REMARK 921   NORMALIZED FREE ENERGY PREDICTED BY IDOCK:   -6.62 KCAL/MOL
REMARK 922        TOTAL FREE ENERGY PREDICTED BY IDOCK:   -9.76 KCAL/MOL
REMARK 923 INTER-LIGAND FREE ENERGY PREDICTED BY IDOCK:   -9.12 KCAL/MOL
REMARK 924 INTRA-LIGAND FREE ENERGY PREDICTED BY IDOCK:   -0.64 KCAL/MOL
REMARK 927      BINDING AFFINITY PREDICTED BY RF-SCORE:    0.00 PKD
ROOT
HETATM    1  C   UNL     1      -9.993  19.243  68.254  1.00  0.00    -0.410 C  
HETATM    2  O   UNL     1      -9.944  18.166  67.324  1.00  0.00    -0.305 OA 
ENDROOT
BRANCH   2   3
HETATM    3  C   UNL     1     -10.491  16.976  67.727  1.00  0.00    -0.349 A  
HETATM    4  C   UNL     1     -10.590  15.791  66.983  1.00  0.00    -0.316 A  
HETATM    5  C   UNL     1     -11.156  14.667  67.587  1.00  0.00    -0.311 A  
HETATM    6  N   UNL     1     -12.381  13.468  70.988  1.00  0.00    -0.367 NA 
HETATM    7  C   UNL     1     -11.605  14.673  68.919  1.00  0.00    -0.340 A  
HETATM    8  C   UNL     1     -13.024  14.730  71.381  1.00  0.00    -0.342 C  
HETATM    9  C   UNL     1     -12.175  13.396  69.526  1.00  0.00    -0.205 C  
HETATM   10  C   UNL     1     -11.257  12.183  69.285  1.00  0.00    -0.288 C  
HETATM   11  C   UNL     1     -11.917  10.877  69.727  1.00  0.00    -0.351 C  
HETATM   12  C   UNL     1     -12.192  15.966  70.999  1.00  0.00    -0.421 C  
HETATM   13  C   UNL     1     -12.458  10.972  71.169  1.00  0.00    -0.502 C  
HETATM   14  C   UNL     1     -13.185  12.313  71.417  1.00  0.00    -0.086 C  
HETATM   15  C   UNL     1     -11.026  17.018  69.023  1.00  0.00    -0.103 A  
HETATM   16  C   UNL     1     -11.600  15.881  69.618  1.00  0.00    -0.339 A  
BRANCH   4  17
HETATM   17  O   UNL     1     -10.196  15.790  65.670  1.00  0.00    -0.330 OA 
HETATM   18  C   UNL     1     -10.639  14.693  64.877  1.00  0.00    -0.422 C  
ENDBRANCH   4  17
BRANCH  11  19
HETATM   19  O   UNL     1     -10.914   9.830  69.671  1.00  0.00    -0.233 OA 
BRANCH  19  20
HETATM   20  C   UNL     1     -10.459   9.441  68.445  1.00  0.00    -0.218 C  
HETATM   21  O   UNL     1     -10.889   9.876  67.380  1.00  0.00    -0.280 OA 
BRANCH  20  22
HETATM   22  C   UNL     1      -9.325   8.383  68.539  1.00  0.00    -0.139 C  
HETATM   23  C   UNL     1     -10.955   6.464  68.998  1.00  0.00    -0.410 C  
HETATM   24  C   UNL     1      -8.558   6.160  69.573  1.00  0.00    -0.127 C  
HETATM   25  H2  UNL     1      -8.170   9.532  69.848  1.00  0.00     0.000 HD 
HETATM   26  H1  UNL     1      -7.312   8.323  69.036  1.00  0.00     0.000 HD 
HETATM   27  C   UNL     1      -9.691   7.195  69.468  1.00  0.00    -0.157 C  
HETATM   28  N   UNL     1      -8.057   9.019  68.974  1.00  0.00    -0.105 NA 
ENDBRANCH  20  22
ENDBRANCH  19  20
ENDBRANCH  11  19
BRANCH  13  29
HETATM   29  C   UNL     1     -13.437   9.817  71.510  1.00  0.00    -0.417 C  
HETATM   30  C   UNL     1     -13.966   7.370  71.778  1.00  0.00    -0.469 C  
HETATM   31  C   UNL     1     -11.726   8.213  72.507  1.00  0.00    -0.457 C  
HETATM   32  C   UNL     1     -12.861   8.391  71.497  1.00  0.00    -0.322 C  
ENDBRANCH  13  29
ENDBRANCH   2   3
TORSDOF 6
ENDMDL
MODEL        6
REMARK 921   NORMALIZED FREE ENERGY PREDICTED BY IDOCK:   -6.58 KCAL/MOL
REMARK 922        TOTAL FREE ENERGY PREDICTED BY IDOCK:   -9.71 KCAL/MOL
REMARK 923 INTER-LIGAND FREE ENERGY PREDICTED BY IDOCK:   -8.52 KCAL/MOL
REMARK 924 INTRA-LIGAND FREE ENERGY PREDICTED BY IDOCK:   -1.19 KCAL/MOL
REMARK 927      BINDING AFFINITY PREDICTED BY RF-SCORE:    0.00 PKD
ROOT
HETATM    1  C   UNL     1     -10.170  16.566  65.866  1.00  0.00    -0.349 C  
HETATM    2  O   UNL     1     -11.152  15.663  65.369  1.00  0.00    -0.325 OA 
ENDROOT
BRANCH   2   3
HETATM    3  C   UNL     1     -11.316  14.489  66.057  1.00  0.00    -0.341 A  
HETATM    4  C   UNL     1     -11.337  13.190  65.528  1.00  0.00    -0.299 A  
HETATM    5  C   UNL     1     -11.485  12.113  66.405  1.00  0.00    -0.430 A  
HETATM    6  N   UNL     1     -11.561  11.356  70.136  1.00  0.00    -0.305 NA 
HETATM    7  C   UNL     1     -11.587  12.282  67.796  1.00  0.00    -0.416 A  
HETATM    8  C   UNL     1     -12.343  12.538  70.523  1.00  0.00    -0.262 C  
HETATM    9  C   UNL     1     -11.706  11.058  68.696  1.00  0.00    -0.296 C  
HETATM   10  C   UNL     1     -10.637   9.998  68.371  1.00  0.00    -0.253 C  
HETATM   11  C   UNL     1     -10.874   8.699  69.142  1.00  0.00    -0.039 C  
HETATM   12  C   UNL     1     -11.914  13.809  69.772  1.00  0.00    -0.406 C  
HETATM   13  C   UNL     1     -11.056   8.959  70.652  1.00  0.00    -0.306 C  
HETATM   14  C   UNL     1     -11.970  10.177  70.914  1.00  0.00    -0.365 C  
HETATM   15  C   UNL     1     -11.516  14.672  67.434  1.00  0.00    -0.384 A  
HETATM   16  C   UNL     1     -11.671  13.580  68.304  1.00  0.00    -0.394 A  
BRANCH   4  17
HETATM   17  O   UNL     1     -11.283  13.019  64.169  1.00  0.00    -0.362 OA 
HETATM   18  C   UNL     1     -12.368  12.314  63.576  1.00  0.00    -0.565 C  
ENDBRANCH   4  17
BRANCH  11  19
HETATM   19  O   UNL     1      -9.715   7.848  68.949  1.00  0.00    -0.154 OA 
BRANCH  19  20
HETATM   20  C   UNL     1      -9.844   6.762  68.134  1.00  0.00    -0.137 C  
HETATM   21  O   UNL     1     -10.821   6.547  67.423  1.00  0.00    -0.287 OA 
BRANCH  20  22
HETATM   22  C   UNL     1      -8.610   5.820  68.198  1.00  0.00    -0.108 C  
HETATM   23  C   UNL     1      -9.811   4.110  69.676  1.00  0.00    -0.208 C  
HETATM   24  C   UNL     1      -7.330   4.068  69.574  1.00  0.00    -0.053 C  
HETATM   25  H2  UNL     1      -7.286   7.358  68.695  1.00  0.00     0.000 HD 
HETATM   26  H1  UNL     1      -6.546   5.974  68.066  1.00  0.00     0.000 HD 
HETATM   27  C   UNL     1      -8.563   4.985  69.505  1.00  0.00    -0.102 C  
HETATM   28  N   UNL     1      -7.357   6.594  68.024  1.00  0.00    -0.094 NA 
ENDBRANCH  20  22
ENDBRANCH  19  20
ENDBRANCH  11  19
BRANCH  13  29
HETATM   29  C   UNL     1     -11.652   7.734  71.395  1.00  0.00    -0.305 C  
HETATM   30  C   UNL     1     -11.400   5.653  72.790  1.00  0.00    -0.350 C  
HETATM   31  C   UNL     1      -9.948   7.629  73.287  1.00  0.00    -0.379 C  
HETATM   32  C   UNL     1     -10.669   6.853  72.183  1.00  0.00    -0.248 C  
ENDBRANCH  13  29
ENDBRANCH   2   3
TORSDOF 6
ENDMDL
MODEL        7
REMARK 921   NORMALIZED FREE ENERGY PREDICTED BY IDOCK:   -6.58 KCAL/MOL
REMARK 922        TOTAL FREE ENERGY PREDICTED BY IDOCK:   -9.70 KCAL/MOL
REMARK 923 INTER-LIGAND FREE ENERGY PREDICTED BY IDOCK:   -8.56 KCAL/MOL
REMARK 924 INTRA-LIGAND FREE ENERGY PREDICTED BY IDOCK:   -1.14 KCAL/MOL
REMARK 927      BINDING AFFINITY PREDICTED BY RF-SCORE:    0.00 PKD
ROOT
HETATM    1  C   UNL     1     -11.871  15.776  64.233  1.00  0.00    -0.118 C  
HETATM    2  O   UNL     1     -12.603  14.574  64.447  1.00  0.00    -0.665 OA 
ENDROOT
BRANCH   2   3
HETATM    3  C   UNL     1     -11.923  13.530  65.021  1.00  0.00    -0.372 A  
HETATM    4  C   UNL     1     -11.764  13.273  66.390  1.00  0.00    -0.373 A  
HETATM    5  C   UNL     1     -11.058  12.132  66.778  1.00  0.00    -0.349 A  
HETATM    6  N   UNL     1      -9.513   8.989  65.283  1.00  0.00    -0.121 NA 
HETATM    7  C   UNL     1     -10.528  11.221  65.848  1.00  0.00    -0.314 A  
HETATM    8  C   UNL     1      -8.966   9.635  64.082  1.00  0.00    -0.229 C  
HETATM    9  C   UNL     1      -9.804   9.975  66.345  1.00  0.00    -0.224 C  
HETATM   10  C   UNL     1     -10.619   9.222  67.413  1.00  0.00    -0.324 C  
HETATM   11  C   UNL     1      -9.814   8.085  68.042  1.00  0.00    -0.167 C  
HETATM   12  C   UNL     1      -9.931  10.662  63.466  1.00  0.00    -0.347 C  
HETATM   13  C   UNL     1      -9.193   7.165  66.969  1.00  0.00    -0.167 C  
HETATM   14  C   UNL     1      -8.579   7.980  65.808  1.00  0.00    -0.153 C  
HETATM   15  C   UNL     1     -11.313  12.680  64.088  1.00  0.00    -0.439 A  
HETATM   16  C   UNL     1     -10.600  11.539  64.491  1.00  0.00    -0.387 A  
BRANCH   4  17
HETATM   17  O   UNL     1     -12.239  14.178  67.303  1.00  0.00    -0.402 OA 
HETATM   18  C   UNL     1     -11.940  13.916  68.670  1.00  0.00    -0.366 C  
ENDBRANCH   4  17
BRANCH  11  19
HETATM   19  O   UNL     1     -10.717   7.302  68.864  1.00  0.00    -0.205 OA 
BRANCH  19  20
HETATM   20  C   UNL     1     -10.648   7.453  70.218  1.00  0.00    -0.231 C  
HETATM   21  O   UNL     1      -9.612   7.356  70.871  1.00  0.00    -0.166 OA 
BRANCH  20  22
HETATM   22  C   UNL     1     -12.031   7.768  70.853  1.00  0.00    -0.210 C  
HETATM   23  C   UNL     1     -11.680  10.300  70.717  1.00  0.00    -0.453 C  
HETATM   24  C   UNL     1     -13.407   9.414  72.267  1.00  0.00    -0.539 C  
HETATM   25  H2  UNL     1     -11.759   6.439  72.443  1.00  0.00     0.000 HD 
HETATM   26  H1  UNL     1     -13.369   6.863  72.153  1.00  0.00     0.000 HD 
HETATM   27  C   UNL     1     -12.042   9.115  71.623  1.00  0.00    -0.432 C  
HETATM   28  N   UNL     1     -12.461   6.656  71.736  1.00  0.00    -0.351 NA 
ENDBRANCH  20  22
ENDBRANCH  19  20
ENDBRANCH  11  19
BRANCH  13  29
HETATM   29  C   UNL     1      -8.092   6.240  67.550  1.00  0.00    -0.113 C  
HETATM   30  C   UNL     1      -7.356   4.115  68.684  1.00  0.00    -0.055 C  
HETATM   31  C   UNL     1      -9.200   4.013  66.996  1.00  0.00    -0.186 C  
HETATM   32  C   UNL     1      -8.544   4.869  68.080  1.00  0.00    -0.104 C  
ENDBRANCH  13  29
ENDBRANCH   2   3
TORSDOF 6
ENDMDL
MODEL        8
REMARK 921   NORMALIZED FREE ENERGY PREDICTED BY IDOCK:   -6.53 KCAL/MOL
REMARK 922        TOTAL FREE ENERGY PREDICTED BY IDOCK:   -9.65 KCAL/MOL
REMARK 923 INTER-LIGAND FREE ENERGY PREDICTED BY IDOCK:   -8.54 KCAL/MOL
REMARK 924 INTRA-LIGAND FREE ENERGY PREDICTED BY IDOCK:   -1.11 KCAL/MOL
REMARK 927      BINDING AFFINITY PREDICTED BY RF-SCORE:    0.00 PKD
ROOT
HETATM    1  C   UNL     1     -10.561  16.161  67.905  1.00  0.00    -0.309 C  
HETATM    2  O   UNL     1     -11.612  15.325  67.432  1.00  0.00    -0.303 OA 
ENDROOT
BRANCH   2   3
HETATM    3  C   UNL     1     -11.678  14.059  67.955  1.00  0.00    -0.359 A  
HETATM    4  C   UNL     1     -11.384  12.854  67.301  1.00  0.00    -0.310 A  
HETATM    5  C   UNL     1     -11.481  11.662  68.021  1.00  0.00    -0.385 A  
HETATM    6  N   UNL     1     -12.029  10.419  71.579  1.00  0.00    -0.289 NA 
HETATM    7  C   UNL     1     -11.836  11.629  69.380  1.00  0.00    -0.408 A  
HETATM    8  C   UNL     1     -13.059  11.404  71.936  1.00  0.00    -0.400 C  
HETATM    9  C   UNL     1     -11.883  10.293  70.113  1.00  0.00    -0.263 C  
HETATM   10  C   UNL     1     -10.607   9.464  69.882  1.00  0.00    -0.258 C  
HETATM   11  C   UNL     1     -10.734   8.054  70.460  1.00  0.00    -0.229 C  
HETATM   12  C   UNL     1     -12.743  12.814  71.409  1.00  0.00    -0.353 C  
HETATM   13  C   UNL     1     -11.202   8.082  71.931  1.00  0.00    -0.335 C  
HETATM   14  C   UNL     1     -12.346   9.099  72.145  1.00  0.00    -0.354 C  
HETATM   15  C   UNL     1     -12.128  14.027  69.283  1.00  0.00    -0.380 A  
HETATM   16  C   UNL     1     -12.228  12.819  69.994  1.00  0.00    -0.279 A  
BRANCH   4  17
HETATM   17  O   UNL     1     -11.080  12.873  65.964  1.00  0.00    -0.273 OA 
HETATM   18  C   UNL     1     -12.163  12.659  65.066  1.00  0.00    -0.476 C  
ENDBRANCH   4  17
BRANCH  11  19
HETATM   19  O   UNL     1      -9.429   7.426  70.396  1.00  0.00    -0.165 OA 
BRANCH  19  20
HETATM   20  C   UNL     1      -9.290   6.309  69.625  1.00  0.00    -0.143 C  
HETATM   21  O   UNL     1      -9.677   5.191  69.956  1.00  0.00    -0.170 OA 
BRANCH  20  22
HETATM   22  C   UNL     1      -8.588   6.603  68.271  1.00  0.00    -0.119 C  
HETATM   23  C   UNL     1     -10.774   6.493  66.946  1.00  0.00    -0.403 C  
HETATM   24  C   UNL     1      -8.625   6.256  65.726  1.00  0.00    -0.153 C  
HETATM   25  H2  UNL     1      -7.102   5.164  68.569  1.00  0.00     0.000 HD 
HETATM   26  H1  UNL     1      -6.715   6.340  67.419  1.00  0.00     0.000 HD 
HETATM   27  C   UNL     1      -9.334   5.979  67.062  1.00  0.00    -0.128 C  
HETATM   28  N   UNL     1      -7.176   6.147  68.309  1.00  0.00    -0.082 NA 
ENDBRANCH  20  22
ENDBRANCH  19  20
ENDBRANCH  11  19
BRANCH  13  29
HETATM   29  C   UNL     1     -11.687   6.693  72.423  1.00  0.00    -0.260 C  
HETATM   30  C   UNL     1     -11.281   4.477  73.549  1.00  0.00    -0.388 C  
HETATM   31  C   UNL     1     -10.194   6.528  74.481  1.00  0.00    -0.273 C  
HETATM   32  C   UNL     1     -10.673   5.839  73.203  1.00  0.00    -0.292 C  
ENDBRANCH  13  29
ENDBRANCH   2   3
TORSDOF 6
ENDMDL
MODEL        9
REMARK 921   NORMALIZED FREE ENERGY PREDICTED BY IDOCK:   -6.49 KCAL/MOL
REMARK 922        TOTAL FREE ENERGY PREDICTED BY IDOCK:   -9.59 KCAL/MOL
REMARK 923 INTER-LIGAND FREE ENERGY PREDICTED BY IDOCK:   -8.51 KCAL/MOL
REMARK 924 INTRA-LIGAND FREE ENERGY PREDICTED BY IDOCK:   -1.08 KCAL/MOL
REMARK 927      BINDING AFFINITY PREDICTED BY RF-SCORE:    0.00 PKD
ROOT
HETATM    1  C   UNL     1      -9.055   3.445  68.527  1.00  0.00    -0.151 C  
HETATM    2  O   UNL     1     -10.115   4.170  67.914  1.00  0.00    -0.019 OA 
ENDROOT
BRANCH   2   3
HETATM    3  C   UNL     1     -10.218   5.500  68.230  1.00  0.00    -0.178 A  
HETATM    4  C   UNL     1      -9.776   6.591  67.467  1.00  0.00    -0.122 A  
HETATM    5  C   UNL     1     -10.003   7.881  67.950  1.00  0.00    -0.220 A  
HETATM    6  N   UNL     1     -11.853   9.682  70.750  1.00  0.00    -0.294 NA 
HETATM    7  C   UNL     1     -10.680   8.126  69.157  1.00  0.00    -0.117 A  
HETATM    8  C   UNL     1     -11.532   8.710  71.804  1.00  0.00    -0.324 C  
HETATM    9  C   UNL     1     -10.928   9.562  69.602  1.00  0.00    -0.212 C  
HETATM   10  C   UNL     1     -11.535  10.418  68.476  1.00  0.00    -0.231 C  
HETATM   11  C   UNL     1     -11.607  11.896  68.863  1.00  0.00    -0.311 C  
HETATM   12  C   UNL     1     -11.629   7.254  71.321  1.00  0.00    -0.316 C  
HETATM   13  C   UNL     1     -12.290  12.093  70.232  1.00  0.00    -0.269 C  
HETATM   14  C   UNL     1     -11.797  11.057  71.269  1.00  0.00     0.129 C  
HETATM   15  C   UNL     1     -10.806   5.733  69.482  1.00  0.00    -0.410 A  
HETATM   16  C   UNL     1     -11.022   7.036  69.960  1.00  0.00    -0.303 A  
BRANCH   4  17
HETATM   17  O   UNL     1      -9.076   6.361  66.311  1.00  0.00    -0.153 OA 
HETATM   18  C   UNL     1      -7.938   7.186  66.084  1.00  0.00    -0.112 C  
ENDBRANCH   4  17
BRANCH  11  19
HETATM   19  O   UNL     1     -12.382  12.585  67.849  1.00  0.00    -0.245 OA 
BRANCH  19  20
HETATM   20  C   UNL     1     -11.711  13.319  66.916  1.00  0.00    -0.388 C  
HETATM   21  O   UNL     1     -10.986  14.274  67.182  1.00  0.00    -0.291 OA 
BRANCH  20  22
HETATM   22  C   UNL     1     -11.960  12.814  65.468  1.00  0.00    -0.449 C  
HETATM   23  C   UNL     1      -9.809  11.428  65.425  1.00  0.00    -0.277 C  
HETATM   24  C   UNL     1     -10.894  12.018  63.271  1.00  0.00    -0.400 C  
HETATM   25  H2  UNL     1     -12.365  14.724  64.722  1.00  0.00     0.000 HD 
HETATM   26  H1  UNL     1     -12.944  13.460  63.760  1.00  0.00     0.000 HD 
HETATM   27  C   UNL     1     -10.644  12.498  64.710  1.00  0.00    -0.333 C  
HETATM   28  N   UNL     1     -12.780  13.792  64.711  1.00  0.00    -0.684 NA 
ENDBRANCH  20  22
ENDBRANCH  19  20
ENDBRANCH  11  19
BRANCH  13  29
HETATM   29  C   UNL     1     -12.054  13.512  70.812  1.00  0.00    -0.351 C  
HETATM   30  C   UNL     1     -12.903  15.718  71.681  1.00  0.00    -0.514 C  
HETATM   31  C   UNL     1     -14.136  13.625  72.278  1.00  0.00    -0.602 C  
HETATM   32  C   UNL     1     -13.304  14.321  71.200  1.00  0.00    -0.363 C  
ENDBRANCH  13  29
ENDBRANCH   2   3
TORSDOF 6
ENDMDL
MODEL       10
REMARK 921   NORMALIZED FREE ENERGY PREDICTED BY IDOCK:   -6.47 KCAL/MOL
REMARK 922        TOTAL FREE ENERGY PREDICTED BY IDOCK:   -9.56 KCAL/MOL
REMARK 923 INTER-LIGAND FREE ENERGY PREDICTED BY IDOCK:   -9.03 KCAL/MOL
REMARK 924 INTRA-LIGAND FREE ENERGY PREDICTED BY IDOCK:   -0.53 KCAL/MOL
REMARK 927      BINDING AFFINITY PREDICTED BY RF-SCORE:    0.00 PKD
ROOT
HETATM    1  C   UNL     1      -5.936  19.859  70.399  1.00  0.00    -0.323 C  
HETATM    2  O   UNL     1      -5.475  18.524  70.218  1.00  0.00    -0.218 OA 
ENDROOT
BRANCH   2   3
HETATM    3  C   UNL     1      -6.320  17.662  69.568  1.00  0.00    -0.223 A  
HETATM    4  C   UNL     1      -6.385  16.268  69.713  1.00  0.00    -0.181 A  
HETATM    5  C   UNL     1      -7.343  15.564  68.980  1.00  0.00    -0.162 A  
HETATM    6  N   UNL     1     -10.349  16.182  66.724  1.00  0.00    -0.287 NA 
HETATM    7  C   UNL     1      -8.258  16.203  68.127  1.00  0.00    -0.157 A  
HETATM    8  C   UNL     1      -9.768  17.316  65.992  1.00  0.00    -0.168 C  
HETATM    9  C   UNL     1      -9.304  15.374  67.390  1.00  0.00    -0.201 C  
HETATM   10  C   UNL     1     -10.048  14.412  68.334  1.00  0.00    -0.244 C  
HETATM   11  C   UNL     1     -10.958  13.453  67.565  1.00  0.00    -0.267 C  
HETATM   12  C   UNL     1      -8.991  18.279  66.904  1.00  0.00    -0.281 C  
HETATM   13  C   UNL     1     -11.884  14.209  66.589  1.00  0.00    -0.447 C  
HETATM   14  C   UNL     1     -11.124  15.315  65.823  1.00  0.00    -0.301 C  
HETATM   15  C   UNL     1      -7.164  18.296  68.645  1.00  0.00    -0.293 A  
HETATM   16  C   UNL     1      -8.119  17.575  67.909  1.00  0.00    -0.230 A  
BRANCH   4  17
HETATM   17  O   UNL     1      -5.467  15.633  70.508  1.00  0.00    -0.152 OA 
HETATM   18  C   UNL     1      -5.794  14.309  70.919  1.00  0.00    -0.210 C  
ENDBRANCH   4  17
BRANCH  11  19
HETATM   19  O   UNL     1     -11.774  12.743  68.531  1.00  0.00    -0.296 OA 
BRANCH  19  20
HETATM   20  C   UNL     1     -11.670  11.384  68.584  1.00  0.00    -0.329 C  
HETATM   21  O   UNL     1     -11.698  10.652  67.598  1.00  0.00    -0.480 OA 
BRANCH  20  22
HETATM   22  C   UNL     1     -11.508  10.855  70.036  1.00  0.00    -0.329 C  
HETATM   23  C   UNL     1      -9.151   9.959  69.602  1.00  0.00    -0.245 C  
HETATM   24  C   UNL     1     -10.414   9.100  71.560  1.00  0.00    -0.422 C  
HETATM   25  H2  UNL     1     -13.357   9.880  70.035  1.00  0.00     0.000 HD 
HETATM   26  H1  UNL     1     -12.727  10.182  71.573  1.00  0.00     0.000 HD 
HETATM   27  C   UNL     1     -10.556   9.633  70.124  1.00  0.00    -0.320 C  
HETATM   28  N   UNL     1     -12.833  10.530  70.620  1.00  0.00    -0.358 NA 
ENDBRANCH  20  22
ENDBRANCH  19  20
ENDBRANCH  11  19
BRANCH  13  29
HETATM   29  C   UNL     1     -12.544  13.264  65.551  1.00  0.00    -0.505 C  
HETATM   30  C   UNL     1     -12.532  12.037  63.351  1.00  0.00    -0.625 C  
HETATM   31  C   UNL     1     -10.406  12.202  64.659  1.00  0.00    -0.328 C  
HETATM   32  C   UNL     1     -11.713  12.911  64.305  1.00  0.00    -0.445 C  
ENDBRANCH  13  29
ENDBRANCH   2   3
TORSDOF 6
ENDMDL
MODEL       11
REMARK 921   NORMALIZED FREE ENERGY PREDICTED BY IDOCK:   -6.43 KCAL/MOL
REMARK 922        TOTAL FREE ENERGY PREDICTED BY IDOCK:   -9.50 KCAL/MOL
REMARK 923 INTER-LIGAND FREE ENERGY PREDICTED BY IDOCK:   -8.68 KCAL/MOL
REMARK 924 INTRA-LIGAND FREE ENERGY PREDICTED BY IDOCK:   -0.82 KCAL/MOL
REMARK 927      BINDING AFFINITY PREDICTED BY RF-SCORE:    0.00 PKD
ROOT
HETATM    1  C   UNL     1     -11.368   6.078  72.675  1.00  0.00    -0.277 C  
HETATM    2  O   UNL     1     -12.208   6.516  71.613  1.00  0.00    -0.343 OA 
ENDROOT
BRANCH   2   3
HETATM    3  C   UNL     1     -11.951   7.759  71.093  1.00  0.00    -0.291 A  
HETATM    4  C   UNL     1     -11.077   8.075  70.043  1.00  0.00    -0.154 A  
HETATM    5  C   UNL     1     -10.976   9.407  69.636  1.00  0.00    -0.216 A  
HETATM    6  N   UNL     1     -12.624  12.789  70.225  1.00  0.00    -0.069 NA 
HETATM    7  C   UNL     1     -11.736  10.434  70.220  1.00  0.00    -0.406 A  
HETATM    8  C   UNL     1     -12.796  12.632  71.676  1.00  0.00    -0.264 C  
HETATM    9  C   UNL     1     -11.604  11.859  69.696  1.00  0.00    -0.317 C  
HETATM   10  C   UNL     1     -11.724  11.923  68.163  1.00  0.00    -0.388 C  
HETATM   11  C   UNL     1     -11.404  13.319  67.627  1.00  0.00    -0.296 C  
HETATM   12  C   UNL     1     -13.252  11.218  72.073  1.00  0.00    -0.437 C  
HETATM   13  C   UNL     1     -12.213  14.409  68.361  1.00  0.00    -0.178 C  
HETATM   14  C   UNL     1     -12.239  14.167  69.888  1.00  0.00    -0.359 C  
HETATM   15  C   UNL     1     -12.639   8.792  71.747  1.00  0.00    -0.409 A  
HETATM   16  C   UNL     1     -12.523  10.128  71.332  1.00  0.00    -0.524 A  
BRANCH   4  17
HETATM   17  O   UNL     1     -10.299   7.087  69.497  1.00  0.00    -0.199 OA 
HETATM   18  C   UNL     1      -8.945   7.032  69.936  1.00  0.00    -0.142 C  
ENDBRANCH   4  17
BRANCH  11  19
HETATM   19  O   UNL     1     -11.752  13.346  66.219  1.00  0.00    -0.334 OA 
BRANCH  19  20
HETATM   20  C   UNL     1     -10.743  13.267  65.306  1.00  0.00    -0.311 C  
HETATM   21  O   UNL     1      -9.982  14.193  65.037  1.00  0.00    -0.336 OA 
BRANCH  20  22
HETATM   22  C   UNL     1     -10.653  11.867  64.637  1.00  0.00    -0.306 C  
HETATM   23  C   UNL     1      -8.840  11.052  66.248  1.00  0.00    -0.187 C  
HETATM   24  C   UNL     1      -9.158   9.849  64.099  1.00  0.00    -0.294 C  
HETATM   25  H2  UNL     1     -10.507  12.646  62.703  1.00  0.00     0.000 HD 
HETATM   26  H1  UNL     1     -10.991  11.029  62.770  1.00  0.00     0.000 HD 
HETATM   27  C   UNL     1      -9.248  11.225  64.780  1.00  0.00    -0.107 C  
HETATM   28  N   UNL     1     -11.050  11.948  63.209  1.00  0.00    -0.349 NA 
ENDBRANCH  20  22
ENDBRANCH  19  20
ENDBRANCH  11  19
BRANCH  13  29
HETATM   29  C   UNL     1     -11.654  15.833  68.103  1.00  0.00    -0.259 C  
HETATM   30  C   UNL     1     -10.209  17.794  68.743  1.00  0.00    -0.373 C  
HETATM   31  C   UNL     1      -9.347  15.477  69.126  1.00  0.00    -0.250 C  
HETATM   32  C   UNL     1     -10.598  16.355  69.093  1.00  0.00    -0.308 C  
ENDBRANCH  13  29
ENDBRANCH   2   3
TORSDOF 6
ENDMDL
MODEL       12
REMARK 921   NORMALIZED FREE ENERGY PREDICTED BY IDOCK:   -6.33 KCAL/MOL
REMARK 922        TOTAL FREE ENERGY PREDICTED BY IDOCK:   -9.37 KCAL/MOL
REMARK 923 INTER-LIGAND FREE ENERGY PREDICTED BY IDOCK:   -8.18 KCAL/MOL
REMARK 924 INTRA-LIGAND FREE ENERGY PREDICTED BY IDOCK:   -1.19 KCAL/MOL
REMARK 927      BINDING AFFINITY PREDICTED BY RF-SCORE:    0.00 PKD
ROOT
HETATM    1  C   UNL     1     -11.249   4.798  73.319  1.00  0.00    -0.340 C  
HETATM    2  O   UNL     1     -10.673   6.003  73.812  1.00  0.00    -0.261 OA 
ENDROOT
BRANCH   2   3
HETATM    3  C   UNL     1     -10.552   7.039  72.922  1.00  0.00    -0.272 A  
HETATM    4  C   UNL     1      -9.424   7.374  72.158  1.00  0.00    -0.139 A  
HETATM    5  C   UNL     1      -9.510   8.454  71.278  1.00  0.00    -0.240 A  
HETATM    6  N   UNL     1     -12.077  10.878  69.849  1.00  0.00    -0.333 NA 
HETATM    7  C   UNL     1     -10.690   9.199  71.111  1.00  0.00    -0.380 A  
HETATM    8  C   UNL     1     -12.818  11.082  71.102  1.00  0.00    -0.392 C  
HETATM    9  C   UNL     1     -10.723  10.340  70.102  1.00  0.00    -0.278 C  
HETATM   10  C   UNL     1     -10.172   9.912  68.729  1.00  0.00    -0.205 C  
HETATM   11  C   UNL     1     -10.031  11.102  67.779  1.00  0.00    -0.175 C  
HETATM   12  C   UNL     1     -13.010   9.782  71.899  1.00  0.00    -0.535 C  
HETATM   13  C   UNL     1     -11.334  11.924  67.699  1.00  0.00    -0.372 C  
HETATM   14  C   UNL     1     -11.961  12.136  69.096  1.00  0.00    -0.255 C  
HETATM   15  C   UNL     1     -11.701   7.837  72.834  1.00  0.00    -0.231 A  
HETATM   16  C   UNL     1     -11.773   8.926  71.949  1.00  0.00    -0.439 A  
BRANCH   4  17
HETATM   17  O   UNL     1      -8.256   6.681  72.347  1.00  0.00    -0.104 OA 
HETATM   18  C   UNL     1      -8.018   5.587  71.468  1.00  0.00    -0.116 C  
ENDBRANCH   4  17
BRANCH  11  19
HETATM   19  O   UNL     1      -9.721  10.584  66.460  1.00  0.00    -0.179 OA 
BRANCH  19  20
HETATM   20  C   UNL     1      -8.472  10.804  65.960  1.00  0.00    -0.169 C  
HETATM   21  O   UNL     1      -7.686  11.634  66.410  1.00  0.00    -0.076 OA 
BRANCH  20  22
HETATM   22  C   UNL     1      -8.142   9.884  64.752  1.00  0.00    -0.151 C  
HETATM   23  C   UNL     1      -9.291  11.434  63.071  1.00  0.00    -0.344 C  
HETATM   24  C   UNL     1      -8.865   9.074  62.424  1.00  0.00    -0.177 C  
HETATM   25  H2  UNL     1      -8.831   8.156  65.703  1.00  0.00     0.000 HD 
HETATM   26  H1  UNL     1      -7.789   7.871  64.403  1.00  0.00     0.000 HD 
HETATM   27  C   UNL     1      -9.184  10.001  63.609  1.00  0.00    -0.314 C  
HETATM   28  N   UNL     1      -8.006   8.475  65.196  1.00  0.00    -0.122 NA 
ENDBRANCH  20  22
ENDBRANCH  19  20
ENDBRANCH  11  19
BRANCH  13  29
HETATM   29  C   UNL     1     -11.116  13.315  67.047  1.00  0.00    -0.304 C  
HETATM   30  C   UNL     1     -10.897  14.804  65.028  1.00  0.00    -0.440 C  
HETATM   31  C   UNL     1     -12.581  12.954  64.993  1.00  0.00    -0.538 C  
HETATM   32  C   UNL     1     -11.210  13.386  65.513  1.00  0.00    -0.303 C  
ENDBRANCH  13  29
ENDBRANCH   2   3
TORSDOF 6
ENDMDL
MODEL       13
REMARK 921   NORMALIZED FREE ENERGY PREDICTED BY IDOCK:   -6.30 KCAL/MOL
REMARK 922        TOTAL FREE ENERGY PREDICTED BY IDOCK:   -9.32 KCAL/MOL
REMARK 923 INTER-LIGAND FREE ENERGY PREDICTED BY IDOCK:   -8.45 KCAL/MOL
REMARK 924 INTRA-LIGAND FREE ENERGY PREDICTED BY IDOCK:   -0.88 KCAL/MOL
REMARK 927      BINDING AFFINITY PREDICTED BY RF-SCORE:    0.00 PKD
ROOT
HETATM    1  C   UNL     1     -12.136  14.516  64.554  1.00  0.00    -0.484 C  
HETATM    2  O   UNL     1     -12.318  14.338  65.954  1.00  0.00    -0.430 OA 
ENDROOT
BRANCH   2   3
HETATM    3  C   UNL     1     -11.800  13.194  66.504  1.00  0.00    -0.400 A  
HETATM    4  C   UNL     1     -11.791  12.832  67.859  1.00  0.00    -0.339 A  
HETATM    5  C   UNL     1     -11.240  11.600  68.218  1.00  0.00    -0.320 A  
HETATM    6  N   UNL     1      -9.882   8.417  66.628  1.00  0.00    -0.252 NA 
HETATM    7  C   UNL     1     -10.719  10.702  67.271  1.00  0.00    -0.338 A  
HETATM    8  C   UNL     1      -9.167   9.080  65.528  1.00  0.00    -0.198 C  
HETATM    9  C   UNL     1     -10.170   9.357  67.732  1.00  0.00    -0.222 C  
HETATM   10  C   UNL     1     -11.149   8.626  68.669  1.00  0.00     0.259 C  
HETATM   11  C   UNL     1     -10.521   7.371  69.277  1.00  0.00    -0.220 C  
HETATM   12  C   UNL     1      -9.966  10.240  64.912  1.00  0.00    -0.393 C  
HETATM   13  C   UNL     1      -9.899   6.464  68.195  1.00  0.00    -0.127 C  
HETATM   14  C   UNL     1      -9.104   7.285  67.153  1.00  0.00    -0.130 C  
HETATM   15  C   UNL     1     -11.194  12.347  65.564  1.00  0.00    -0.364 A  
HETATM   16  C   UNL     1     -10.636  11.114  65.940  1.00  0.00    -0.294 A  
BRANCH   4  17
HETATM   17  O   UNL     1     -12.256  13.720  68.794  1.00  0.00    -0.350 OA 
HETATM   18  C   UNL     1     -12.071  13.359  70.158  1.00  0.00    -0.344 C  
ENDBRANCH   4  17
BRANCH  11  19
HETATM   19  O   UNL     1     -11.567   6.635  69.960  1.00  0.00    -0.380 OA 
BRANCH  19  20
HETATM   20  C   UNL     1     -11.437   6.429  71.302  1.00  0.00    -0.314 C  
HETATM   21  O   UNL     1     -10.999   5.395  71.801  1.00  0.00    -0.213 OA 
BRANCH  20  22
HETATM   22  C   UNL     1     -11.903   7.650  72.141  1.00  0.00    -0.309 C  
HETATM   23  C   UNL     1     -14.362   7.332  71.510  1.00  0.00    -0.558 C  
HETATM   24  C   UNL     1     -13.631   9.534  72.394  1.00  0.00    -0.459 C  
HETATM   25  H2  UNL     1     -10.447   8.924  71.350  1.00  0.00     0.000 HD 
HETATM   26  H1  UNL     1     -11.113   9.447  72.813  1.00  0.00     0.000 HD 
HETATM   27  C   UNL     1     -13.185   8.313  71.572  1.00  0.00    -0.308 C  
HETATM   28  N   UNL     1     -10.807   8.644  72.262  1.00  0.00    -0.357 NA 
ENDBRANCH  20  22
ENDBRANCH  19  20
ENDBRANCH  11  19
BRANCH  13  29
HETATM   29  C   UNL     1      -8.951   5.393  68.795  1.00  0.00    -0.127 C  
HETATM   30  C   UNL     1      -8.387   3.005  69.364  1.00  0.00    -0.088 C  
HETATM   31  C   UNL     1      -9.537   3.496  67.197  1.00  0.00    -0.160 C  
HETATM   32  C   UNL     1      -9.387   3.924  68.658  1.00  0.00    -0.227 C  
ENDBRANCH  13  29
ENDBRANCH   2   3
TORSDOF 6
ENDMDL
MODEL       14
REMARK 921   NORMALIZED FREE ENERGY PREDICTED BY IDOCK:   -6.28 KCAL/MOL
REMARK 922        TOTAL FREE ENERGY PREDICTED BY IDOCK:   -9.30 KCAL/MOL
REMARK 923 INTER-LIGAND FREE ENERGY PREDICTED BY IDOCK:   -8.10 KCAL/MOL
REMARK 924 INTRA-LIGAND FREE ENERGY PREDICTED BY IDOCK:   -1.20 KCAL/MOL
REMARK 927      BINDING AFFINITY PREDICTED BY RF-SCORE:    0.00 PKD
ROOT
HETATM    1  C   UNL     1     -11.908  15.670  64.183  1.00  0.00    -0.068 C  
HETATM    2  O   UNL     1     -12.569  14.415  64.304  1.00  0.00    -0.676 OA 
ENDROOT
BRANCH   2   3
HETATM    3  C   UNL     1     -11.950  13.461  65.071  1.00  0.00    -0.374 A  
HETATM    4  C   UNL     1     -11.870  13.419  66.470  1.00  0.00    -0.396 A  
HETATM    5  C   UNL     1     -11.219  12.339  67.070  1.00  0.00    -0.367 A  
HETATM    6  N   UNL     1      -9.688   8.969  66.172  1.00  0.00    -0.274 NA 
HETATM    7  C   UNL     1     -10.667  11.284  66.325  1.00  0.00    -0.312 A  
HETATM    8  C   UNL     1      -9.061   9.408  64.917  1.00  0.00    -0.202 C  
HETATM    9  C   UNL     1     -10.006  10.116  67.049  1.00  0.00    -0.199 C  
HETATM   10  C   UNL     1     -10.897   9.558  68.174  1.00  0.00    -0.208 C  
HETATM   11  C   UNL     1     -10.159   8.517  69.017  1.00  0.00    -0.199 C  
HETATM   12  C   UNL     1      -9.963  10.344  64.096  1.00  0.00    -0.337 C  
HETATM   13  C   UNL     1      -9.510   7.428  68.138  1.00  0.00    -0.141 C  
HETATM   14  C   UNL     1      -8.813   8.037  66.899  1.00  0.00    -0.132 C  
HETATM   15  C   UNL     1     -11.317  12.462  64.317  1.00  0.00    -0.420 A  
HETATM   16  C   UNL     1     -10.659  11.385  64.932  1.00  0.00    -0.368 A  
BRANCH   4  17
HETATM   17  O   UNL     1     -12.365  14.467  67.203  1.00  0.00    -0.335 OA 
HETATM   18  C   UNL     1     -11.441  15.141  68.049  1.00  0.00    -0.342 C  
ENDBRANCH   4  17
BRANCH  11  19
HETATM   19  O   UNL     1     -11.125   7.892  69.900  1.00  0.00    -0.222 OA 
BRANCH  19  20
HETATM   20  C   UNL     1     -11.174   8.308  71.198  1.00  0.00    -0.258 C  
HETATM   21  O   UNL     1     -10.789   9.408  71.584  1.00  0.00    -0.368 OA 
BRANCH  20  22
HETATM   22  C   UNL     1     -11.776   7.234  72.146  1.00  0.00    -0.285 C  
HETATM   23  C   UNL     1      -9.479   6.332  72.822  1.00  0.00    -0.147 C  
HETATM   24  C   UNL     1     -11.481   4.913  73.205  1.00  0.00    -0.359 C  
HETATM   25  H2  UNL     1     -13.145   6.547  70.724  1.00  0.00     0.000 HD 
HETATM   26  H1  UNL     1     -13.534   6.147  72.320  1.00  0.00     0.000 HD 
HETATM   27  C   UNL     1     -10.872   5.981  72.282  1.00  0.00    -0.289 C  
HETATM   28  N   UNL     1     -13.138   6.852  71.697  1.00  0.00    -0.340 NA 
ENDBRANCH  20  22
ENDBRANCH  19  20
ENDBRANCH  11  19
BRANCH  13  29
HETATM   29  C   UNL     1      -8.467   6.584  68.916  1.00  0.00    -0.122 C  
HETATM   30  C   UNL     1      -7.778   4.490  70.134  1.00  0.00    -0.053 C  
HETATM   31  C   UNL     1      -9.216   4.290  68.097  1.00  0.00    -0.186 C  
HETATM   32  C   UNL     1      -8.884   5.157  69.312  1.00  0.00    -0.115 C  
ENDBRANCH  13  29
ENDBRANCH   2   3
TORSDOF 6
ENDMDL
MODEL       15
REMARK 921   NORMALIZED FREE ENERGY PREDICTED BY IDOCK:   -6.23 KCAL/MOL
REMARK 922        TOTAL FREE ENERGY PREDICTED BY IDOCK:   -9.23 KCAL/MOL
REMARK 923 INTER-LIGAND FREE ENERGY PREDICTED BY IDOCK:   -8.51 KCAL/MOL
REMARK 924 INTRA-LIGAND FREE ENERGY PREDICTED BY IDOCK:   -0.72 KCAL/MOL
REMARK 927      BINDING AFFINITY PREDICTED BY RF-SCORE:    0.00 PKD
ROOT
HETATM    1  C   UNL     1     -10.687   5.168  73.970  1.00  0.00    -0.268 C  
HETATM    2  O   UNL     1     -11.473   5.355  72.798  1.00  0.00    -0.300 OA 
ENDROOT
BRANCH   2   3
HETATM    3  C   UNL     1     -11.234   6.492  72.069  1.00  0.00    -0.273 A  
HETATM    4  C   UNL     1     -10.181   6.719  71.171  1.00  0.00    -0.193 A  
HETATM    5  C   UNL     1     -10.129   7.940  70.496  1.00  0.00    -0.192 A  
HETATM    6  N   UNL     1     -12.212  11.081  69.949  1.00  0.00    -0.339 NA 
HETATM    7  C   UNL     1     -11.105   8.936  70.665  1.00  0.00    -0.306 A  
HETATM    8  C   UNL     1     -12.694  11.196  71.333  1.00  0.00    -0.418 C  
HETATM    9  C   UNL     1     -11.007  10.230  69.864  1.00  0.00    -0.303 C  
HETATM   10  C   UNL     1     -10.779   9.963  68.365  1.00  0.00    -0.271 C  
HETATM   11  C   UNL     1     -10.493  11.255  67.597  1.00  0.00    -0.193 C  
HETATM   12  C   UNL     1     -13.078   9.839  71.945  1.00  0.00    -0.544 C  
HETATM   13  C   UNL     1     -11.557  12.335  67.883  1.00  0.00    -0.416 C  
HETATM   14  C   UNL     1     -11.906  12.405  69.388  1.00  0.00    -0.304 C  
HETATM   15  C   UNL     1     -12.157   7.519  72.316  1.00  0.00    -0.269 A  
HETATM   16  C   UNL     1     -12.090   8.746  71.636  1.00  0.00    -0.401 A  
BRANCH   4  17
HETATM   17  O   UNL     1      -9.200   5.771  71.034  1.00  0.00    -0.147 OA 
HETATM   18  C   UNL     1      -8.169   6.058  70.096  1.00  0.00    -0.119 C  
ENDBRANCH   4  17
BRANCH  11  19
HETATM   19  O   UNL     1     -10.511  10.944  66.180  1.00  0.00    -0.247 OA 
BRANCH  19  20
HETATM   20  C   UNL     1      -9.320  10.907  65.515  1.00  0.00    -0.206 C  
HETATM   21  O   UNL     1      -8.269  11.363  65.957  1.00  0.00    -0.107 OA 
BRANCH  20  22
HETATM   22  C   UNL     1      -9.434  10.216  64.128  1.00  0.00    -0.293 C  
HETATM   23  C   UNL     1      -8.039   8.197  64.856  1.00  0.00    -0.153 C  
HETATM   24  C   UNL     1      -8.324   8.640  62.429  1.00  0.00    -0.200 C  
HETATM   25  H2  UNL     1      -8.892  11.936  63.072  1.00  0.00     0.000 HD 
HETATM   26  H1  UNL     1      -9.700  10.774  62.148  1.00  0.00     0.000 HD 
HETATM   27  C   UNL     1      -8.217   9.306  63.812  1.00  0.00    -0.166 C  
HETATM   28  N   UNL     1      -9.625  11.227  63.059  1.00  0.00    -0.365 NA 
ENDBRANCH  20  22
ENDBRANCH  19  20
ENDBRANCH  11  19
BRANCH  13  29
HETATM   29  C   UNL     1     -11.105  13.746  67.422  1.00  0.00    -0.312 C  
HETATM   30  C   UNL     1     -10.715  15.468  65.627  1.00  0.00    -0.378 C  
HETATM   31  C   UNL     1     -12.733  13.997  65.477  1.00  0.00    -0.517 C  
HETATM   32  C   UNL     1     -11.274  14.076  65.929  1.00  0.00    -0.308 C  
ENDBRANCH  13  29
ENDBRANCH   2   3
TORSDOF 6
ENDMDL
MODEL       16
REMARK 921   NORMALIZED FREE ENERGY PREDICTED BY IDOCK:   -6.23 KCAL/MOL
REMARK 922        TOTAL FREE ENERGY PREDICTED BY IDOCK:   -9.23 KCAL/MOL
REMARK 923 INTER-LIGAND FREE ENERGY PREDICTED BY IDOCK:   -8.30 KCAL/MOL
REMARK 924 INTRA-LIGAND FREE ENERGY PREDICTED BY IDOCK:   -0.93 KCAL/MOL
REMARK 927      BINDING AFFINITY PREDICTED BY RF-SCORE:    0.00 PKD
ROOT
HETATM    1  C   UNL     1      -7.757   7.289  62.736  1.00  0.00    -0.130 C  
HETATM    2  O   UNL     1      -7.506   7.031  64.114  1.00  0.00    -0.083 OA 
ENDROOT
BRANCH   2   3
HETATM    3  C   UNL     1      -8.369   7.598  65.016  1.00  0.00    -0.071 A  
HETATM    4  C   UNL     1      -9.135   6.938  65.987  1.00  0.00    -0.067 A  
HETATM    5  C   UNL     1      -9.935   7.701  66.840  1.00  0.00    -0.325 A  
HETATM    6  N   UNL     1     -10.616  11.335  67.753  1.00  0.00    -0.192 NA 
HETATM    7  C   UNL     1      -9.979   9.104  66.777  1.00  0.00    -0.322 A  
HETATM    8  C   UNL     1     -10.557  11.858  66.382  1.00  0.00    -0.248 C  
HETATM    9  C   UNL     1     -10.845   9.874  67.767  1.00  0.00    -0.264 C  
HETATM   10  C   UNL     1     -10.605   9.420  69.218  1.00  0.00    -0.239 C  
HETATM   11  C   UNL     1     -11.604  10.057  70.185  1.00  0.00    -0.252 C  
HETATM   12  C   UNL     1      -9.421  11.234  65.555  1.00  0.00    -0.255 C  
HETATM   13  C   UNL     1     -11.663  11.589  70.014  1.00  0.00    -0.414 C  
HETATM   14  C   UNL     1     -11.682  11.995  68.522  1.00  0.00    -0.332 C  
HETATM   15  C   UNL     1      -8.482   8.990  64.882  1.00  0.00    -0.195 A  
HETATM   16  C   UNL     1      -9.297   9.745  65.742  1.00  0.00    -0.278 A  
BRANCH   4  17
HETATM   17  O   UNL     1      -9.132   5.567  66.026  1.00  0.00    -0.151 OA 
HETATM   18  C   UNL     1     -10.233   4.950  66.685  1.00  0.00    -0.255 C  
ENDBRANCH   4  17
BRANCH  11  19
HETATM   19  O   UNL     1     -11.174   9.752  71.536  1.00  0.00    -0.360 OA 
BRANCH  19  20
HETATM   20  C   UNL     1     -11.712   8.661  72.152  1.00  0.00    -0.371 C  
HETATM   21  O   UNL     1     -12.859   8.613  72.589  1.00  0.00    -0.361 OA 
BRANCH  20  22
HETATM   22  C   UNL     1     -10.714   7.473  72.239  1.00  0.00    -0.250 C  
HETATM   23  C   UNL     1     -11.634   6.355  70.130  1.00  0.00    -0.449 C  
HETATM   24  C   UNL     1     -10.295   4.993  71.717  1.00  0.00    -0.268 C  
HETATM   25  H2  UNL     1     -11.111   7.108  74.258  1.00  0.00     0.000 HD 
HETATM   26  H1  UNL     1      -9.651   6.462  73.705  1.00  0.00     0.000 HD 
HETATM   27  C   UNL     1     -11.277   6.172  71.610  1.00  0.00    -0.342 C  
HETATM   28  N   UNL     1     -10.306   7.242  73.647  1.00  0.00    -0.362 NA 
ENDBRANCH  20  22
ENDBRANCH  19  20
ENDBRANCH  11  19
BRANCH  13  29
HETATM   29  C   UNL     1     -12.905  12.213  70.703  1.00  0.00    -0.031 C  
HETATM   30  C   UNL     1     -13.970  13.902  72.238  1.00  0.00    -0.663 C  
HETATM   31  C   UNL     1     -12.074  14.621  70.773  1.00  0.00    -0.387 C  
HETATM   32  C   UNL     1     -12.665  13.459  71.572  1.00  0.00    -0.386 C  
ENDBRANCH  13  29
ENDBRANCH   2   3
TORSDOF 6
ENDMDL
MODEL       17
REMARK 921   NORMALIZED FREE ENERGY PREDICTED BY IDOCK:   -6.18 KCAL/MOL
REMARK 922        TOTAL FREE ENERGY PREDICTED BY IDOCK:   -9.17 KCAL/MOL
REMARK 923 INTER-LIGAND FREE ENERGY PREDICTED BY IDOCK:   -7.85 KCAL/MOL
REMARK 924 INTRA-LIGAND FREE ENERGY PREDICTED BY IDOCK:   -1.32 KCAL/MOL
REMARK 927      BINDING AFFINITY PREDICTED BY RF-SCORE:    0.00 PKD
ROOT
HETATM    1  C   UNL     1     -12.837  14.766  73.099  1.00  0.00    -0.508 C  
HETATM    2  O   UNL     1     -13.234  14.445  71.770  1.00  0.00    -0.321 OA 
ENDROOT
BRANCH   2   3
HETATM    3  C   UNL     1     -12.821  13.234  71.278  1.00  0.00    -0.312 A  
HETATM    4  C   UNL     1     -12.003  13.006  70.162  1.00  0.00    -0.303 A  
HETATM    5  C   UNL     1     -11.666  11.691  69.837  1.00  0.00    -0.414 A  
HETATM    6  N   UNL     1     -11.964   8.157  71.227  1.00  0.00    -0.291 NA 
HETATM    7  C   UNL     1     -12.093  10.592  70.602  1.00  0.00    -0.461 A  
HETATM    8  C   UNL     1     -13.334   8.301  71.738  1.00  0.00    -0.352 C  
HETATM    9  C   UNL     1     -11.652   9.186  70.212  1.00  0.00    -0.086 C  
HETATM   10  C   UNL     1     -10.133   9.104  69.975  1.00  0.00    -0.230 C  
HETATM   11  C   UNL     1      -9.721   7.746  69.404  1.00  0.00    -0.169 C  
HETATM   12  C   UNL     1     -13.579   9.662  72.411  1.00  0.00    -0.397 C  
HETATM   13  C   UNL     1     -10.285   6.581  70.243  1.00  0.00    -0.227 C  
HETATM   14  C   UNL     1     -11.760   6.825  70.638  1.00  0.00    -0.386 C  
HETATM   15  C   UNL     1     -13.332  12.138  71.988  1.00  0.00    -0.470 A  
HETATM   16  C   UNL     1     -12.991  10.818  71.648  1.00  0.00    -0.581 A  
BRANCH   4  17
HETATM   17  O   UNL     1     -11.619  14.068  69.384  1.00  0.00    -0.261 OA 
HETATM   18  C   UNL     1     -11.889  13.963  67.990  1.00  0.00    -0.375 C  
ENDBRANCH   4  17
BRANCH  11  19
HETATM   19  O   UNL     1      -8.273   7.677  69.420  1.00  0.00    -0.125 OA 
BRANCH  19  20
HETATM   20  C   UNL     1      -7.610   7.792  68.233  1.00  0.00    -0.109 C  
HETATM   21  O   UNL     1      -7.695   8.765  67.488  1.00  0.00    -0.099 OA 
BRANCH  20  22
HETATM   22  C   UNL     1      -6.727   6.552  67.920  1.00  0.00    -0.068 C  
HETATM   23  C   UNL     1      -8.053   5.956  65.814  1.00  0.00    -0.121 C  
HETATM   24  C   UNL     1      -6.626   4.214  66.861  1.00  0.00    -0.046 C  
HETATM   25  H2  UNL     1      -6.851   5.800  69.866  1.00  0.00     0.000 HD 
HETATM   26  H1  UNL     1      -5.557   5.194  68.963  1.00  0.00     0.000 HD 
HETATM   27  C   UNL     1      -7.498   5.447  67.150  1.00  0.00    -0.084 C  
HETATM   28  N   UNL     1      -6.137   6.008  69.168  1.00  0.00    -0.027 NA 
ENDBRANCH  20  22
ENDBRANCH  19  20
ENDBRANCH  11  19
BRANCH  13  29
HETATM   29  C   UNL     1     -10.199   5.222  69.500  1.00  0.00    -0.338 C  
HETATM   30  C   UNL     1      -9.277   2.892  69.244  1.00  0.00    -0.212 C  
HETATM   31  C   UNL     1      -9.781   3.752  71.539  1.00  0.00    -0.241 C  
HETATM   32  C   UNL     1      -9.313   4.137  70.135  1.00  0.00    -0.234 C  
ENDBRANCH  13  29
ENDBRANCH   2   3
TORSDOF 6
ENDMDL
MODEL       18
REMARK 921   NORMALIZED FREE ENERGY PREDICTED BY IDOCK:   -6.04 KCAL/MOL
REMARK 922        TOTAL FREE ENERGY PREDICTED BY IDOCK:   -8.98 KCAL/MOL
REMARK 923 INTER-LIGAND FREE ENERGY PREDICTED BY IDOCK:   -7.94 KCAL/MOL
REMARK 924 INTRA-LIGAND FREE ENERGY PREDICTED BY IDOCK:   -1.04 KCAL/MOL
REMARK 927      BINDING AFFINITY PREDICTED BY RF-SCORE:    0.00 PKD
ROOT
HETATM    1  C   UNL     1     -10.883   5.089  73.811  1.00  0.00    -0.304 C  
HETATM    2  O   UNL     1     -11.759   5.344  72.719  1.00  0.00    -0.295 OA 
ENDROOT
BRANCH   2   3
HETATM    3  C   UNL     1     -11.429   6.387  71.892  1.00  0.00    -0.304 A  
HETATM    4  C   UNL     1     -10.407   6.419  70.933  1.00  0.00    -0.204 A  
HETATM    5  C   UNL     1     -10.249   7.572  70.162  1.00  0.00    -0.206 A  
HETATM    6  N   UNL     1     -11.978  10.893  69.462  1.00  0.00    -0.325 NA 
HETATM    7  C   UNL     1     -11.092   8.688  70.295  1.00  0.00    -0.230 A  
HETATM    8  C   UNL     1     -12.368  11.166  70.853  1.00  0.00    -0.399 C  
HETATM    9  C   UNL     1     -10.887   9.898  69.391  1.00  0.00    -0.237 C  
HETATM   10  C   UNL     1     -10.773   9.498  67.908  1.00  0.00    -0.285 C  
HETATM   11  C   UNL     1     -10.380  10.685  67.029  1.00  0.00    -0.231 C  
HETATM   12  C   UNL     1     -12.874   9.913  71.587  1.00  0.00    -0.537 C  
HETATM   13  C   UNL     1     -11.293  11.904  67.277  1.00  0.00    -0.393 C  
HETATM   14  C   UNL     1     -11.550  12.126  68.785  1.00  0.00    -0.327 C  
HETATM   15  C   UNL     1     -12.212   7.532  72.099  1.00  0.00    -0.283 A  
HETATM   16  C   UNL     1     -12.038   8.689  71.321  1.00  0.00    -0.333 A  
BRANCH   4  17
HETATM   17  O   UNL     1      -9.552   5.352  70.827  1.00  0.00    -0.160 OA 
HETATM   18  C   UNL     1      -8.161   5.645  70.906  1.00  0.00    -0.120 C  
ENDBRANCH   4  17
BRANCH  11  19
HETATM   19  O   UNL     1     -10.510  10.276  65.643  1.00  0.00    -0.200 OA 
BRANCH  19  20
HETATM   20  C   UNL     1      -9.394  10.296  64.860  1.00  0.00    -0.252 C  
HETATM   21  O   UNL     1      -9.256  11.017  63.875  1.00  0.00    -0.204 OA 
BRANCH  20  22
HETATM   22  C   UNL     1      -8.304   9.303  65.349  1.00  0.00    -0.137 C  
HETATM   23  C   UNL     1      -6.936  11.140  66.491  1.00  0.00    -0.126 C  
HETATM   24  C   UNL     1      -5.831   8.979  65.965  1.00  0.00    -0.051 C  
HETATM   25  H2  UNL     1      -8.083   8.404  63.476  1.00  0.00     0.000 HD 
HETATM   26  H1  UNL     1      -7.513   7.476  64.768  1.00  0.00     0.000 HD 
HETATM   27  C   UNL     1      -6.911   9.969  65.499  1.00  0.00    -0.124 C  
HETATM   28  N   UNL     1      -8.229   8.128  64.446  1.00  0.00    -0.136 NA 
ENDBRANCH  20  22
ENDBRANCH  19  20
ENDBRANCH  11  19
BRANCH  13  29
HETATM   29  C   UNL     1     -10.706  13.212  66.685  1.00  0.00    -0.286 C  
HETATM   30  C   UNL     1     -10.546  14.941  64.861  1.00  0.00    -0.417 C  
HETATM   31  C   UNL     1     -12.782  13.965  65.413  1.00  0.00    -0.525 C  
HETATM   32  C   UNL     1     -11.280  13.686  65.339  1.00  0.00    -0.306 C  
ENDBRANCH  13  29
ENDBRANCH   2   3
TORSDOF 6
ENDMDL
MODEL       19
REMARK 921   NORMALIZED FREE ENERGY PREDICTED BY IDOCK:   -6.01 KCAL/MOL
REMARK 922        TOTAL FREE ENERGY PREDICTED BY IDOCK:   -8.93 KCAL/MOL
REMARK 923 INTER-LIGAND FREE ENERGY PREDICTED BY IDOCK:   -8.26 KCAL/MOL
REMARK 924 INTRA-LIGAND FREE ENERGY PREDICTED BY IDOCK:   -0.68 KCAL/MOL
REMARK 927      BINDING AFFINITY PREDICTED BY RF-SCORE:    0.00 PKD
ROOT
HETATM    1  C   UNL     1     -10.657  19.371  65.837  1.00  0.00    -0.459 C  
HETATM    2  O   UNL     1      -9.816  18.850  66.861  1.00  0.00    -0.302 OA 
ENDROOT
BRANCH   2   3
HETATM    3  C   UNL     1      -9.735  17.485  66.958  1.00  0.00    -0.284 A  
HETATM    4  C   UNL     1      -9.103  16.742  67.966  1.00  0.00    -0.228 A  
HETATM    5  C   UNL     1      -9.158  15.349  67.904  1.00  0.00    -0.178 A  
HETATM    6  N   UNL     1     -10.846  12.564  65.928  1.00  0.00    -0.263 NA 
HETATM    7  C   UNL     1      -9.845  14.666  66.886  1.00  0.00    -0.252 A  
HETATM    8  C   UNL     1     -10.721  13.204  64.611  1.00  0.00    -0.380 C  
HETATM    9  C   UNL     1      -9.898  13.143  66.905  1.00  0.00    -0.249 C  
HETATM   10  C   UNL     1     -10.321  12.598  68.281  1.00  0.00    -0.246 C  
HETATM   11  C   UNL     1     -10.191  11.075  68.352  1.00  0.00    -0.185 C  
HETATM   12  C   UNL     1     -11.009  14.714  64.653  1.00  0.00    -0.340 C  
HETATM   13  C   UNL     1     -10.899  10.388  67.166  1.00  0.00    -0.301 C  
HETATM   14  C   UNL     1     -10.611  11.115  65.832  1.00  0.00    -0.234 C  
HETATM   15  C   UNL     1     -10.338  16.811  65.886  1.00  0.00    -0.341 A  
HETATM   16  C   UNL     1     -10.381  15.408  65.832  1.00  0.00    -0.359 A  
BRANCH   4  17
HETATM   17  O   UNL     1      -8.393  17.399  68.938  1.00  0.00    -0.249 OA 
HETATM   18  C   UNL     1      -6.979  17.432  68.777  1.00  0.00    -0.236 C  
ENDBRANCH   4  17
BRANCH  11  19
HETATM   19  O   UNL     1     -10.809  10.633  69.587  1.00  0.00    -0.246 OA 
BRANCH  19  20
HETATM   20  C   UNL     1     -10.104   9.787  70.392  1.00  0.00    -0.252 C  
HETATM   21  O   UNL     1      -8.879   9.692  70.387  1.00  0.00    -0.235 OA 
BRANCH  20  22
HETATM   22  C   UNL     1     -11.021   8.951  71.328  1.00  0.00    -0.293 C  
HETATM   23  C   UNL     1     -10.356   6.733  70.240  1.00  0.00    -0.224 C  
HETATM   24  C   UNL     1     -12.441   6.826  71.586  1.00  0.00    -0.398 C  
HETATM   25  H2  UNL     1     -12.686  10.175  71.019  1.00  0.00     0.000 HD 
HETATM   26  H1  UNL     1     -12.769   9.220  72.411  1.00  0.00     0.000 HD 
HETATM   27  C   UNL     1     -11.517   7.640  70.664  1.00  0.00    -0.276 C  
HETATM   28  N   UNL     1     -12.166   9.769  71.796  1.00  0.00    -0.388 NA 
ENDBRANCH  20  22
ENDBRANCH  19  20
ENDBRANCH  11  19
BRANCH  13  29
HETATM   29  C   UNL     1     -10.482   8.902  67.010  1.00  0.00    -0.326 C  
HETATM   30  C   UNL     1      -8.960   7.113  66.101  1.00  0.00    -0.168 C  
HETATM   31  C   UNL     1      -7.964   9.274  66.875  1.00  0.00    -0.105 C  
HETATM   32  C   UNL     1      -9.187   8.622  66.228  1.00  0.00    -0.257 C  
ENDBRANCH  13  29
ENDBRANCH   2   3
TORSDOF 6
ENDMDL
MODEL       20
REMARK 921   NORMALIZED FREE ENERGY PREDICTED BY IDOCK:   -6.00 KCAL/MOL
REMARK 922        TOTAL FREE ENERGY PREDICTED BY IDOCK:   -8.93 KCAL/MOL
REMARK 923 INTER-LIGAND FREE ENERGY PREDICTED BY IDOCK:   -7.72 KCAL/MOL
REMARK 924 INTRA-LIGAND FREE ENERGY PREDICTED BY IDOCK:   -1.21 KCAL/MOL
REMARK 927      BINDING AFFINITY PREDICTED BY RF-SCORE:    0.00 PKD
ROOT
HETATM    1  C   UNL     1     -11.681  15.393  64.378  1.00  0.00    -0.258 C  
HETATM    2  O   UNL     1     -12.434  14.195  64.534  1.00  0.00    -0.602 OA 
ENDROOT
BRANCH   2   3
HETATM    3  C   UNL     1     -11.816  13.157  65.182  1.00  0.00    -0.359 A  
HETATM    4  C   UNL     1     -11.809  12.901  66.560  1.00  0.00    -0.407 A  
HETATM    5  C   UNL     1     -11.144  11.765  67.027  1.00  0.00    -0.358 A  
HETATM    6  N   UNL     1      -9.421   8.631  65.719  1.00  0.00    -0.174 NA 
HETATM    7  C   UNL     1     -10.507  10.858  66.164  1.00  0.00    -0.290 A  
HETATM    8  C   UNL     1      -8.747   9.280  64.585  1.00  0.00    -0.192 C  
HETATM    9  C   UNL     1      -9.836   9.616  66.740  1.00  0.00    -0.211 C  
HETATM   10  C   UNL     1     -10.760   8.859  67.711  1.00  0.00    -0.204 C  
HETATM   11  C   UNL     1     -10.023   7.727  68.428  1.00  0.00    -0.178 C  
HETATM   12  C   UNL     1      -9.644  10.300  63.864  1.00  0.00    -0.354 C  
HETATM   13  C   UNL     1      -9.280   6.811  67.433  1.00  0.00    -0.130 C  
HETATM   14  C   UNL     1      -8.546   7.629  66.346  1.00  0.00    -0.143 C  
HETATM   15  C   UNL     1     -11.100  12.309  64.324  1.00  0.00    -0.401 A  
HETATM   16  C   UNL     1     -10.429  11.173  64.806  1.00  0.00    -0.388 A  
BRANCH   4  17
HETATM   17  O   UNL     1     -12.389  13.804  67.413  1.00  0.00    -0.312 OA 
HETATM   18  C   UNL     1     -11.910  13.808  68.754  1.00  0.00    -0.363 C  
ENDBRANCH   4  17
BRANCH  11  19
HETATM   19  O   UNL     1     -11.007   6.939  69.145  1.00  0.00    -0.233 OA 
BRANCH  19  20
HETATM   20  C   UNL     1     -11.308   7.297  70.427  1.00  0.00    -0.271 C  
HETATM   21  O   UNL     1     -12.418   7.170  70.936  1.00  0.00    -0.337 OA 
BRANCH  20  22
HETATM   22  C   UNL     1     -10.085   7.885  71.184  1.00  0.00    -0.184 C  
HETATM   23  C   UNL     1      -9.417   5.618  72.165  1.00  0.00    -0.166 C  
HETATM   24  C   UNL     1      -8.538   7.685  73.225  1.00  0.00    -0.227 C  
HETATM   25  H2  UNL     1     -11.180   9.460  72.014  1.00  0.00     0.000 HD 
HETATM   26  H1  UNL     1      -9.507   9.704  71.997  1.00  0.00     0.000 HD 
HETATM   27  C   UNL     1      -9.736   7.088  72.468  1.00  0.00    -0.170 C  
HETATM   28  N   UNL     1     -10.311   9.317  71.500  1.00  0.00    -0.336 NA 
ENDBRANCH  20  22
ENDBRANCH  19  20
ENDBRANCH  11  19
BRANCH  13  29
HETATM   29  C   UNL     1      -8.245   5.894  68.135  1.00  0.00    -0.109 C  
HETATM   30  C   UNL     1      -7.595   3.720  69.227  1.00  0.00    -0.053 C  
HETATM   31  C   UNL     1      -9.103   3.671  67.232  1.00  0.00    -0.191 C  
HETATM   32  C   UNL     1      -8.701   4.465  68.475  1.00  0.00    -0.117 C  
ENDBRANCH  13  29
ENDBRANCH   2   3
TORSDOF 6
ENDMDL
MODEL       21
REMARK 921   NORMALIZED FREE ENERGY PREDICTED BY IDOCK:   -5.98 KCAL/MOL
REMARK 922        TOTAL FREE ENERGY PREDICTED BY IDOCK:   -8.90 KCAL/MOL
REMARK 923 INTER-LIGAND FREE ENERGY PREDICTED BY IDOCK:   -8.92 KCAL/MOL
REMARK 924 INTRA-LIGAND FREE ENERGY PREDICTED BY IDOCK:    0.02 KCAL/MOL
REMARK 927      BINDING AFFINITY PREDICTED BY RF-SCORE:    0.00 PKD
ROOT
HETATM    1  C   UNL     1     -10.692  18.660  65.641  1.00  0.00    -0.086 C  
HETATM    2  O   UNL     1     -10.962  17.478  64.895  1.00  0.00    -0.887 OA 
ENDROOT
BRANCH   2   3
HETATM    3  C   UNL     1     -10.790  16.284  65.547  1.00  0.00    -0.245 A  
HETATM    4  C   UNL     1     -10.783  16.066  66.932  1.00  0.00    -0.262 A  
HETATM    5  C   UNL     1     -10.623  14.762  67.404  1.00  0.00    -0.268 A  
HETATM    6  N   UNL     1     -10.486  11.177  66.126  1.00  0.00    -0.250 NA 
HETATM    7  C   UNL     1     -10.496  13.659  66.542  1.00  0.00    -0.281 A  
HETATM    8  C   UNL     1      -9.692  11.466  64.923  1.00  0.00    -0.247 C  
HETATM    9  C   UNL     1     -10.366  12.258  67.127  1.00  0.00    -0.218 C  
HETATM   10  C   UNL     1     -11.444  11.975  68.189  1.00  0.00    -0.383 C  
HETATM   11  C   UNL     1     -11.198  10.646  68.906  1.00  0.00    -0.275 C  
HETATM   12  C   UNL     1     -10.130  12.760  64.218  1.00  0.00    -0.277 C  
HETATM   13  C   UNL     1     -10.990   9.490  67.906  1.00  0.00    -0.172 C  
HETATM   14  C   UNL     1     -10.067   9.907  66.738  1.00  0.00    -0.230 C  
HETATM   15  C   UNL     1     -10.565  15.202  64.682  1.00  0.00    -0.167 A  
HETATM   16  C   UNL     1     -10.399  13.895  65.169  1.00  0.00    -0.403 A  
BRANCH   4  17
HETATM   17  O   UNL     1     -10.861  17.141  67.780  1.00  0.00    -0.348 OA 
HETATM   18  C   UNL     1     -10.636  16.876  69.161  1.00  0.00    -0.330 C  
ENDBRANCH   4  17
BRANCH  11  19
HETATM   19  O   UNL     1     -12.363  10.357  69.721  1.00  0.00    -0.192 OA 
BRANCH  19  20
HETATM   20  C   UNL     1     -12.384  10.824  71.002  1.00  0.00    -0.404 C  
HETATM   21  O   UNL     1     -12.331  12.014  71.302  1.00  0.00    -0.255 OA 
BRANCH  20  22
HETATM   22  C   UNL     1     -12.486   9.683  72.051  1.00  0.00    -0.332 C  
HETATM   23  C   UNL     1     -10.036   9.001  71.763  1.00  0.00    -0.373 C  
HETATM   24  C   UNL     1     -11.612   7.387  72.801  1.00  0.00    -0.255 C  
HETATM   25  H2  UNL     1     -14.229   8.885  71.219  1.00  0.00     0.000 HD 
HETATM   26  H1  UNL     1     -13.945   8.426  72.820  1.00  0.00     0.000 HD 
HETATM   27  C   UNL     1     -11.494   8.524  71.772  1.00  0.00    -0.378 C  
HETATM   28  N   UNL     1     -13.878   9.175  72.131  1.00  0.00    -0.448 NA 
ENDBRANCH  20  22
ENDBRANCH  19  20
ENDBRANCH  11  19
BRANCH  13  29
HETATM   29  C   UNL     1     -10.385   8.230  68.579  1.00  0.00    -0.230 C  
HETATM   30  C   UNL     1     -10.424   5.767  69.106  1.00  0.00    -0.346 C  
HETATM   31  C   UNL     1     -11.126   6.530  66.829  1.00  0.00    -0.229 C  
HETATM   32  C   UNL     1     -11.097   6.892  68.315  1.00  0.00    -0.152 C  
ENDBRANCH  13  29
ENDBRANCH   2   3
TORSDOF 6
ENDMDL
MODEL       22
REMARK 921   NORMALIZED FREE ENERGY PREDICTED BY IDOCK:   -5.98 KCAL/MOL
REMARK 922        TOTAL FREE ENERGY PREDICTED BY IDOCK:   -8.89 KCAL/MOL
REMARK 923 INTER-LIGAND FREE ENERGY PREDICTED BY IDOCK:   -8.61 KCAL/MOL
REMARK 924 INTRA-LIGAND FREE ENERGY PREDICTED BY IDOCK:   -0.28 KCAL/MOL
REMARK 927      BINDING AFFINITY PREDICTED BY RF-SCORE:    0.00 PKD
ROOT
HETATM    1  C   UNL     1     -10.172   5.358  68.005  1.00  0.00    -0.164 C  
HETATM    2  O   UNL     1      -9.741   5.784  69.293  1.00  0.00    -0.133 OA 
ENDROOT
BRANCH   2   3
HETATM    3  C   UNL     1     -10.119   7.042  69.686  1.00  0.00    -0.186 A  
HETATM    4  C   UNL     1      -9.419   8.240  69.482  1.00  0.00    -0.162 A  
HETATM    5  C   UNL     1      -9.989   9.432  69.932  1.00  0.00    -0.237 A  
HETATM    6  N   UNL     1     -13.244  10.757  71.401  1.00  0.00    -0.341 NA 
HETATM    7  C   UNL     1     -11.247   9.478  70.556  1.00  0.00    -0.345 A  
HETATM    8  C   UNL     1     -13.494   9.616  72.292  1.00  0.00    -0.400 C  
HETATM    9  C   UNL     1     -11.827  10.821  70.985  1.00  0.00    -0.247 C  
HETATM   10  C   UNL     1     -11.761  11.864  69.854  1.00  0.00    -0.383 C  
HETATM   11  C   UNL     1     -12.167  13.256  70.343  1.00  0.00    -0.332 C  
HETATM   12  C   UNL     1     -13.174   8.264  71.632  1.00  0.00    -0.349 C  
HETATM   13  C   UNL     1     -13.518  13.226  71.087  1.00  0.00     0.063 C  
HETATM   14  C   UNL     1     -13.610  12.023  72.053  1.00  0.00    -0.130 C  
HETATM   15  C   UNL     1     -11.329   7.067  70.395  1.00  0.00    -0.354 A  
HETATM   16  C   UNL     1     -11.889   8.273  70.849  1.00  0.00    -0.232 A  
BRANCH   4  17
HETATM   17  O   UNL     1      -8.171   8.200  68.915  1.00  0.00    -0.121 OA 
HETATM   18  C   UNL     1      -8.076   8.631  67.562  1.00  0.00    -0.106 C  
ENDBRANCH   4  17
BRANCH  11  19
HETATM   19  O   UNL     1     -12.289  14.117  69.183  1.00  0.00    -0.301 OA 
BRANCH  19  20
HETATM   20  C   UNL     1     -11.153  14.441  68.500  1.00  0.00    -0.253 C  
HETATM   21  O   UNL     1     -10.039  14.513  69.011  1.00  0.00    -0.227 OA 
BRANCH  20  22
HETATM   22  C   UNL     1     -11.420  14.707  66.993  1.00  0.00    -0.368 C  
HETATM   23  C   UNL     1     -11.659  12.219  66.445  1.00  0.00    -0.445 C  
HETATM   24  C   UNL     1     -11.205  13.811  64.595  1.00  0.00    -0.383 C  
HETATM   25  H2  UNL     1      -9.787  15.996  66.789  1.00  0.00     0.000 HD 
HETATM   26  H1  UNL     1     -10.958  16.154  65.580  1.00  0.00     0.000 HD 
HETATM   27  C   UNL     1     -10.958  13.535  66.087  1.00  0.00    -0.289 C  
HETATM   28  N   UNL     1     -10.783  15.979  66.570  1.00  0.00    -0.281 NA 
ENDBRANCH  20  22
ENDBRANCH  19  20
ENDBRANCH  11  19
BRANCH  13  29
HETATM   29  C   UNL     1     -13.774  14.523  71.898  1.00  0.00    -0.516 C  
HETATM   30  C   UNL     1     -13.131  16.184  73.679  1.00  0.00    -0.551 C  
HETATM   31  C   UNL     1     -11.338  15.183  72.250  1.00  0.00    -0.306 C  
HETATM   32  C   UNL     1     -12.693  14.933  72.913  1.00  0.00    -0.531 C  
ENDBRANCH  13  29
ENDBRANCH   2   3
TORSDOF 6
ENDMDL
MODEL       23
REMARK 921   NORMALIZED FREE ENERGY PREDICTED BY IDOCK:   -5.95 KCAL/MOL
REMARK 922        TOTAL FREE ENERGY PREDICTED BY IDOCK:   -8.85 KCAL/MOL
REMARK 923 INTER-LIGAND FREE ENERGY PREDICTED BY IDOCK:   -7.85 KCAL/MOL
REMARK 924 INTRA-LIGAND FREE ENERGY PREDICTED BY IDOCK:   -1.00 KCAL/MOL
REMARK 927      BINDING AFFINITY PREDICTED BY RF-SCORE:    0.00 PKD
ROOT
HETATM    1  C   UNL     1     -10.276   4.978  71.540  1.00  0.00    -0.204 C  
HETATM    2  O   UNL     1     -10.828   6.147  72.136  1.00  0.00    -0.226 OA 
ENDROOT
BRANCH   2   3
HETATM    3  C   UNL     1     -11.010   7.230  71.315  1.00  0.00    -0.243 A  
HETATM    4  C   UNL     1     -11.852   8.330  71.537  1.00  0.00    -0.293 A  
HETATM    5  C   UNL     1     -11.874   9.356  70.590  1.00  0.00    -0.268 A  
HETATM    6  N   UNL     1     -10.049  10.486  67.445  1.00  0.00    -0.188 NA 
HETATM    7  C   UNL     1     -11.066   9.339  69.441  1.00  0.00    -0.063 A  
HETATM    8  C   UNL     1      -9.904   9.148  66.855  1.00  0.00    -0.217 C  
HETATM    9  C   UNL     1     -11.112  10.514  68.471  1.00  0.00    -0.275 C  
HETATM   10  C   UNL     1     -10.969  11.865  69.196  1.00  0.00    -0.251 C  
HETATM   11  C   UNL     1     -11.205  13.043  68.249  1.00  0.00    -0.275 C  
HETATM   12  C   UNL     1      -9.532   8.077  67.893  1.00  0.00    -0.161 C  
HETATM   13  C   UNL     1     -10.347  12.927  66.972  1.00  0.00    -0.245 C  
HETATM   14  C   UNL     1     -10.353  11.487  66.411  1.00  0.00    -0.237 C  
HETATM   15  C   UNL     1     -10.274   7.159  70.124  1.00  0.00    -0.204 A  
HETATM   16  C   UNL     1     -10.311   8.195  69.176  1.00  0.00    -0.228 A  
BRANCH   4  17
HETATM   17  O   UNL     1     -12.677   8.334  72.632  1.00  0.00    -0.242 OA 
HETATM   18  C   UNL     1     -13.982   8.868  72.440  1.00  0.00    -0.448 C  
ENDBRANCH   4  17
BRANCH  11  19
HETATM   19  O   UNL     1     -10.838  14.259  68.951  1.00  0.00    -0.245 OA 
BRANCH  19  20
HETATM   20  C   UNL     1     -11.836  15.013  69.495  1.00  0.00    -0.330 C  
HETATM   21  O   UNL     1     -12.753  15.512  68.849  1.00  0.00     0.263 OA 
BRANCH  20  22
HETATM   22  C   UNL     1     -11.691  15.172  71.034  1.00  0.00    -0.340 C  
HETATM   23  C   UNL     1     -13.187  13.156  71.531  1.00  0.00    -0.368 C  
HETATM   24  C   UNL     1     -12.787  14.820  73.330  1.00  0.00    -0.597 C  
HETATM   25  H2  UNL     1     -12.125  17.216  71.003  1.00  0.00     0.000 HD 
HETATM   26  H1  UNL     1     -11.323  16.693  72.396  1.00  0.00     0.000 HD 
HETATM   27  C   UNL     1     -12.926  14.642  71.809  1.00  0.00    -0.410 C  
HETATM   28  N   UNL     1     -11.418  16.588  71.385  1.00  0.00    -0.236 NA 
ENDBRANCH  20  22
ENDBRANCH  19  20
ENDBRANCH  11  19
BRANCH  13  29
HETATM   29  C   UNL     1     -10.823  13.888  65.851  1.00  0.00    -0.287 C  
HETATM   30  C   UNL     1     -11.110  16.198  64.889  1.00  0.00    -0.336 C  
HETATM   31  C   UNL     1      -9.009  15.656  66.136  1.00  0.00    -0.362 C  
HETATM   32  C   UNL     1     -10.511  15.383  66.039  1.00  0.00    -0.333 C  
ENDBRANCH  13  29
ENDBRANCH   2   3
TORSDOF 6
ENDMDL
MODEL       24
REMARK 921   NORMALIZED FREE ENERGY PREDICTED BY IDOCK:   -5.94 KCAL/MOL
REMARK 922        TOTAL FREE ENERGY PREDICTED BY IDOCK:   -8.85 KCAL/MOL
REMARK 923 INTER-LIGAND FREE ENERGY PREDICTED BY IDOCK:   -7.72 KCAL/MOL
REMARK 924 INTRA-LIGAND FREE ENERGY PREDICTED BY IDOCK:   -1.13 KCAL/MOL
REMARK 927      BINDING AFFINITY PREDICTED BY RF-SCORE:    0.00 PKD
ROOT
HETATM    1  C   UNL     1      -8.463   4.136  67.240  1.00  0.00    -0.100 C  
HETATM    2  O   UNL     1      -9.412   4.954  66.563  1.00  0.00    -0.132 OA 
ENDROOT
BRANCH   2   3
HETATM    3  C   UNL     1      -9.618   6.211  67.070  1.00  0.00    -0.135 A  
HETATM    4  C   UNL     1      -9.225   7.430  66.500  1.00  0.00    -0.165 A  
HETATM    5  C   UNL     1      -9.558   8.615  67.160  1.00  0.00    -0.227 A  
HETATM    6  N   UNL     1     -11.631   9.848  70.108  1.00  0.00    -0.243 NA 
HETATM    7  C   UNL     1     -10.295   8.629  68.357  1.00  0.00    -0.239 A  
HETATM    8  C   UNL     1     -11.283   8.748  71.019  1.00  0.00    -0.273 C  
HETATM    9  C   UNL     1     -10.658   9.963  69.000  1.00  0.00    -0.220 C  
HETATM   10  C   UNL     1     -11.281  10.941  67.987  1.00  0.00    -0.378 C  
HETATM   11  C   UNL     1     -11.469  12.335  68.588  1.00  0.00    -0.307 C  
HETATM   12  C   UNL     1     -11.261   7.379  70.318  1.00  0.00    -0.268 C  
HETATM   13  C   UNL     1     -12.215  12.277  69.937  1.00  0.00    -0.234 C  
HETATM   14  C   UNL     1     -11.690  11.128  70.829  1.00  0.00    -0.109 C  
HETATM   15  C   UNL     1     -10.267   6.213  68.313  1.00  0.00    -0.207 A  
HETATM   16  C   UNL     1     -10.590   7.411  68.971  1.00  0.00    -0.203 A  
BRANCH   4  17
HETATM   17  O   UNL     1      -8.468   7.424  65.357  1.00  0.00    -0.142 OA 
HETATM   18  C   UNL     1      -7.732   8.610  65.078  1.00  0.00    -0.103 C  
ENDBRANCH   4  17
BRANCH  11  19
HETATM   19  O   UNL     1     -12.252  13.120  67.653  1.00  0.00    -0.279 OA 
BRANCH  19  20
HETATM   20  C   UNL     1     -11.591  13.969  66.815  1.00  0.00    -0.386 C  
HETATM   21  O   UNL     1     -12.052  14.393  65.759  1.00  0.00    -0.385 OA 
BRANCH  20  22
HETATM   22  C   UNL     1     -10.181  14.351  67.344  1.00  0.00    -0.247 C  
HETATM   23  C   UNL     1     -11.069  16.322  68.715  1.00  0.00    -0.355 C  
HETATM   24  C   UNL     1      -8.648  16.241  68.167  1.00  0.00    -0.183 C  
HETATM   25  H2  UNL     1      -9.302  14.296  65.449  1.00  0.00     0.000 HD 
HETATM   26  H1  UNL     1      -8.207  14.175  66.732  1.00  0.00     0.000 HD 
HETATM   27  C   UNL     1     -10.051  15.864  67.662  1.00  0.00    -0.242 C  
HETATM   28  N   UNL     1      -9.134  13.925  66.384  1.00  0.00    -0.147 NA 
ENDBRANCH  20  22
ENDBRANCH  19  20
ENDBRANCH  11  19
BRANCH  13  29
HETATM   29  C   UNL     1     -12.100  13.603  70.733  1.00  0.00    -0.374 C  
HETATM   30  C   UNL     1     -13.122  15.497  72.041  1.00  0.00    -0.535 C  
HETATM   31  C   UNL     1     -14.012  13.181  72.364  1.00  0.00    -0.497 C  
HETATM   32  C   UNL     1     -13.393  14.153  71.359  1.00  0.00    -0.402 C  
ENDBRANCH  13  29
ENDBRANCH   2   3
TORSDOF 6
ENDMDL
MODEL       25
REMARK 921   NORMALIZED FREE ENERGY PREDICTED BY IDOCK:   -5.92 KCAL/MOL
REMARK 922        TOTAL FREE ENERGY PREDICTED BY IDOCK:   -8.82 KCAL/MOL
REMARK 923 INTER-LIGAND FREE ENERGY PREDICTED BY IDOCK:   -7.79 KCAL/MOL
REMARK 924 INTRA-LIGAND FREE ENERGY PREDICTED BY IDOCK:   -1.03 KCAL/MOL
REMARK 927      BINDING AFFINITY PREDICTED BY RF-SCORE:    0.00 PKD
ROOT
HETATM    1  C   UNL     1     -11.783  16.179  64.162  1.00  0.00     0.133 C  
HETATM    2  O   UNL     1     -10.572  16.085  64.904  1.00  0.00    -0.587 OA 
ENDROOT
BRANCH   2   3
HETATM    3  C   UNL     1     -10.299  14.877  65.491  1.00  0.00    -0.365 A  
HETATM    4  C   UNL     1      -9.853  14.651  66.801  1.00  0.00    -0.255 A  
HETATM    5  C   UNL     1      -9.661  13.335  67.225  1.00  0.00    -0.231 A  
HETATM    6  N   UNL     1     -10.270   9.760  66.061  1.00  0.00    -0.236 NA 
HETATM    7  C   UNL     1      -9.924  12.231  66.397  1.00  0.00    -0.243 A  
HETATM    8  C   UNL     1      -9.898   9.983  64.657  1.00  0.00    -0.218 C  
HETATM    9  C   UNL     1      -9.731  10.820  66.940  1.00  0.00    -0.178 C  
HETATM   10  C   UNL     1     -10.417  10.629  68.305  1.00  0.00    -0.214 C  
HETATM   11  C   UNL     1     -10.065   9.280  68.933  1.00  0.00    -0.195 C  
HETATM   12  C   UNL     1     -10.429  11.316  64.105  1.00  0.00    -0.431 C  
HETATM   13  C   UNL     1     -10.302   8.115  67.949  1.00  0.00    -0.280 C  
HETATM   14  C   UNL     1      -9.785   8.453  66.532  1.00  0.00    -0.260 C  
HETATM   15  C   UNL     1     -10.470  13.785  64.627  1.00  0.00    -0.433 A  
HETATM   16  C   UNL     1     -10.267  12.465  65.064  1.00  0.00    -0.306 A  
BRANCH   4  17
HETATM   17  O   UNL     1      -9.551  15.723  67.601  1.00  0.00    -0.218 OA 
HETATM   18  C   UNL     1     -10.622  16.265  68.366  1.00  0.00    -0.301 C  
ENDBRANCH   4  17
BRANCH  11  19
HETATM   19  O   UNL     1     -10.915   9.093  70.093  1.00  0.00    -0.236 OA 
BRANCH  19  20
HETATM   20  C   UNL     1     -10.317   8.887  71.302  1.00  0.00    -0.285 C  
HETATM   21  O   UNL     1      -9.260   9.410  71.645  1.00  0.00    -0.258 OA 
BRANCH  20  22
HETATM   22  C   UNL     1     -11.122   7.916  72.208  1.00  0.00    -0.318 C  
HETATM   23  C   UNL     1      -9.335   6.088  72.087  1.00  0.00    -0.155 C  
HETATM   24  C   UNL     1     -11.635   5.466  72.789  1.00  0.00    -0.293 C  
HETATM   25  H2  UNL     1     -12.896   8.160  71.131  1.00  0.00     0.000 HD 
HETATM   26  H1  UNL     1     -13.106   7.552  72.694  1.00  0.00     0.000 HD 
HETATM   27  C   UNL     1     -10.821   6.424  71.904  1.00  0.00    -0.279 C  
HETATM   28  N   UNL     1     -12.577   8.190  72.098  1.00  0.00    -0.323 NA 
ENDBRANCH  20  22
ENDBRANCH  19  20
ENDBRANCH  11  19
BRANCH  13  29
HETATM   29  C   UNL     1      -9.621   6.801  68.414  1.00  0.00    -0.125 C  
HETATM   30  C   UNL     1      -9.631   4.307  68.766  1.00  0.00    -0.219 C  
HETATM   31  C   UNL     1     -10.699   5.245  66.708  1.00  0.00    -0.241 C  
HETATM   32  C   UNL     1     -10.403   5.496  68.187  1.00  0.00    -0.236 C  
ENDBRANCH  13  29
ENDBRANCH   2   3
TORSDOF 6
ENDMDL
MODEL       26
REMARK 921   NORMALIZED FREE ENERGY PREDICTED BY IDOCK:   -5.92 KCAL/MOL
REMARK 922        TOTAL FREE ENERGY PREDICTED BY IDOCK:   -8.82 KCAL/MOL
REMARK 923 INTER-LIGAND FREE ENERGY PREDICTED BY IDOCK:   -7.95 KCAL/MOL
REMARK 924 INTRA-LIGAND FREE ENERGY PREDICTED BY IDOCK:   -0.87 KCAL/MOL
REMARK 927      BINDING AFFINITY PREDICTED BY RF-SCORE:    0.00 PKD
ROOT
HETATM    1  C   UNL     1      -9.785   3.284  71.302  1.00  0.00    -0.151 C  
HETATM    2  O   UNL     1      -9.892   3.638  69.928  1.00  0.00    -0.155 OA 
ENDROOT
BRANCH   2   3
HETATM    3  C   UNL     1      -9.900   4.977  69.634  1.00  0.00    -0.220 A  
HETATM    4  C   UNL     1      -9.395   5.596  68.481  1.00  0.00    -0.123 A  
HETATM    5  C   UNL     1      -9.528   6.980  68.352  1.00  0.00    -0.133 A  
HETATM    6  N   UNL     1     -11.218   9.936  70.057  1.00  0.00    -0.264 NA 
HETATM    7  C   UNL     1     -10.172   7.768  69.320  1.00  0.00    -0.211 A  
HETATM    8  C   UNL     1     -10.952   9.499  71.435  1.00  0.00    -0.345 C  
HETATM    9  C   UNL     1     -10.317   9.269  69.093  1.00  0.00    -0.211 C  
HETATM   10  C   UNL     1     -10.878   9.589  67.696  1.00  0.00    -0.253 C  
HETATM   11  C   UNL     1     -10.845  11.089  67.402  1.00  0.00    -0.274 C  
HETATM   12  C   UNL     1     -11.153   7.988  71.630  1.00  0.00    -0.300 C  
HETATM   13  C   UNL     1     -11.498  11.906  68.537  1.00  0.00    -0.349 C  
HETATM   14  C   UNL     1     -11.063  11.393  69.929  1.00  0.00    -0.059 C  
HETATM   15  C   UNL     1     -10.456   5.769  70.649  1.00  0.00    -0.331 A  
HETATM   16  C   UNL     1     -10.578   7.161  70.510  1.00  0.00    -0.243 A  
BRANCH   4  17
HETATM   17  O   UNL     1      -8.726   4.841  67.553  1.00  0.00    -0.104 OA 
HETATM   18  C   UNL     1      -7.304   4.896  67.597  1.00  0.00    -0.078 C  
ENDBRANCH   4  17
BRANCH  11  19
HETATM   19  O   UNL     1     -11.584  11.319  66.175  1.00  0.00    -0.213 OA 
BRANCH  19  20
HETATM   20  C   UNL     1     -10.877  11.565  65.035  1.00  0.00    -0.274 C  
HETATM   21  O   UNL     1      -9.861  10.956  64.709  1.00  0.00    -0.240 OA 
BRANCH  20  22
HETATM   22  C   UNL     1     -11.498  12.705  64.182  1.00  0.00    -0.387 C  
HETATM   23  C   UNL     1     -10.169  14.530  65.386  1.00  0.00    -0.415 C  
HETATM   24  C   UNL     1     -12.193  15.177  64.101  1.00  0.00    -0.182 C  
HETATM   25  H2  UNL     1     -13.458  12.036  64.464  1.00  0.00     0.000 HD 
HETATM   26  H1  UNL     1     -13.254  13.063  63.137  1.00  0.00     0.000 HD 
HETATM   27  C   UNL     1     -11.559  14.056  64.941  1.00  0.00    -0.369 C  
HETATM   28  N   UNL     1     -12.845  12.314  63.697  1.00  0.00    -0.797 NA 
ENDBRANCH  20  22
ENDBRANCH  19  20
ENDBRANCH  11  19
BRANCH  13  29
HETATM   29  C   UNL     1     -11.159  13.417  68.447  1.00  0.00    -0.301 C  
HETATM   30  C   UNL     1     -11.773  15.844  68.722  1.00  0.00    -0.355 C  
HETATM   31  C   UNL     1     -12.564  14.192  70.427  1.00  0.00    -0.397 C  
HETATM   32  C   UNL     1     -12.230  14.400  68.949  1.00  0.00    -0.214 C  
ENDBRANCH  13  29
ENDBRANCH   2   3
TORSDOF 6
ENDMDL
MODEL       27
REMARK 921   NORMALIZED FREE ENERGY PREDICTED BY IDOCK:   -5.90 KCAL/MOL
REMARK 922        TOTAL FREE ENERGY PREDICTED BY IDOCK:   -8.78 KCAL/MOL
REMARK 923 INTER-LIGAND FREE ENERGY PREDICTED BY IDOCK:   -7.79 KCAL/MOL
REMARK 924 INTRA-LIGAND FREE ENERGY PREDICTED BY IDOCK:   -0.99 KCAL/MOL
REMARK 927      BINDING AFFINITY PREDICTED BY RF-SCORE:    0.00 PKD
ROOT
HETATM    1  C   UNL     1     -10.284  18.261  66.149  1.00  0.00    -0.381 C  
HETATM    2  O   UNL     1     -10.655  17.431  67.244  1.00  0.00    -0.339 OA 
ENDROOT
BRANCH   2   3
HETATM    3  C   UNL     1     -10.299  16.110  67.167  1.00  0.00    -0.291 A  
HETATM    4  C   UNL     1      -9.637  15.351  68.143  1.00  0.00    -0.203 A  
HETATM    5  C   UNL     1      -9.390  14.001  67.887  1.00  0.00    -0.206 A  
HETATM    6  N   UNL     1     -10.225  11.298  65.338  1.00  0.00    -0.258 NA 
HETATM    7  C   UNL     1      -9.802  13.371  66.700  1.00  0.00    -0.278 A  
HETATM    8  C   UNL     1     -10.096  12.153  64.150  1.00  0.00    -0.308 C  
HETATM    9  C   UNL     1      -9.534  11.884  66.506  1.00  0.00    -0.217 C  
HETATM   10  C   UNL     1      -9.978  11.054  67.724  1.00  0.00    -0.194 C  
HETATM   11  C   UNL     1      -9.537   9.594  67.606  1.00  0.00    -0.142 C  
HETATM   12  C   UNL     1     -10.701  13.552  64.354  1.00  0.00    -0.402 C  
HETATM   13  C   UNL     1      -9.951   8.982  66.251  1.00  0.00    -0.352 C  
HETATM   14  C   UNL     1      -9.681   9.956  65.081  1.00  0.00    -0.306 C  
HETATM   15  C   UNL     1     -10.626  15.513  65.940  1.00  0.00    -0.350 A  
HETATM   16  C   UNL     1     -10.365  14.156  65.692  1.00  0.00    -0.348 A  
BRANCH   4  17
HETATM   17  O   UNL     1      -9.192  15.967  69.284  1.00  0.00    -0.247 OA 
HETATM   18  C   UNL     1      -7.815  16.328  69.313  1.00  0.00    -0.179 C  
ENDBRANCH   4  17
BRANCH  11  19
HETATM   19  O   UNL     1     -10.178   8.848  68.672  1.00  0.00    -0.190 OA 
BRANCH  19  20
HETATM   20  C   UNL     1      -9.544   8.774  69.877  1.00  0.00    -0.177 C  
HETATM   21  O   UNL     1      -8.341   8.966  70.035  1.00  0.00    -0.115 OA 
BRANCH  20  22
HETATM   22  C   UNL     1     -10.512   8.424  71.041  1.00  0.00    -0.206 C  
HETATM   23  C   UNL     1     -10.486   5.922  70.503  1.00  0.00    -0.319 C  
HETATM   24  C   UNL     1     -12.332   6.826  71.897  1.00  0.00    -0.369 C  
HETATM   25  H2  UNL     1     -11.887   9.913  70.530  1.00  0.00     0.000 HD 
HETATM   26  H1  UNL     1     -12.022   9.351  72.118  1.00  0.00     0.000 HD 
HETATM   27  C   UNL     1     -11.360   7.157  70.752  1.00  0.00    -0.322 C  
HETATM   28  N   UNL     1     -11.386   9.581  71.354  1.00  0.00    -0.376 NA 
ENDBRANCH  20  22
ENDBRANCH  19  20
ENDBRANCH  11  19
BRANCH  13  29
HETATM   29  C   UNL     1      -9.215   7.649  65.955  1.00  0.00    -0.118 C  
HETATM   30  C   UNL     1      -8.682   5.247  66.494  1.00  0.00    -0.115 C  
HETATM   31  C   UNL     1     -11.022   6.072  66.816  1.00  0.00    -0.305 C  
HETATM   32  C   UNL     1      -9.543   6.457  66.869  1.00  0.00    -0.179 C  
ENDBRANCH  13  29
ENDBRANCH   2   3
TORSDOF 6
ENDMDL
MODEL       28
REMARK 921   NORMALIZED FREE ENERGY PREDICTED BY IDOCK:   -5.88 KCAL/MOL
REMARK 922        TOTAL FREE ENERGY PREDICTED BY IDOCK:   -8.77 KCAL/MOL
REMARK 923 INTER-LIGAND FREE ENERGY PREDICTED BY IDOCK:   -8.17 KCAL/MOL
REMARK 924 INTRA-LIGAND FREE ENERGY PREDICTED BY IDOCK:   -0.60 KCAL/MOL
REMARK 927      BINDING AFFINITY PREDICTED BY RF-SCORE:    0.00 PKD
ROOT
HETATM    1  C   UNL     1     -13.335  15.718  72.754  1.00  0.00    -0.547 C  
HETATM    2  O   UNL     1     -13.443  15.517  71.349  1.00  0.00    -0.496 OA 
ENDROOT
BRANCH   2   3
HETATM    3  C   UNL     1     -12.908  14.358  70.848  1.00  0.00    -0.351 A  
HETATM    4  C   UNL     1     -12.131  14.214  69.689  1.00  0.00    -0.349 A  
HETATM    5  C   UNL     1     -11.649  12.945  69.361  1.00  0.00    -0.363 A  
HETATM    6  N   UNL     1     -11.422   9.429  70.807  1.00  0.00    -0.283 NA 
HETATM    7  C   UNL     1     -11.891  11.817  70.162  1.00  0.00    -0.408 A  
HETATM    8  C   UNL     1     -12.769   9.410  71.393  1.00  0.00    -0.345 C  
HETATM    9  C   UNL     1     -11.299  10.470  69.764  1.00  0.00    -0.300 C  
HETATM   10  C   UNL     1      -9.797  10.574  69.442  1.00  0.00    -0.205 C  
HETATM   11  C   UNL     1      -9.250   9.268  68.863  1.00  0.00    -0.143 C  
HETATM   12  C   UNL     1     -13.146  10.741  72.064  1.00  0.00    -0.476 C  
HETATM   13  C   UNL     1      -9.615   8.057  69.746  1.00  0.00    -0.171 C  
HETATM   14  C   UNL     1     -11.085   8.122  70.222  1.00  0.00    -0.221 C  
HETATM   15  C   UNL     1     -13.237  13.220  71.599  1.00  0.00    -0.446 A  
HETATM   16  C   UNL     1     -12.751  11.948  71.254  1.00  0.00    -0.401 A  
BRANCH   4  17
HETATM   17  O   UNL     1     -11.927  15.301  68.879  1.00  0.00    -0.322 OA 
HETATM   18  C   UNL     1     -11.325  15.044  67.615  1.00  0.00    -0.334 C  
ENDBRANCH   4  17
BRANCH  11  19
HETATM   19  O   UNL     1      -7.805   9.381  68.797  1.00  0.00    -0.082 OA 
BRANCH  19  20
HETATM   20  C   UNL     1      -7.270  10.279  67.921  1.00  0.00    -0.085 C  
HETATM   21  O   UNL     1      -6.656  11.288  68.258  1.00  0.00    -0.056 OA 
BRANCH  20  22
HETATM   22  C   UNL     1      -7.517   9.886  66.438  1.00  0.00    -0.101 C  
HETATM   23  C   UNL     1      -9.187  11.787  66.060  1.00  0.00    -0.202 C  
HETATM   24  C   UNL     1      -9.181   9.870  64.482  1.00  0.00    -0.315 C  
HETATM   25  H2  UNL     1      -7.828   7.867  66.880  1.00  0.00     0.000 HD 
HETATM   26  H1  UNL     1      -7.437   8.177  65.265  1.00  0.00     0.000 HD 
HETATM   27  C   UNL     1      -8.934  10.279  65.943  1.00  0.00    -0.181 C  
HETATM   28  N   UNL     1      -7.275   8.436  66.239  1.00  0.00    -0.077 NA 
ENDBRANCH  20  22
ENDBRANCH  19  20
ENDBRANCH  11  19
BRANCH  13  29
HETATM   29  C   UNL     1      -9.400   6.706  69.015  1.00  0.00    -0.133 C  
HETATM   30  C   UNL     1     -10.186   4.866  67.486  1.00  0.00    -0.152 C  
HETATM   31  C   UNL     1     -10.762   7.235  66.927  1.00  0.00    -0.346 C  
HETATM   32  C   UNL     1     -10.518   6.244  68.065  1.00  0.00    -0.278 C  
ENDBRANCH  13  29
ENDBRANCH   2   3
TORSDOF 6
ENDMDL
MODEL       29
REMARK 921   NORMALIZED FREE ENERGY PREDICTED BY IDOCK:   -5.81 KCAL/MOL
REMARK 922        TOTAL FREE ENERGY PREDICTED BY IDOCK:   -8.66 KCAL/MOL
REMARK 923 INTER-LIGAND FREE ENERGY PREDICTED BY IDOCK:   -7.87 KCAL/MOL
REMARK 924 INTRA-LIGAND FREE ENERGY PREDICTED BY IDOCK:   -0.79 KCAL/MOL
REMARK 927      BINDING AFFINITY PREDICTED BY RF-SCORE:    0.00 PKD
ROOT
HETATM    1  C   UNL     1      -9.441   6.340  74.476  1.00  0.00    -0.238 C  
HETATM    2  O   UNL     1     -10.738   6.653  73.981  1.00  0.00    -0.262 OA 
ENDROOT
BRANCH   2   3
HETATM    3  C   UNL     1     -10.809   7.164  72.710  1.00  0.00    -0.300 A  
HETATM    4  C   UNL     1     -11.698   8.139  72.236  1.00  0.00    -0.379 A  
HETATM    5  C   UNL     1     -11.589   8.554  70.908  1.00  0.00    -0.295 A  
HETATM    6  N   UNL     1      -9.303   8.155  67.888  1.00  0.00    -0.134 NA 
HETATM    7  C   UNL     1     -10.605   8.051  70.039  1.00  0.00    -0.242 A  
HETATM    8  C   UNL     1      -9.036   6.723  68.077  1.00  0.00    -0.119 C  
HETATM    9  C   UNL     1     -10.519   8.581  68.613  1.00  0.00    -0.169 C  
HETATM   10  C   UNL     1     -10.525  10.120  68.568  1.00  0.00    -0.221 C  
HETATM   11  C   UNL     1     -10.629  10.645  67.135  1.00  0.00    -0.260 C  
HETATM   12  C   UNL     1      -8.815   6.348  69.552  1.00  0.00    -0.136 C  
HETATM   13  C   UNL     1      -9.573   9.998  66.214  1.00  0.00    -0.256 C  
HETATM   14  C   UNL     1      -9.458   8.476  66.461  1.00  0.00    -0.218 C  
HETATM   15  C   UNL     1      -9.888   6.586  71.824  1.00  0.00    -0.178 A  
HETATM   16  C   UNL     1      -9.793   7.008  70.487  1.00  0.00    -0.184 A  
BRANCH   4  17
HETATM   17  O   UNL     1     -12.689   8.602  73.063  1.00  0.00    -0.242 OA 
HETATM   18  C   UNL     1     -13.916   8.966  72.439  1.00  0.00    -0.448 C  
ENDBRANCH   4  17
BRANCH  11  19
HETATM   19  O   UNL     1     -10.407  12.078  67.169  1.00  0.00    -0.210 OA 
BRANCH  19  20
HETATM   20  C   UNL     1     -11.426  12.877  67.596  1.00  0.00    -0.334 C  
HETATM   21  O   UNL     1     -12.084  12.670  68.612  1.00  0.00    -0.269 OA 
BRANCH  20  22
HETATM   22  C   UNL     1     -11.668  14.089  66.655  1.00  0.00    -0.399 C  
HETATM   23  C   UNL     1     -12.620  12.631  64.780  1.00  0.00    -0.530 C  
HETATM   24  C   UNL     1     -11.812  14.913  64.226  1.00  0.00    -0.312 C  
HETATM   25  H2  UNL     1      -9.748  14.867  66.935  1.00  0.00     0.000 HD 
HETATM   26  H1  UNL     1     -10.876  15.981  66.349  1.00  0.00     0.000 HD 
HETATM   27  C   UNL     1     -11.592  13.706  65.154  1.00  0.00    -0.333 C  
HETATM   28  N   UNL     1     -10.717  15.185  66.966  1.00  0.00    -0.302 NA 
ENDBRANCH  20  22
ENDBRANCH  19  20
ENDBRANCH  11  19
BRANCH  13  29
HETATM   29  C   UNL     1      -9.882  10.226  64.711  1.00  0.00    -0.403 C  
HETATM   30  C   UNL     1      -9.245  11.058  62.421  1.00  0.00    -0.284 C  
HETATM   31  C   UNL     1      -7.504   9.952  63.836  1.00  0.00    -0.134 C  
HETATM   32  C   UNL     1      -8.757  10.829  63.854  1.00  0.00    -0.078 C  
ENDBRANCH  13  29
ENDBRANCH   2   3
TORSDOF 6
ENDMDL
MODEL       30
REMARK 921   NORMALIZED FREE ENERGY PREDICTED BY IDOCK:   -5.79 KCAL/MOL
REMARK 922        TOTAL FREE ENERGY PREDICTED BY IDOCK:   -8.65 KCAL/MOL
REMARK 923 INTER-LIGAND FREE ENERGY PREDICTED BY IDOCK:   -7.77 KCAL/MOL
REMARK 924 INTRA-LIGAND FREE ENERGY PREDICTED BY IDOCK:   -0.87 KCAL/MOL
REMARK 927      BINDING AFFINITY PREDICTED BY RF-SCORE:    0.00 PKD
ROOT
HETATM    1  C   UNL     1     -10.339  17.458  65.848  1.00  0.00    -0.269 C  
HETATM    2  O   UNL     1     -11.299  16.408  65.815  1.00  0.00     0.160 OA 
ENDROOT
BRANCH   2   3
HETATM    3  C   UNL     1     -10.840  15.142  66.069  1.00  0.00    -0.335 A  
HETATM    4  C   UNL     1     -10.432  14.620  67.305  1.00  0.00    -0.266 A  
HETATM    5  C   UNL     1     -10.023  13.286  67.366  1.00  0.00    -0.233 A  
HETATM    6  N   UNL     1      -9.894  10.156  65.200  1.00  0.00    -0.310 NA 
HETATM    7  C   UNL     1     -10.031  12.444  66.241  1.00  0.00    -0.259 A  
HETATM    8  C   UNL     1      -9.493  10.836  63.960  1.00  0.00    -0.272 C  
HETATM    9  C   UNL     1      -9.611  10.986  66.390  1.00  0.00    -0.198 C  
HETATM   10  C   UNL     1     -10.323  10.298  67.568  1.00  0.00    -0.276 C  
HETATM   11  C   UNL     1      -9.762   8.900  67.831  1.00  0.00    -0.160 C  
HETATM   12  C   UNL     1     -10.232  12.168  63.746  1.00  0.00    -0.449 C  
HETATM   13  C   UNL     1      -9.725   8.050  66.544  1.00  0.00    -0.297 C  
HETATM   14  C   UNL     1      -9.202   8.866  65.339  1.00  0.00    -0.136 C  
HETATM   15  C   UNL     1     -10.757  14.336  64.924  1.00  0.00    -0.448 A  
HETATM   16  C   UNL     1     -10.338  12.998  64.997  1.00  0.00    -0.336 A  
BRANCH   4  17
HETATM   17  O   UNL     1     -10.378  15.446  68.398  1.00  0.00    -0.224 OA 
HETATM   18  C   UNL     1      -9.098  15.626  68.994  1.00  0.00    -0.241 C  
ENDBRANCH   4  17
BRANCH  11  19
HETATM   19  O   UNL     1     -10.625   8.248  68.798  1.00  0.00    -0.202 OA 
BRANCH  19  20
HETATM   20  C   UNL     1     -10.498   8.596  70.110  1.00  0.00    -0.217 C  
HETATM   21  O   UNL     1      -9.483   9.085  70.598  1.00  0.00    -0.196 OA 
BRANCH  20  22
HETATM   22  C   UNL     1     -11.786   8.308  70.931  1.00  0.00    -0.239 C  
HETATM   23  C   UNL     1     -12.681  10.687  70.635  1.00  0.00    -0.445 C  
HETATM   24  C   UNL     1     -13.605   9.281  72.461  1.00  0.00    -0.478 C  
HETATM   25  H2  UNL     1     -10.747   7.431  72.518  1.00  0.00     0.000 HD 
HETATM   26  H1  UNL     1     -12.389   7.036  72.453  1.00  0.00     0.000 HD 
HETATM   27  C   UNL     1     -12.342   9.574  71.634  1.00  0.00    -0.480 C  
HETATM   28  N   UNL     1     -11.543   7.224  71.915  1.00  0.00    -0.269 NA 
ENDBRANCH  20  22
ENDBRANCH  19  20
ENDBRANCH  11  19
BRANCH  13  29
HETATM   29  C   UNL     1      -8.839   6.786  66.696  1.00  0.00    -0.142 C  
HETATM   30  C   UNL     1      -8.513   4.377  67.357  1.00  0.00    -0.103 C  
HETATM   31  C   UNL     1     -10.653   5.052  66.251  1.00  0.00    -0.332 C  
HETATM   32  C   UNL     1      -9.535   5.506  67.189  1.00  0.00    -0.122 C  
ENDBRANCH  13  29
ENDBRANCH   2   3
TORSDOF 6
ENDMDL
MODEL       31
REMARK 921   NORMALIZED FREE ENERGY PREDICTED BY IDOCK:   -5.76 KCAL/MOL
REMARK 922        TOTAL FREE ENERGY PREDICTED BY IDOCK:   -8.60 KCAL/MOL
REMARK 923 INTER-LIGAND FREE ENERGY PREDICTED BY IDOCK:   -7.49 KCAL/MOL
REMARK 924 INTRA-LIGAND FREE ENERGY PREDICTED BY IDOCK:   -1.11 KCAL/MOL
REMARK 927      BINDING AFFINITY PREDICTED BY RF-SCORE:    0.00 PKD
ROOT
HETATM    1  C   UNL     1      -8.977  11.075  62.353  1.00  0.00    -0.297 C  
HETATM    2  O   UNL     1      -9.741  11.445  63.495  1.00  0.00    -0.286 OA 
ENDROOT
BRANCH   2   3
HETATM    3  C   UNL     1      -9.622  10.647  64.604  1.00  0.00    -0.280 A  
HETATM    4  C   UNL     1     -10.147  10.886  65.882  1.00  0.00    -0.252 A  
HETATM    5  C   UNL     1      -9.943   9.929  66.878  1.00  0.00    -0.268 A  
HETATM    6  N   UNL     1      -8.582   6.399  67.321  1.00  0.00    -0.111 NA 
HETATM    7  C   UNL     1      -9.255   8.727  66.639  1.00  0.00    -0.223 A  
HETATM    8  C   UNL     1      -7.436   6.555  66.415  1.00  0.00    -0.085 C  
HETATM    9  C   UNL     1      -9.105   7.709  67.764  1.00  0.00    -0.130 C  
HETATM   10  C   UNL     1     -10.447   7.419  68.461  1.00  0.00    -0.215 C  
HETATM   11  C   UNL     1     -10.263   6.547  69.703  1.00  0.00    -0.187 C  
HETATM   12  C   UNL     1      -7.789   7.334  65.137  1.00  0.00    -0.123 C  
HETATM   13  C   UNL     1      -9.435   5.282  69.394  1.00  0.00    -0.190 C  
HETATM   14  C   UNL     1      -8.213   5.606  68.503  1.00  0.00    -0.106 C  
HETATM   15  C   UNL     1      -8.850   9.496  64.383  1.00  0.00    -0.251 A  
HETATM   16  C   UNL     1      -8.646   8.545  65.396  1.00  0.00    -0.202 A  
BRANCH   4  17
HETATM   17  O   UNL     1     -10.780  12.075  66.136  1.00  0.00    -0.256 OA 
HETATM   18  C   UNL     1     -11.416  12.196  67.404  1.00  0.00    -0.345 C  
ENDBRANCH   4  17
BRANCH  11  19
HETATM   19  O   UNL     1     -11.579   6.144  70.164  1.00  0.00    -0.375 OA 
BRANCH  19  20
HETATM   20  C   UNL     1     -11.978   6.550  71.403  1.00  0.00    -0.316 C  
HETATM   21  O   UNL     1     -11.627   6.013  72.450  1.00  0.00    -0.301 OA 
BRANCH  20  22
HETATM   22  C   UNL     1     -12.929   7.778  71.351  1.00  0.00    -0.288 C  
HETATM   23  C   UNL     1     -11.008   9.458  71.545  1.00  0.00    -0.429 C  
HETATM   24  C   UNL     1     -13.315  10.213  72.072  1.00  0.00    -0.492 C  
HETATM   25  H2  UNL     1     -14.222   7.013  72.804  1.00  0.00     0.000 HD 
HETATM   26  H1  UNL     1     -14.896   8.222  71.833  1.00  0.00     0.000 HD 
HETATM   27  C   UNL     1     -12.362   9.007  72.109  1.00  0.00    -0.442 C  
HETATM   28  N   UNL     1     -14.272   7.416  71.868  1.00  0.00    -0.358 NA 
ENDBRANCH  20  22
ENDBRANCH  19  20
ENDBRANCH  11  19
BRANCH  13  29
HETATM   29  C   UNL     1      -8.927   4.579  70.680  1.00  0.00    -0.155 C  
HETATM   30  C   UNL     1      -8.983   2.682  72.335  1.00  0.00    -0.115 C  
HETATM   31  C   UNL     1      -9.262   2.176  69.901  1.00  0.00    -0.182 C  
HETATM   32  C   UNL     1      -9.530   3.201  71.003  1.00  0.00    -0.228 C  
ENDBRANCH  13  29
ENDBRANCH   2   3
TORSDOF 6
ENDMDL
MODEL       32
REMARK 921   NORMALIZED FREE ENERGY PREDICTED BY IDOCK:   -5.74 KCAL/MOL
REMARK 922        TOTAL FREE ENERGY PREDICTED BY IDOCK:   -8.57 KCAL/MOL
REMARK 923 INTER-LIGAND FREE ENERGY PREDICTED BY IDOCK:   -8.05 KCAL/MOL
REMARK 924 INTRA-LIGAND FREE ENERGY PREDICTED BY IDOCK:   -0.53 KCAL/MOL
REMARK 927      BINDING AFFINITY PREDICTED BY RF-SCORE:    0.00 PKD
ROOT
HETATM    1  C   UNL     1     -11.447   5.566  72.764  1.00  0.00    -0.280 C  
HETATM    2  O   UNL     1     -10.328   6.388  72.452  1.00  0.00    -0.186 OA 
ENDROOT
BRANCH   2   3
HETATM    3  C   UNL     1     -10.500   7.314  71.455  1.00  0.00    -0.202 A  
HETATM    4  C   UNL     1     -11.215   8.518  71.530  1.00  0.00    -0.279 A  
HETATM    5  C   UNL     1     -11.247   9.348  70.408  1.00  0.00    -0.309 A  
HETATM    6  N   UNL     1      -9.670   9.677  66.957  1.00  0.00    -0.172 NA 
HETATM    7  C   UNL     1     -10.569   9.033  69.218  1.00  0.00    -0.226 A  
HETATM    8  C   UNL     1      -9.705   8.245  66.628  1.00  0.00    -0.251 C  
HETATM    9  C   UNL     1     -10.614  10.006  68.046  1.00  0.00    -0.235 C  
HETATM   10  C   UNL     1     -10.279  11.446  68.478  1.00  0.00    -0.216 C  
HETATM   11  C   UNL     1     -10.509  12.446  67.345  1.00  0.00    -0.215 C  
HETATM   12  C   UNL     1      -9.321   7.351  67.818  1.00  0.00    -0.144 C  
HETATM   13  C   UNL     1      -9.803  12.005  66.045  1.00  0.00    -0.258 C  
HETATM   14  C   UNL     1      -9.994  10.495  65.778  1.00  0.00    -0.258 C  
HETATM   15  C   UNL     1      -9.902   6.946  70.241  1.00  0.00    -0.186 A  
HETATM   16  C   UNL     1      -9.948   7.787  69.116  1.00  0.00    -0.182 A  
BRANCH   4  17
HETATM   17  O   UNL     1     -11.917   8.812  72.671  1.00  0.00    -0.298 OA 
HETATM   18  C   UNL     1     -13.304   9.090  72.508  1.00  0.00    -0.423 C  
ENDBRANCH   4  17
BRANCH  11  19
HETATM   19  O   UNL     1      -9.966  13.725  67.762  1.00  0.00    -0.232 OA 
BRANCH  19  20
HETATM   20  C   UNL     1     -10.842  14.715  68.098  1.00  0.00    -0.252 C  
HETATM   21  O   UNL     1     -11.653  15.212  67.321  1.00  0.00    -0.323 OA 
BRANCH  20  22
HETATM   22  C   UNL     1     -10.706  15.152  69.583  1.00  0.00    -0.278 C  
HETATM   23  C   UNL     1     -12.511  13.521  70.379  1.00  0.00    -0.345 C  
HETATM   24  C   UNL     1     -11.893  15.428  71.845  1.00  0.00    -0.505 C  
HETATM   25  H2  UNL     1     -10.813  17.191  69.139  1.00  0.00     0.000 HD 
HETATM   26  H1  UNL     1     -10.133  16.838  70.646  1.00  0.00     0.000 HD 
HETATM   27  C   UNL     1     -12.025  14.976  70.381  1.00  0.00    -0.372 C  
HETATM   28  N   UNL     1     -10.222  16.552  69.671  1.00  0.00    -0.206 NA 
ENDBRANCH  20  22
ENDBRANCH  19  20
ENDBRANCH  11  19
BRANCH  13  29
HETATM   29  C   UNL     1     -10.309  12.787  64.804  1.00  0.00    -0.345 C  
HETATM   30  C   UNL     1     -12.077  13.319  63.092  1.00  0.00    -0.224 C  
HETATM   31  C   UNL     1     -12.769  12.898  65.459  1.00  0.00    -0.212 C  
HETATM   32  C   UNL     1     -11.762  12.534  64.368  1.00  0.00    -0.432 C  
ENDBRANCH  13  29
ENDBRANCH   2   3
TORSDOF 6
ENDMDL
MODEL       33
REMARK 921   NORMALIZED FREE ENERGY PREDICTED BY IDOCK:   -5.74 KCAL/MOL
REMARK 922        TOTAL FREE ENERGY PREDICTED BY IDOCK:   -8.57 KCAL/MOL
REMARK 923 INTER-LIGAND FREE ENERGY PREDICTED BY IDOCK:   -8.04 KCAL/MOL
REMARK 924 INTRA-LIGAND FREE ENERGY PREDICTED BY IDOCK:   -0.52 KCAL/MOL
REMARK 927      BINDING AFFINITY PREDICTED BY RF-SCORE:    0.00 PKD
ROOT
HETATM    1  C   UNL     1      -6.656   5.454  65.415  1.00  0.00    -0.040 C  
HETATM    2  O   UNL     1      -7.864   5.851  64.774  1.00  0.00    -0.099 OA 
ENDROOT
BRANCH   2   3
HETATM    3  C   UNL     1      -8.643   6.764  65.436  1.00  0.00    -0.047 A  
HETATM    4  C   UNL     1      -9.688   6.496  66.332  1.00  0.00    -0.079 A  
HETATM    5  C   UNL     1     -10.346   7.572  66.932  1.00  0.00    -0.379 A  
HETATM    6  N   UNL     1     -10.085  11.357  67.263  1.00  0.00    -0.190 NA 
HETATM    7  C   UNL     1      -9.982   8.907  66.692  1.00  0.00    -0.346 A  
HETATM    8  C   UNL     1      -9.696  11.612  65.869  1.00  0.00    -0.235 C  
HETATM    9  C   UNL     1     -10.718  10.030  67.415  1.00  0.00    -0.274 C  
HETATM   10  C   UNL     1     -10.813   9.774  68.930  1.00  0.00    -0.220 C  
HETATM   11  C   UNL     1     -11.711  10.801  69.622  1.00  0.00    -0.323 C  
HETATM   12  C   UNL     1      -8.683  10.586  65.335  1.00  0.00    -0.195 C  
HETATM   13  C   UNL     1     -11.310  12.245  69.258  1.00  0.00    -0.317 C  
HETATM   14  C   UNL     1     -11.013  12.390  67.747  1.00  0.00    -0.228 C  
HETATM   15  C   UNL     1      -8.339   8.095  65.116  1.00  0.00    -0.152 A  
HETATM   16  C   UNL     1      -9.013   9.168  65.722  1.00  0.00    -0.237 A  
BRANCH   4  17
HETATM   17  O   UNL     1     -10.080   5.199  66.538  1.00  0.00    -0.188 OA 
HETATM   18  C   UNL     1      -9.570   4.561  67.704  1.00  0.00    -0.165 C  
ENDBRANCH   4  17
BRANCH  11  19
HETATM   19  O   UNL     1     -11.569  10.623  71.055  1.00  0.00    -0.299 OA 
BRANCH  19  20
HETATM   20  C   UNL     1     -12.703  10.499  71.802  1.00  0.00    -0.402 C  
HETATM   21  O   UNL     1     -13.367  11.449  72.210  1.00  0.00    -0.410 OA 
BRANCH  20  22
HETATM   22  C   UNL     1     -13.073   9.016  72.083  1.00  0.00    -0.435 C  
HETATM   23  C   UNL     1     -10.641   8.335  72.494  1.00  0.00    -0.407 C  
HETATM   24  C   UNL     1     -12.306   6.567  71.978  1.00  0.00    -0.308 C  
HETATM   25  H2  UNL     1     -14.266   8.845  70.376  1.00  0.00     0.000 HD 
HETATM   26  H1  UNL     1     -14.568   7.677  71.560  1.00  0.00     0.000 HD 
HETATM   27  C   UNL     1     -11.929   8.035  71.717  1.00  0.00    -0.342 C  
HETATM   28  N   UNL     1     -14.325   8.651  71.375  1.00  0.00    -0.332 NA 
ENDBRANCH  20  22
ENDBRANCH  19  20
ENDBRANCH  11  19
BRANCH  13  29
HETATM   29  C   UNL     1     -12.404  13.277  69.639  1.00  0.00    -0.154 C  
HETATM   30  C   UNL     1     -13.220  15.245  70.981  1.00  0.00    -0.546 C  
HETATM   31  C   UNL     1     -10.854  15.228  70.169  1.00  0.00    -0.302 C  
HETATM   32  C   UNL     1     -12.013  14.360  70.658  1.00  0.00    -0.393 C  
ENDBRANCH  13  29
ENDBRANCH   2   3
TORSDOF 6
ENDMDL
MODEL       34
REMARK 921   NORMALIZED FREE ENERGY PREDICTED BY IDOCK:   -5.72 KCAL/MOL
REMARK 922        TOTAL FREE ENERGY PREDICTED BY IDOCK:   -8.55 KCAL/MOL
REMARK 923 INTER-LIGAND FREE ENERGY PREDICTED BY IDOCK:   -7.76 KCAL/MOL
REMARK 924 INTRA-LIGAND FREE ENERGY PREDICTED BY IDOCK:   -0.79 KCAL/MOL
REMARK 927      BINDING AFFINITY PREDICTED BY RF-SCORE:    0.00 PKD
ROOT
HETATM    1  C   UNL     1      -5.924  20.803  68.368  1.00  0.00    -0.354 C  
HETATM    2  O   UNL     1      -6.404  19.837  69.297  1.00  0.00    -0.291 OA 
ENDROOT
BRANCH   2   3
HETATM    3  C   UNL     1      -7.067  18.755  68.777  1.00  0.00    -0.308 A  
HETATM    4  C   UNL     1      -6.761  17.400  68.969  1.00  0.00    -0.243 A  
HETATM    5  C   UNL     1      -7.582  16.439  68.376  1.00  0.00    -0.178 A  
HETATM    6  N   UNL     1     -10.869  16.158  66.474  1.00  0.00    -0.209 NA 
HETATM    7  C   UNL     1      -8.715  16.779  67.619  1.00  0.00    -0.207 A  
HETATM    8  C   UNL     1     -10.677  17.355  65.645  1.00  0.00    -0.111 C  
HETATM    9  C   UNL     1      -9.589  15.675  67.035  1.00  0.00    -0.223 C  
HETATM   10  C   UNL     1      -9.959  14.615  68.089  1.00  0.00    -0.224 C  
HETATM   11  C   UNL     1     -10.673  13.417  67.461  1.00  0.00    -0.254 C  
HETATM   12  C   UNL     1     -10.076  18.533  66.430  1.00  0.00    -0.430 C  
HETATM   13  C   UNL     1     -11.859  13.860  66.579  1.00  0.00    -0.440 C  
HETATM   14  C   UNL     1     -11.491  15.075  65.697  1.00  0.00    -0.248 C  
HETATM   15  C   UNL     1      -8.138  19.104  67.942  1.00  0.00    -0.323 A  
HETATM   16  C   UNL     1      -8.952  18.127  67.345  1.00  0.00    -0.256 A  
BRANCH   4  17
HETATM   17  O   UNL     1      -5.632  17.060  69.669  1.00  0.00    -0.171 OA 
HETATM   18  C   UNL     1      -5.575  15.729  70.172  1.00  0.00    -0.158 C  
ENDBRANCH   4  17
BRANCH  11  19
HETATM   19  O   UNL     1     -11.174  12.583  68.537  1.00  0.00    -0.244 OA 
BRANCH  19  20
HETATM   20  C   UNL     1     -10.762  11.285  68.589  1.00  0.00    -0.205 C  
HETATM   21  O   UNL     1     -11.421  10.371  69.078  1.00  0.00    -0.244 OA 
BRANCH  20  22
HETATM   22  C   UNL     1      -9.357  11.079  67.957  1.00  0.00    -0.163 C  
HETATM   23  C   UNL     1     -10.284   9.762  65.968  1.00  0.00    -0.263 C  
HETATM   24  C   UNL     1      -7.867   9.570  66.507  1.00  0.00    -0.101 C  
HETATM   25  H2  UNL     1      -8.495  10.423  69.743  1.00  0.00     0.000 HD 
HETATM   26  H1  UNL     1      -7.386  10.966  68.590  1.00  0.00     0.000 HD 
HETATM   27  C   UNL     1      -9.265   9.780  67.114  1.00  0.00    -0.159 C  
HETATM   28  N   UNL     1      -8.308  11.101  69.006  1.00  0.00    -0.100 NA 
ENDBRANCH  20  22
ENDBRANCH  19  20
ENDBRANCH  11  19
BRANCH  13  29
HETATM   29  C   UNL     1     -12.365  12.722  65.654  1.00  0.00    -0.444 C  
HETATM   30  C   UNL     1     -12.629  11.668  63.383  1.00  0.00    -0.305 C  
HETATM   31  C   UNL     1     -10.482  12.822  63.941  1.00  0.00    -0.402 C  
HETATM   32  C   UNL     1     -11.994  12.820  64.165  1.00  0.00    -0.499 C  
ENDBRANCH  13  29
ENDBRANCH   2   3
TORSDOF 6
ENDMDL
MODEL       35
REMARK 921   NORMALIZED FREE ENERGY PREDICTED BY IDOCK:   -5.69 KCAL/MOL
REMARK 922        TOTAL FREE ENERGY PREDICTED BY IDOCK:   -8.50 KCAL/MOL
REMARK 923 INTER-LIGAND FREE ENERGY PREDICTED BY IDOCK:   -7.50 KCAL/MOL
REMARK 924 INTRA-LIGAND FREE ENERGY PREDICTED BY IDOCK:   -1.00 KCAL/MOL
REMARK 927      BINDING AFFINITY PREDICTED BY RF-SCORE:    0.00 PKD
ROOT
HETATM    1  C   UNL     1     -10.434   5.508  71.178  1.00  0.00    -0.236 C  
HETATM    2  O   UNL     1     -10.456   5.631  69.760  1.00  0.00    -0.252 OA 
ENDROOT
BRANCH   2   3
HETATM    3  C   UNL     1     -10.050   6.832  69.238  1.00  0.00    -0.168 A  
HETATM    4  C   UNL     1     -10.464   7.416  68.032  1.00  0.00    -0.199 A  
HETATM    5  C   UNL     1      -9.955   8.670  67.688  1.00  0.00    -0.248 A  
HETATM    6  N   UNL     1      -7.855  11.488  69.154  1.00  0.00    -0.001 NA 
HETATM    7  C   UNL     1      -9.066   9.376  68.516  1.00  0.00    -0.131 A  
HETATM    8  C   UNL     1      -6.876  10.624  69.829  1.00  0.00    -0.143 C  
HETATM    9  C   UNL     1      -8.583  10.759  68.094  1.00  0.00    -0.129 C  
HETATM   10  C   UNL     1      -9.748  11.673  67.672  1.00  0.00    -0.186 C  
HETATM   11  C   UNL     1      -9.248  12.988  67.073  1.00  0.00    -0.232 C  
HETATM   12  C   UNL     1      -7.525   9.407  70.508  1.00  0.00    -0.154 C  
HETATM   13  C   UNL     1      -8.218  13.677  67.992  1.00  0.00    -0.162 C  
HETATM   14  C   UNL     1      -7.198  12.665  68.564  1.00  0.00    -0.113 C  
HETATM   15  C   UNL     1      -9.088   7.486  70.022  1.00  0.00    -0.148 A  
HETATM   16  C   UNL     1      -8.578   8.744  69.661  1.00  0.00    -0.130 A  
BRANCH   4  17
HETATM   17  O   UNL     1     -11.295   6.715  67.197  1.00  0.00    -0.343 OA 
HETATM   18  C   UNL     1     -10.707   5.639  66.474  1.00  0.00    -0.226 C  
ENDBRANCH   4  17
BRANCH  11  19
HETATM   19  O   UNL     1     -10.391  13.866  66.910  1.00  0.00    -0.262 OA 
BRANCH  19  20
HETATM   20  C   UNL     1     -10.790  14.174  65.642  1.00  0.00    -0.305 C  
HETATM   21  O   UNL     1     -10.308  15.082  64.970  1.00  0.00    -0.387 OA 
BRANCH  20  22
HETATM   22  C   UNL     1     -11.925  13.243  65.133  1.00  0.00    -0.381 C  
HETATM   23  C   UNL     1     -10.333  11.842  63.701  1.00  0.00    -0.476 C  
HETATM   24  C   UNL     1     -12.767  11.753  63.217  1.00  0.00    -0.314 C  
HETATM   25  H2  UNL     1     -13.183  14.830  64.615  1.00  0.00     0.000 HD 
HETATM   26  H1  UNL     1     -13.971  13.347  64.808  1.00  0.00     0.000 HD 
HETATM   27  C   UNL     1     -11.632  12.657  63.726  1.00  0.00    -0.550 C  
HETATM   28  N   UNL     1     -13.225  13.958  65.143  1.00  0.00    -0.690 NA 
ENDBRANCH  20  22
ENDBRANCH  19  20
ENDBRANCH  11  19
BRANCH  13  29
HETATM   29  C   UNL     1      -7.433  14.799  67.264  1.00  0.00    -0.173 C  
HETATM   30  C   UNL     1      -7.197  17.176  66.465  1.00  0.00    -0.308 C  
HETATM   31  C   UNL     1      -8.217  16.747  68.709  1.00  0.00    -0.250 C  
HETATM   32  C   UNL     1      -8.051  16.207  67.288  1.00  0.00    -0.202 C  
ENDBRANCH  13  29
ENDBRANCH   2   3
TORSDOF 6
ENDMDL
MODEL       36
REMARK 921   NORMALIZED FREE ENERGY PREDICTED BY IDOCK:   -5.65 KCAL/MOL
REMARK 922        TOTAL FREE ENERGY PREDICTED BY IDOCK:   -8.46 KCAL/MOL
REMARK 923 INTER-LIGAND FREE ENERGY PREDICTED BY IDOCK:   -7.64 KCAL/MOL
REMARK 924 INTRA-LIGAND FREE ENERGY PREDICTED BY IDOCK:   -0.82 KCAL/MOL
REMARK 927      BINDING AFFINITY PREDICTED BY RF-SCORE:    0.00 PKD
ROOT
HETATM    1  C   UNL     1      -6.012  20.214  64.492  1.00  0.00    -0.258 C  
HETATM    2  O   UNL     1      -7.174  20.170  65.314  1.00  0.00    -0.303 OA 
ENDROOT
BRANCH   2   3
HETATM    3  C   UNL     1      -7.479  18.962  65.887  1.00  0.00    -0.210 A  
HETATM    4  C   UNL     1      -8.756  18.422  66.099  1.00  0.00    -0.104 A  
HETATM    5  C   UNL     1      -8.859  17.153  66.672  1.00  0.00    -0.279 A  
HETATM    6  N   UNL     1      -6.670  14.209  67.693  1.00  0.00    -0.178 NA 
HETATM    7  C   UNL     1      -7.732  16.389  67.018  1.00  0.00    -0.250 A  
HETATM    8  C   UNL     1      -5.568  15.012  68.242  1.00  0.00    -0.118 C  
HETATM    9  C   UNL     1      -7.920  14.994  67.602  1.00  0.00    -0.162 C  
HETATM   10  C   UNL     1      -8.895  14.145  66.766  1.00  0.00    -0.190 C  
HETATM   11  C   UNL     1      -9.227  12.820  67.454  1.00  0.00    -0.193 C  
HETATM   12  C   UNL     1      -5.244  16.244  67.382  1.00  0.00    -0.128 C  
HETATM   13  C   UNL     1      -7.950  12.065  67.879  1.00  0.00    -0.147 C  
HETATM   14  C   UNL     1      -6.912  13.015  68.518  1.00  0.00    -0.102 C  
HETATM   15  C   UNL     1      -6.353  18.247  66.319  1.00  0.00    -0.239 A  
HETATM   16  C   UNL     1      -6.470  16.974  66.901  1.00  0.00    -0.248 A  
BRANCH   4  17
HETATM   17  O   UNL     1      -9.861  19.179  65.806  1.00  0.00    -0.443 OA 
HETATM   18  C   UNL     1     -10.607  19.668  66.916  1.00  0.00    -0.484 C  
ENDBRANCH   4  17
BRANCH  11  19
HETATM   19  O   UNL     1      -9.964  12.001  66.511  1.00  0.00    -0.199 OA 
BRANCH  19  20
HETATM   20  C   UNL     1     -11.306  11.853  66.700  1.00  0.00    -0.337 C  
HETATM   21  O   UNL     1     -11.807  11.281  67.665  1.00  0.00    -0.614 OA 
BRANCH  20  22
HETATM   22  C   UNL     1     -12.143  12.492  65.558  1.00  0.00    -0.419 C  
HETATM   23  C   UNL     1     -10.780  11.348  63.720  1.00  0.00    -0.470 C  
HETATM   24  C   UNL     1     -12.155  13.330  63.130  1.00  0.00    -0.224 C  
HETATM   25  H2  UNL     1     -12.011  14.421  66.353  1.00  0.00     0.000 HD 
HETATM   26  H1  UNL     1     -13.275  14.203  65.252  1.00  0.00     0.000 HD 
HETATM   27  C   UNL     1     -11.329  12.678  64.251  1.00  0.00    -0.416 C  
HETATM   28  N   UNL     1     -12.725  13.783  66.002  1.00  0.00    -0.413 NA 
ENDBRANCH  20  22
ENDBRANCH  19  20
ENDBRANCH  11  19
BRANCH  13  29
HETATM   29  C   UNL     1      -8.247  10.921  68.884  1.00  0.00    -0.141 C  
HETATM   30  C   UNL     1      -9.097   8.613  69.425  1.00  0.00    -0.149 C  
HETATM   31  C   UNL     1      -7.815   8.968  67.306  1.00  0.00    -0.099 C  
HETATM   32  C   UNL     1      -8.786   9.605  68.300  1.00  0.00    -0.120 C  
ENDBRANCH  13  29
ENDBRANCH   2   3
TORSDOF 6
ENDMDL
MODEL       37
REMARK 921   NORMALIZED FREE ENERGY PREDICTED BY IDOCK:   -5.64 KCAL/MOL
REMARK 922        TOTAL FREE ENERGY PREDICTED BY IDOCK:   -8.43 KCAL/MOL
REMARK 923 INTER-LIGAND FREE ENERGY PREDICTED BY IDOCK:   -7.57 KCAL/MOL
REMARK 924 INTRA-LIGAND FREE ENERGY PREDICTED BY IDOCK:   -0.87 KCAL/MOL
REMARK 927      BINDING AFFINITY PREDICTED BY RF-SCORE:    0.00 PKD
ROOT
HETATM    1  C   UNL     1     -14.409  15.321  71.939  1.00  0.00    -0.589 C  
HETATM    2  O   UNL     1     -13.077  15.116  71.481  1.00  0.00    -0.339 OA 
ENDROOT
BRANCH   2   3
HETATM    3  C   UNL     1     -12.745  13.843  71.095  1.00  0.00    -0.367 A  
HETATM    4  C   UNL     1     -11.953  13.468  70.000  1.00  0.00    -0.340 A  
HETATM    5  C   UNL     1     -11.702  12.111  69.790  1.00  0.00    -0.381 A  
HETATM    6  N   UNL     1     -12.209   8.738  71.483  1.00  0.00    -0.313 NA 
HETATM    7  C   UNL     1     -12.191  11.113  70.649  1.00  0.00    -0.492 A  
HETATM    8  C   UNL     1     -13.563   9.012  71.984  1.00  0.00    -0.445 C  
HETATM    9  C   UNL     1     -11.842   9.653  70.382  1.00  0.00    -0.155 C  
HETATM   10  C   UNL     1     -10.334   9.454  70.148  1.00  0.00    -0.273 C  
HETATM   11  C   UNL     1     -10.014   8.029  69.695  1.00  0.00    -0.188 C  
HETATM   12  C   UNL     1     -13.716  10.439  72.537  1.00  0.00     0.335 C  
HETATM   13  C   UNL     1     -10.642   6.979  70.635  1.00  0.00    -0.246 C  
HETATM   14  C   UNL     1     -12.095   7.349  71.012  1.00  0.00    -0.298 C  
HETATM   15  C   UNL     1     -13.318  12.848  71.900  1.00  0.00    -0.530 A  
HETATM   16  C   UNL     1     -13.063  11.485  71.674  1.00  0.00    -0.478 A  
BRANCH   4  17
HETATM   17  O   UNL     1     -11.509  14.432  69.131  1.00  0.00    -0.260 OA 
HETATM   18  C   UNL     1     -10.119  14.732  69.174  1.00  0.00    -0.197 C  
ENDBRANCH   4  17
BRANCH  11  19
HETATM   19  O   UNL     1      -8.572   7.869  69.712  1.00  0.00    -0.130 OA 
BRANCH  19  20
HETATM   20  C   UNL     1      -7.907   7.904  68.522  1.00  0.00    -0.119 C  
HETATM   21  O   UNL     1      -7.508   6.907  67.926  1.00  0.00    -0.094 OA 
BRANCH  20  22
HETATM   22  C   UNL     1      -7.710   9.351  67.992  1.00  0.00    -0.084 C  
HETATM   23  C   UNL     1      -9.667   9.173  66.352  1.00  0.00    -0.330 C  
HETATM   24  C   UNL     1      -7.966  10.948  65.996  1.00  0.00    -0.132 C  
HETATM   25  H2  UNL     1      -5.656   9.110  67.693  1.00  0.00     0.000 HD 
HETATM   26  H1  UNL     1      -6.164  10.719  67.790  1.00  0.00     0.000 HD 
HETATM   27  C   UNL     1      -8.182   9.520  66.523  1.00  0.00    -0.119 C  
HETATM   28  N   UNL     1      -6.294   9.769  68.139  1.00  0.00    -0.055 NA 
ENDBRANCH  20  22
ENDBRANCH  19  20
ENDBRANCH  11  19
BRANCH  13  29
HETATM   29  C   UNL     1     -10.649   5.558  70.012  1.00  0.00    -0.384 C  
HETATM   30  C   UNL     1      -9.467   3.465  69.259  1.00  0.00    -0.212 C  
HETATM   31  C   UNL     1      -8.712   4.594  71.360  1.00  0.00    -0.138 C  
HETATM   32  C   UNL     1      -9.304   4.813  69.967  1.00  0.00    -0.213 C  
ENDBRANCH  13  29
ENDBRANCH   2   3
TORSDOF 6
ENDMDL
MODEL       38
REMARK 921   NORMALIZED FREE ENERGY PREDICTED BY IDOCK:   -5.63 KCAL/MOL
REMARK 922        TOTAL FREE ENERGY PREDICTED BY IDOCK:   -8.42 KCAL/MOL
REMARK 923 INTER-LIGAND FREE ENERGY PREDICTED BY IDOCK:   -7.59 KCAL/MOL
REMARK 924 INTRA-LIGAND FREE ENERGY PREDICTED BY IDOCK:   -0.83 KCAL/MOL
REMARK 927      BINDING AFFINITY PREDICTED BY RF-SCORE:    0.00 PKD
ROOT
HETATM    1  C   UNL     1     -10.173   4.980  69.819  1.00  0.00    -0.266 C  
HETATM    2  O   UNL     1     -10.083   6.121  70.667  1.00  0.00    -0.184 OA 
ENDROOT
BRANCH   2   3
HETATM    3  C   UNL     1     -10.234   7.346  70.072  1.00  0.00    -0.209 A  
HETATM    4  C   UNL     1     -10.670   8.535  70.675  1.00  0.00    -0.220 A  
HETATM    5  C   UNL     1     -10.727   9.696  69.902  1.00  0.00    -0.283 A  
HETATM    6  N   UNL     1      -9.730  10.978  66.457  1.00  0.00    -0.193 NA 
HETATM    7  C   UNL     1     -10.339   9.722  68.552  1.00  0.00    -0.228 A  
HETATM    8  C   UNL     1     -10.107   9.764  65.720  1.00  0.00    -0.238 C  
HETATM    9  C   UNL     1     -10.389  11.035  67.780  1.00  0.00    -0.188 C  
HETATM   10  C   UNL     1      -9.704  12.181  68.547  1.00  0.00    -0.153 C  
HETATM   11  C   UNL     1      -9.919  13.531  67.861  1.00  0.00    -0.245 C  
HETATM   12  C   UNL     1      -9.712   8.474  66.456  1.00  0.00    -0.330 C  
HETATM   13  C   UNL     1      -9.548  13.474  66.365  1.00  0.00    -0.268 C  
HETATM   14  C   UNL     1     -10.080  12.186  65.695  1.00  0.00    -0.248 C  
HETATM   15  C   UNL     1      -9.939   7.342  68.700  1.00  0.00    -0.174 A  
HETATM   16  C   UNL     1     -10.007   8.516  67.932  1.00  0.00    -0.225 A  
BRANCH   4  17
HETATM   17  O   UNL     1     -11.094   8.509  71.979  1.00  0.00    -0.295 OA 
HETATM   18  C   UNL     1     -12.499   8.590  72.191  1.00  0.00    -0.379 C  
ENDBRANCH   4  17
BRANCH  11  19
HETATM   19  O   UNL     1      -9.069  14.505  68.518  1.00  0.00    -0.182 OA 
BRANCH  19  20
HETATM   20  C   UNL     1      -9.665  15.548  69.163  1.00  0.00    -0.252 C  
HETATM   21  O   UNL     1     -10.703  15.453  69.814  1.00  0.00    -0.253 OA 
BRANCH  20  22
HETATM   22  C   UNL     1      -8.885  16.881  68.991  1.00  0.00    -0.159 C  
HETATM   23  C   UNL     1     -10.655  17.886  67.440  1.00  0.00    -0.370 C  
HETATM   24  C   UNL     1      -8.377  18.875  67.454  1.00  0.00    -0.294 C  
HETATM   25  H2  UNL     1      -7.077  15.928  68.557  1.00  0.00     0.000 HD 
HETATM   26  H1  UNL     1      -6.918  17.533  69.063  1.00  0.00     0.000 HD 
HETATM   27  C   UNL     1      -9.167  17.567  67.628  1.00  0.00    -0.243 C  
HETATM   28  N   UNL     1      -7.430  16.657  69.176  1.00  0.00    -0.231 NA 
ENDBRANCH  20  22
ENDBRANCH  19  20
ENDBRANCH  11  19
BRANCH  13  29
HETATM   29  C   UNL     1     -10.092  14.694  65.575  1.00  0.00    -0.405 C  
HETATM   30  C   UNL     1     -11.814  15.785  64.096  1.00  0.00    -0.035 C  
HETATM   31  C   UNL     1     -12.575  14.214  65.887  1.00  0.00    -0.447 C  
HETATM   32  C   UNL     1     -11.459  14.525  64.890  1.00  0.00    -0.396 C  
ENDBRANCH  13  29
ENDBRANCH   2   3
TORSDOF 6
ENDMDL
MODEL       39
REMARK 921   NORMALIZED FREE ENERGY PREDICTED BY IDOCK:   -5.62 KCAL/MOL
REMARK 922        TOTAL FREE ENERGY PREDICTED BY IDOCK:   -8.41 KCAL/MOL
REMARK 923 INTER-LIGAND FREE ENERGY PREDICTED BY IDOCK:   -7.72 KCAL/MOL
REMARK 924 INTRA-LIGAND FREE ENERGY PREDICTED BY IDOCK:   -0.69 KCAL/MOL
REMARK 927      BINDING AFFINITY PREDICTED BY RF-SCORE:    0.00 PKD
ROOT
HETATM    1  C   UNL     1     -10.043   4.725  72.243  1.00  0.00    -0.187 C  
HETATM    2  O   UNL     1     -10.999   5.768  72.397  1.00  0.00    -0.232 OA 
ENDROOT
BRANCH   2   3
HETATM    3  C   UNL     1     -11.033   6.725  71.415  1.00  0.00    -0.242 A  
HETATM    4  C   UNL     1     -11.504   8.040  71.528  1.00  0.00    -0.264 A  
HETATM    5  C   UNL     1     -11.423   8.878  70.413  1.00  0.00    -0.182 A  
HETATM    6  N   UNL     1      -9.951   8.954  66.902  1.00  0.00    -0.222 NA 
HETATM    7  C   UNL     1     -10.864   8.458  69.194  1.00  0.00    -0.042 A  
HETATM    8  C   UNL     1     -10.268   7.559  66.565  1.00  0.00    -0.095 C  
HETATM    9  C   UNL     1     -10.771   9.439  68.032  1.00  0.00    -0.190 C  
HETATM   10  C   UNL     1     -10.154  10.783  68.459  1.00  0.00    -0.187 C  
HETATM   11  C   UNL     1     -10.235  11.825  67.343  1.00  0.00    -0.199 C  
HETATM   12  C   UNL     1     -10.013   6.592  67.732  1.00  0.00    -0.154 C  
HETATM   13  C   UNL     1      -9.677  11.278  66.012  1.00  0.00    -0.253 C  
HETATM   14  C   UNL     1     -10.160   9.835  65.743  1.00  0.00    -0.238 C  
HETATM   15  C   UNL     1     -10.563   6.268  70.174  1.00  0.00    -0.306 A  
HETATM   16  C   UNL     1     -10.494   7.119  69.058  1.00  0.00    -0.221 A  
BRANCH   4  17
HETATM   17  O   UNL     1     -12.092   8.445  72.698  1.00  0.00    -0.390 OA 
HETATM   18  C   UNL     1     -13.331   9.136  72.580  1.00  0.00    -0.417 C  
ENDBRANCH   4  17
BRANCH  11  19
HETATM   19  O   UNL     1      -9.445  12.973  67.746  1.00  0.00    -0.195 OA 
BRANCH  19  20
HETATM   20  C   UNL     1     -10.097  14.051  68.267  1.00  0.00    -0.246 C  
HETATM   21  O   UNL     1     -11.173  13.987  68.856  1.00  0.00    -0.247 OA 
BRANCH  20  22
HETATM   22  C   UNL     1      -9.327  15.381  68.039  1.00  0.00    -0.196 C  
HETATM   23  C   UNL     1     -10.317  15.725  65.705  1.00  0.00    -0.411 C  
HETATM   24  C   UNL     1      -8.252  16.960  66.321  1.00  0.00    -0.344 C  
HETATM   25  H2  UNL     1      -7.491  14.582  68.636  1.00  0.00     0.000 HD 
HETATM   26  H1  UNL     1      -7.566  16.270  68.682  1.00  0.00     0.000 HD 
HETATM   27  C   UNL     1      -9.033  15.653  66.541  1.00  0.00    -0.343 C  
HETATM   28  N   UNL     1      -8.072  15.396  68.832  1.00  0.00    -0.168 NA 
ENDBRANCH  20  22
ENDBRANCH  19  20
ENDBRANCH  11  19
BRANCH  13  29
HETATM   29  C   UNL     1     -10.075  12.159  64.799  1.00  0.00    -0.276 C  
HETATM   30  C   UNL     1     -11.793  13.115  63.225  1.00  0.00    -0.371 C  
HETATM   31  C   UNL     1     -12.365  12.886  65.650  1.00  0.00    -0.482 C  
HETATM   32  C   UNL     1     -11.577  12.278  64.489  1.00  0.00    -0.418 C  
ENDBRANCH  13  29
ENDBRANCH   2   3
TORSDOF 6
ENDMDL
MODEL       40
REMARK 921   NORMALIZED FREE ENERGY PREDICTED BY IDOCK:   -5.60 KCAL/MOL
REMARK 922        TOTAL FREE ENERGY PREDICTED BY IDOCK:   -8.38 KCAL/MOL
REMARK 923 INTER-LIGAND FREE ENERGY PREDICTED BY IDOCK:   -7.32 KCAL/MOL
REMARK 924 INTRA-LIGAND FREE ENERGY PREDICTED BY IDOCK:   -1.06 KCAL/MOL
REMARK 927      BINDING AFFINITY PREDICTED BY RF-SCORE:    0.00 PKD
ROOT
HETATM    1  C   UNL     1     -10.089   7.433  67.159  1.00  0.00    -0.244 C  
HETATM    2  O   UNL     1      -8.876   8.167  67.284  1.00  0.00    -0.128 OA 
ENDROOT
BRANCH   2   3
HETATM    3  C   UNL     1      -8.989   9.505  67.559  1.00  0.00    -0.124 A  
HETATM    4  C   UNL     1      -8.100  10.297  68.301  1.00  0.00    -0.107 A  
HETATM    5  C   UNL     1      -8.376  11.658  68.443  1.00  0.00    -0.157 A  
HETATM    6  N   UNL     1     -10.775  14.316  67.145  1.00  0.00    -0.279 NA 
HETATM    7  C   UNL     1      -9.495  12.266  67.849  1.00  0.00    -0.200 A  
HETATM    8  C   UNL     1     -11.976  13.470  67.163  1.00  0.00    -0.381 C  
HETATM    9  C   UNL     1      -9.711  13.766  68.012  1.00  0.00    -0.232 C  
HETATM   10  C   UNL     1      -8.439  14.571  67.687  1.00  0.00    -0.189 C  
HETATM   11  C   UNL     1      -8.602  16.052  68.032  1.00  0.00    -0.165 C  
HETATM   12  C   UNL     1     -11.706  12.041  66.664  1.00  0.00    -0.331 C  
HETATM   13  C   UNL     1      -9.887  16.642  67.415  1.00  0.00    -0.254 C  
HETATM   14  C   UNL     1     -11.090  15.685  67.581  1.00  0.00    -0.305 C  
HETATM   15  C   UNL     1     -10.158  10.085  67.045  1.00  0.00    -0.274 A  
HETATM   16  C   UNL     1     -10.428  11.455  67.201  1.00  0.00    -0.259 A  
BRANCH   4  17
HETATM   17  O   UNL     1      -7.031   9.704  68.922  1.00  0.00    -0.057 OA 
HETATM   18  C   UNL     1      -6.582  10.312  70.128  1.00  0.00    -0.138 C  
ENDBRANCH   4  17
BRANCH  11  19
HETATM   19  O   UNL     1      -7.456  16.763  67.497  1.00  0.00    -0.149 OA 
BRANCH  19  20
HETATM   20  C   UNL     1      -6.575  17.317  68.378  1.00  0.00    -0.174 C  
HETATM   21  O   UNL     1      -6.324  16.852  69.486  1.00  0.00    -0.220 OA 
BRANCH  20  22
HETATM   22  C   UNL     1      -5.913  18.609  67.825  1.00  0.00    -0.188 C  
HETATM   23  C   UNL     1      -6.569  19.997  69.872  1.00  0.00    -0.316 C  
HETATM   24  C   UNL     1      -5.953  21.177  67.775  1.00  0.00    -0.415 C  
HETATM   25  H2  UNL     1      -6.817  18.437  65.949  1.00  0.00     0.000 HD 
HETATM   26  H1  UNL     1      -5.453  19.434  65.978  1.00  0.00     0.000 HD 
HETATM   27  C   UNL     1      -6.599  19.901  68.341  1.00  0.00    -0.321 C  
HETATM   28  N   UNL     1      -5.888  18.585  66.341  1.00  0.00    -0.151 NA 
ENDBRANCH  20  22
ENDBRANCH  19  20
ENDBRANCH  11  19
BRANCH  13  29
HETATM   29  C   UNL     1     -10.266  18.012  68.037  1.00  0.00    -0.390 C  
HETATM   30  C   UNL     1     -10.259  20.531  68.016  1.00  0.00    -0.223 C  
HETATM   31  C   UNL     1     -10.548  19.301  65.856  1.00  0.00    -0.521 C  
HETATM   32  C   UNL     1      -9.885  19.268  67.234  1.00  0.00    -0.425 C  
ENDBRANCH  13  29
ENDBRANCH   2   3
TORSDOF 6
ENDMDL
MODEL       41
REMARK 921   NORMALIZED FREE ENERGY PREDICTED BY IDOCK:   -5.58 KCAL/MOL
REMARK 922        TOTAL FREE ENERGY PREDICTED BY IDOCK:   -8.36 KCAL/MOL
REMARK 923 INTER-LIGAND FREE ENERGY PREDICTED BY IDOCK:   -7.67 KCAL/MOL
REMARK 924 INTRA-LIGAND FREE ENERGY PREDICTED BY IDOCK:   -0.69 KCAL/MOL
REMARK 927      BINDING AFFINITY PREDICTED BY RF-SCORE:    0.00 PKD
ROOT
HETATM    1  C   UNL     1      -9.275   7.685  73.984  1.00  0.00    -0.183 C  
HETATM    2  O   UNL     1     -10.333   7.281  73.121  1.00  0.00    -0.244 OA 
ENDROOT
BRANCH   2   3
HETATM    3  C   UNL     1     -10.661   8.137  72.102  1.00  0.00    -0.290 A  
HETATM    4  C   UNL     1     -11.821   8.916  71.989  1.00  0.00    -0.368 A  
HETATM    5  C   UNL     1     -11.957   9.757  70.882  1.00  0.00    -0.413 A  
HETATM    6  N   UNL     1      -9.953  11.039  67.909  1.00  0.00    -0.171 NA 
HETATM    7  C   UNL     1     -10.964   9.869  69.895  1.00  0.00    -0.321 A  
HETATM    8  C   UNL     1      -9.294   9.763  67.597  1.00  0.00    -0.140 C  
HETATM    9  C   UNL     1     -11.162  10.838  68.735  1.00  0.00    -0.272 C  
HETATM   10  C   UNL     1     -11.585  12.238  69.218  1.00  0.00    -0.383 C  
HETATM   11  C   UNL     1     -11.965  13.150  68.051  1.00  0.00    -0.304 C  
HETATM   12  C   UNL     1      -8.838   9.006  68.856  1.00  0.00    -0.139 C  
HETATM   13  C   UNL     1     -10.869  13.170  66.965  1.00  0.00    -0.278 C  
HETATM   14  C   UNL     1     -10.326  11.752  66.677  1.00  0.00    -0.218 C  
HETATM   15  C   UNL     1      -9.710   8.170  71.072  1.00  0.00    -0.193 A  
HETATM   16  C   UNL     1      -9.861   9.015  69.960  1.00  0.00    -0.203 A  
BRANCH   4  17
HETATM   17  O   UNL     1     -12.815   8.780  72.923  1.00  0.00    -0.313 OA 
HETATM   18  C   UNL     1     -14.150   8.758  72.430  1.00  0.00    -0.413 C  
ENDBRANCH   4  17
BRANCH  11  19
HETATM   19  O   UNL     1     -12.133  14.493  68.572  1.00  0.00    -0.304 OA 
BRANCH  19  20
HETATM   20  C   UNL     1     -11.228  14.946  69.486  1.00  0.00    -0.277 C  
HETATM   21  O   UNL     1     -11.207  14.602  70.665  1.00  0.00    -0.190 OA 
BRANCH  20  22
HETATM   22  C   UNL     1     -10.214  15.951  68.872  1.00  0.00    -0.226 C  
HETATM   23  C   UNL     1      -8.330  14.221  68.787  1.00  0.00    -0.095 C  
HETATM   24  C   UNL     1      -7.746  16.631  68.657  1.00  0.00    -0.224 C  
HETATM   25  H2  UNL     1     -10.630  17.443  70.275  1.00  0.00     0.000 HD 
HETATM   26  H1  UNL     1      -9.893  18.000  68.860  1.00  0.00     0.000 HD 
HETATM   27  C   UNL     1      -8.745  15.623  69.249  1.00  0.00    -0.267 C  
HETATM   28  N   UNL     1     -10.559  17.340  69.263  1.00  0.00    -0.264 NA 
ENDBRANCH  20  22
ENDBRANCH  19  20
ENDBRANCH  11  19
BRANCH  13  29
HETATM   29  C   UNL     1     -11.372  13.779  65.630  1.00  0.00    -0.311 C  
HETATM   30  C   UNL     1     -11.783  15.743  64.108  1.00  0.00    -0.070 C  
HETATM   31  C   UNL     1      -9.692  15.690  65.480  1.00  0.00    -0.286 C  
HETATM   32  C   UNL     1     -11.167  15.291  65.435  1.00  0.00    -0.307 C  
ENDBRANCH  13  29
ENDBRANCH   2   3
TORSDOF 6
ENDMDL
MODEL       42
REMARK 921   NORMALIZED FREE ENERGY PREDICTED BY IDOCK:   -5.57 KCAL/MOL
REMARK 922        TOTAL FREE ENERGY PREDICTED BY IDOCK:   -8.34 KCAL/MOL
REMARK 923 INTER-LIGAND FREE ENERGY PREDICTED BY IDOCK:   -8.13 KCAL/MOL
REMARK 924 INTRA-LIGAND FREE ENERGY PREDICTED BY IDOCK:   -0.21 KCAL/MOL
REMARK 927      BINDING AFFINITY PREDICTED BY RF-SCORE:    0.00 PKD
ROOT
HETATM    1  C   UNL     1      -9.619   3.281  68.149  1.00  0.00    -0.084 C  
HETATM    2  O   UNL     1      -9.630   3.808  69.471  1.00  0.00    -0.184 OA 
ENDROOT
BRANCH   2   3
HETATM    3  C   UNL     1      -9.784   5.165  69.594  1.00  0.00    -0.185 A  
HETATM    4  C   UNL     1      -9.018   6.165  68.977  1.00  0.00    -0.125 A  
HETATM    5  C   UNL     1      -9.354   7.501  69.205  1.00  0.00    -0.147 A  
HETATM    6  N   UNL     1     -12.080   9.603  70.833  1.00  0.00    -0.302 NA 
HETATM    7  C   UNL     1     -10.446   7.877  70.005  1.00  0.00    -0.231 A  
HETATM    8  C   UNL     1     -12.262   8.745  72.012  1.00  0.00    -0.377 C  
HETATM    9  C   UNL     1     -10.780   9.355  70.176  1.00  0.00    -0.243 C  
HETATM   10  C   UNL     1     -10.837  10.092  68.826  1.00  0.00    -0.259 C  
HETATM   11  C   UNL     1     -10.984  11.603  69.012  1.00  0.00    -0.233 C  
HETATM   12  C   UNL     1     -12.229   7.246  71.668  1.00  0.00    -0.377 C  
HETATM   13  C   UNL     1     -12.150  11.949  69.961  1.00  0.00    -0.366 C  
HETATM   14  C   UNL     1     -12.169  11.025  71.200  1.00  0.00    -0.310 C  
HETATM   15  C   UNL     1     -10.814   5.534  70.472  1.00  0.00    -0.266 A  
HETATM   16  C   UNL     1     -11.138   6.882  70.698  1.00  0.00    -0.322 A  
BRANCH   4  17
HETATM   17  O   UNL     1      -7.924   5.808  68.232  1.00  0.00    -0.102 OA 
HETATM   18  C   UNL     1      -7.791   6.436  66.961  1.00  0.00    -0.104 C  
ENDBRANCH   4  17
BRANCH  11  19
HETATM   19  O   UNL     1     -11.249  12.188  67.711  1.00  0.00    -0.240 OA 
BRANCH  19  20
HETATM   20  C   UNL     1     -10.284  12.971  67.150  1.00  0.00    -0.243 C  
HETATM   21  O   UNL     1      -9.238  12.540  66.673  1.00  0.00    -0.222 OA 
BRANCH  20  22
HETATM   22  C   UNL     1     -10.653  14.481  67.173  1.00  0.00    -0.274 C  
HETATM   23  C   UNL     1      -8.784  15.061  68.823  1.00  0.00    -0.186 C  
HETATM   24  C   UNL     1     -10.668  16.655  68.542  1.00  0.00    -0.351 C  
HETATM   25  H2  UNL     1     -12.687  14.122  67.490  1.00  0.00     0.000 HD 
HETATM   26  H1  UNL     1     -12.334  15.659  66.882  1.00  0.00     0.000 HD 
HETATM   27  C   UNL     1     -10.283  15.166  68.515  1.00  0.00    -0.231 C  
HETATM   28  N   UNL     1     -12.092  14.668  66.867  1.00  0.00    -0.297 NA 
ENDBRANCH  20  22
ENDBRANCH  19  20
ENDBRANCH  11  19
BRANCH  13  29
HETATM   29  C   UNL     1     -12.096  13.420  70.452  1.00  0.00    -0.405 C  
HETATM   30  C   UNL     1     -13.192  15.481  71.397  1.00  0.00    -0.587 C  
HETATM   31  C   UNL     1     -13.886  13.236  72.256  1.00  0.00    -0.637 C  
HETATM   32  C   UNL     1     -13.394  14.007  71.032  1.00  0.00    -0.241 C  
ENDBRANCH  13  29
ENDBRANCH   2   3
TORSDOF 6
ENDMDL
MODEL       43
REMARK 921   NORMALIZED FREE ENERGY PREDICTED BY IDOCK:   -5.57 KCAL/MOL
REMARK 922        TOTAL FREE ENERGY PREDICTED BY IDOCK:   -8.34 KCAL/MOL
REMARK 923 INTER-LIGAND FREE ENERGY PREDICTED BY IDOCK:   -7.25 KCAL/MOL
REMARK 924 INTRA-LIGAND FREE ENERGY PREDICTED BY IDOCK:   -1.09 KCAL/MOL
REMARK 927      BINDING AFFINITY PREDICTED BY RF-SCORE:    0.00 PKD
ROOT
HETATM    1  C   UNL     1     -10.334   5.024  73.928  1.00  0.00    -0.249 C  
HETATM    2  O   UNL     1     -11.515   5.192  73.151  1.00  0.00    -0.323 OA 
ENDROOT
BRANCH   2   3
HETATM    3  C   UNL     1     -11.372   5.808  71.934  1.00  0.00    -0.204 A  
HETATM    4  C   UNL     1     -12.155   6.847  71.412  1.00  0.00    -0.364 A  
HETATM    5  C   UNL     1     -11.827   7.365  70.157  1.00  0.00     0.047 A  
HETATM    6  N   UNL     1      -9.097   7.138  67.511  1.00  0.00    -0.123 NA 
HETATM    7  C   UNL     1     -10.727   6.902  69.414  1.00  0.00    -0.275 A  
HETATM    8  C   UNL     1      -8.892   5.687  67.617  1.00  0.00    -0.105 C  
HETATM    9  C   UNL     1     -10.404   7.544  68.070  1.00  0.00    -0.204 C  
HETATM   10  C   UNL     1     -10.372   9.080  68.157  1.00  0.00    -0.262 C  
HETATM   11  C   UNL     1     -10.236   9.724  66.776  1.00  0.00    -0.233 C  
HETATM   12  C   UNL     1      -8.916   5.186  69.070  1.00  0.00    -0.123 C  
HETATM   13  C   UNL     1      -9.060   9.119  65.980  1.00  0.00    -0.245 C  
HETATM   14  C   UNL     1      -9.016   7.579  66.110  1.00  0.00    -0.153 C  
HETATM   15  C   UNL     1     -10.333   5.274  71.157  1.00  0.00    -0.291 A  
HETATM   16  C   UNL     1     -10.018   5.800  69.893  1.00  0.00    -0.254 A  
BRANCH   4  17
HETATM   17  O   UNL     1     -13.255   7.274  72.109  1.00  0.00    -0.151 OA 
HETATM   18  C   UNL     1     -13.331   8.669  72.381  1.00  0.00    -0.343 C  
ENDBRANCH   4  17
BRANCH  11  19
HETATM   19  O   UNL     1      -9.993  11.141  66.967  1.00  0.00    -0.186 OA 
BRANCH  19  20
HETATM   20  C   UNL     1     -11.069  11.979  66.996  1.00  0.00    -0.298 C  
HETATM   21  O   UNL     1     -12.066  11.845  66.292  1.00  0.00    -0.535 OA 
BRANCH  20  22
HETATM   22  C   UNL     1     -10.900  13.129  68.027  1.00  0.00    -0.242 C  
HETATM   23  C   UNL     1     -11.871  11.745  69.949  1.00  0.00    -0.423 C  
HETATM   24  C   UNL     1     -11.789  14.216  70.178  1.00  0.00    -0.382 C  
HETATM   25  H2  UNL     1     -11.793  14.556  66.790  1.00  0.00     0.000 HD 
HETATM   26  H1  UNL     1     -10.836  15.202  68.024  1.00  0.00     0.000 HD 
HETATM   27  C   UNL     1     -11.947  13.065  69.171  1.00  0.00    -0.320 C  
HETATM   28  N   UNL     1     -10.946  14.447  67.347  1.00  0.00    -0.292 NA 
ENDBRANCH  20  22
ENDBRANCH  19  20
ENDBRANCH  11  19
BRANCH  13  29
HETATM   29  C   UNL     1      -9.120   9.479  64.472  1.00  0.00    -0.250 C  
HETATM   30  C   UNL     1      -8.288  10.750  62.464  1.00  0.00    -0.249 C  
HETATM   31  C   UNL     1      -6.629   9.888  64.126  1.00  0.00    -0.126 C  
HETATM   32  C   UNL     1      -8.043  10.440  63.943  1.00  0.00    -0.096 C  
ENDBRANCH  13  29
ENDBRANCH   2   3
TORSDOF 6
ENDMDL
MODEL       44
REMARK 921   NORMALIZED FREE ENERGY PREDICTED BY IDOCK:   -5.52 KCAL/MOL
REMARK 922        TOTAL FREE ENERGY PREDICTED BY IDOCK:   -8.27 KCAL/MOL
REMARK 923 INTER-LIGAND FREE ENERGY PREDICTED BY IDOCK:   -7.55 KCAL/MOL
REMARK 924 INTRA-LIGAND FREE ENERGY PREDICTED BY IDOCK:   -0.72 KCAL/MOL
REMARK 927      BINDING AFFINITY PREDICTED BY RF-SCORE:    0.00 PKD
ROOT
HETATM    1  C   UNL     1      -9.597   2.973  64.669  1.00  0.00    -0.138 C  
HETATM    2  O   UNL     1      -8.701   3.448  65.667  1.00  0.00    -0.113 OA 
ENDROOT
BRANCH   2   3
HETATM    3  C   UNL     1      -8.929   4.710  66.153  1.00  0.00    -0.121 A  
HETATM    4  C   UNL     1      -8.669   5.927  65.509  1.00  0.00    -0.129 A  
HETATM    5  C   UNL     1      -9.004   7.115  66.162  1.00  0.00    -0.168 A  
HETATM    6  N   UNL     1     -10.842   8.338  69.266  1.00  0.00    -0.118 NA 
HETATM    7  C   UNL     1      -9.617   7.132  67.426  1.00  0.00    -0.168 A  
HETATM    8  C   UNL     1     -10.340   7.294  70.170  1.00  0.00    -0.212 C  
HETATM    9  C   UNL     1      -9.993   8.466  68.062  1.00  0.00    -0.182 C  
HETATM   10  C   UNL     1     -10.771   9.370  67.088  1.00  0.00    -0.234 C  
HETATM   11  C   UNL     1     -10.981  10.772  67.661  1.00  0.00    -0.306 C  
HETATM   12  C   UNL     1     -10.307   5.904  69.514  1.00  0.00    -0.314 C  
HETATM   13  C   UNL     1     -11.583  10.722  69.080  1.00  0.00    -0.376 C  
HETATM   14  C   UNL     1     -10.904   9.639  69.949  1.00  0.00    -0.256 C  
HETATM   15  C   UNL     1      -9.450   4.721  67.456  1.00  0.00    -0.171 A  
HETATM   16  C   UNL     1      -9.777   5.923  68.105  1.00  0.00    -0.143 A  
BRANCH   4  17
HETATM   17  O   UNL     1      -8.030   5.921  64.295  1.00  0.00    -0.113 OA 
HETATM   18  C   UNL     1      -6.978   6.864  64.128  1.00  0.00    -0.052 C  
ENDBRANCH   4  17
BRANCH  11  19
HETATM   19  O   UNL     1     -11.898  11.478  66.786  1.00  0.00    -0.511 OA 
BRANCH  19  20
HETATM   20  C   UNL     1     -11.401  12.030  65.643  1.00  0.00    -0.329 C  
HETATM   21  O   UNL     1     -10.906  11.383  64.724  1.00  0.00    -0.306 OA 
BRANCH  20  22
HETATM   22  C   UNL     1     -11.530  13.578  65.624  1.00  0.00    -0.315 C  
HETATM   23  C   UNL     1      -9.252  13.928  66.736  1.00  0.00    -0.267 C  
HETATM   24  C   UNL     1     -10.896  15.789  66.768  1.00  0.00    -0.254 C  
HETATM   25  H2  UNL     1     -13.455  13.567  66.436  1.00  0.00     0.000 HD 
HETATM   26  H1  UNL     1     -13.043  14.997  65.635  1.00  0.00     0.000 HD 
HETATM   27  C   UNL     1     -10.749  14.258  66.779  1.00  0.00    -0.287 C  
HETATM   28  N   UNL     1     -12.958  13.980  65.647  1.00  0.00    -0.614 NA 
ENDBRANCH  20  22
ENDBRANCH  19  20
ENDBRANCH  11  19
BRANCH  13  29
HETATM   29  C   UNL     1     -11.468  12.082  69.819  1.00  0.00    -0.284 C  
HETATM   30  C   UNL     1     -12.448  13.930  71.221  1.00  0.00    -0.440 C  
HETATM   31  C   UNL     1     -13.074  11.562  71.728  1.00  0.00    -0.503 C  
HETATM   32  C   UNL     1     -12.697  12.544  70.619  1.00  0.00    -0.132 C  
ENDBRANCH  13  29
ENDBRANCH   2   3
TORSDOF 6
ENDMDL
MODEL       45
REMARK 921   NORMALIZED FREE ENERGY PREDICTED BY IDOCK:   -5.51 KCAL/MOL
REMARK 922        TOTAL FREE ENERGY PREDICTED BY IDOCK:   -8.26 KCAL/MOL
REMARK 923 INTER-LIGAND FREE ENERGY PREDICTED BY IDOCK:   -8.82 KCAL/MOL
REMARK 924 INTRA-LIGAND FREE ENERGY PREDICTED BY IDOCK:    0.56 KCAL/MOL
REMARK 927      BINDING AFFINITY PREDICTED BY RF-SCORE:    0.00 PKD
ROOT
HETATM    1  C   UNL     1     -12.008   9.414  71.605  1.00  0.00    -0.393 C  
HETATM    2  O   UNL     1     -12.998  10.133  70.877  1.00  0.00    -0.365 OA 
ENDROOT
BRANCH   2   3
HETATM    3  C   UNL     1     -12.611  11.323  70.318  1.00  0.00    -0.177 A  
HETATM    4  C   UNL     1     -12.573  12.580  70.940  1.00  0.00    -0.241 A  
HETATM    5  C   UNL     1     -12.114  13.675  70.206  1.00  0.00    -0.427 A  
HETATM    6  N   UNL     1     -10.478  14.491  66.865  1.00  0.00    -0.267 NA 
HETATM    7  C   UNL     1     -11.665  13.559  68.879  1.00  0.00    -0.379 A  
HETATM    8  C   UNL     1     -11.261  13.537  66.066  1.00  0.00    -0.295 C  
HETATM    9  C   UNL     1     -11.139  14.791  68.153  1.00  0.00    -0.278 C  
HETATM   10  C   UNL     1     -10.103  15.559  68.994  1.00  0.00    -0.234 C  
HETATM   11  C   UNL     1      -9.719  16.889  68.346  1.00  0.00    -0.263 C  
HETATM   12  C   UNL     1     -11.460  12.188  66.777  1.00  0.00    -0.418 C  
HETATM   13  C   UNL     1      -9.310  16.706  66.869  1.00  0.00    -0.246 C  
HETATM   14  C   UNL     1     -10.269  15.746  66.128  1.00  0.00    -0.315 C  
HETATM   15  C   UNL     1     -12.257  11.217  68.965  1.00  0.00    -0.194 A  
HETATM   16  C   UNL     1     -11.804  12.328  68.235  1.00  0.00    -0.367 A  
BRANCH   4  17
HETATM   17  O   UNL     1     -13.051  12.711  72.218  1.00  0.00    -0.398 OA 
HETATM   18  C   UNL     1     -13.436  14.021  72.620  1.00  0.00    -0.547 C  
ENDBRANCH   4  17
BRANCH  11  19
HETATM   19  O   UNL     1      -8.593  17.434  69.080  1.00  0.00    -0.189 OA 
BRANCH  19  20
HETATM   20  C   UNL     1      -7.400  16.778  69.007  1.00  0.00    -0.231 C  
HETATM   21  O   UNL     1      -7.204  15.654  69.462  1.00  0.00    -0.200 OA 
BRANCH  20  22
HETATM   22  C   UNL     1      -6.307  17.606  68.279  1.00  0.00    -0.183 C  
HETATM   23  C   UNL     1      -6.910  19.763  69.517  1.00  0.00    -0.340 C  
HETATM   24  C   UNL     1      -5.604  19.920  67.410  1.00  0.00    -0.183 C  
HETATM   25  H2  UNL     1      -6.857  16.925  66.381  1.00  0.00     0.000 HD 
HETATM   26  H1  UNL     1      -5.296  17.566  66.468  1.00  0.00     0.000 HD 
HETATM   27  C   UNL     1      -6.680  19.107  68.149  1.00  0.00    -0.264 C  
HETATM   28  N   UNL     1      -6.014  17.022  66.947  1.00  0.00    -0.178 NA 
ENDBRANCH  20  22
ENDBRANCH  19  20
ENDBRANCH  11  19
BRANCH  13  29
HETATM   29  C   UNL     1      -9.273  18.050  66.096  1.00  0.00    -0.132 C  
HETATM   30  C   UNL     1     -10.338  20.207  65.351  1.00  0.00    -0.071 C  
HETATM   31  C   UNL     1     -10.758  19.387  67.677  1.00  0.00    -0.536 C  
HETATM   32  C   UNL     1     -10.502  18.964  66.230  1.00  0.00    -0.510 C  
ENDBRANCH  13  29
ENDBRANCH   2   3
TORSDOF 6
ENDMDL
MODEL       46
REMARK 921   NORMALIZED FREE ENERGY PREDICTED BY IDOCK:   -5.43 KCAL/MOL
REMARK 922        TOTAL FREE ENERGY PREDICTED BY IDOCK:   -8.16 KCAL/MOL
REMARK 923 INTER-LIGAND FREE ENERGY PREDICTED BY IDOCK:   -7.10 KCAL/MOL
REMARK 924 INTRA-LIGAND FREE ENERGY PREDICTED BY IDOCK:   -1.06 KCAL/MOL
REMARK 927      BINDING AFFINITY PREDICTED BY RF-SCORE:    0.00 PKD
ROOT
HETATM    1  C   UNL     1      -6.115   8.277  71.464  1.00  0.00    -0.040 C  
HETATM    2  O   UNL     1      -6.162   8.318  70.042  1.00  0.00    -0.034 OA 
ENDROOT
BRANCH   2   3
HETATM    3  C   UNL     1      -6.468   9.526  69.469  1.00  0.00    -0.044 A  
HETATM    4  C   UNL     1      -7.102   9.744  68.237  1.00  0.00    -0.077 A  
HETATM    5  C   UNL     1      -7.357  11.058  67.840  1.00  0.00    -0.092 A  
HETATM    6  N   UNL     1      -7.193  14.615  69.190  1.00  0.00    -0.134 NA 
HETATM    7  C   UNL     1      -7.026  12.165  68.640  1.00  0.00    -0.097 A  
HETATM    8  C   UNL     1      -5.920  14.457  69.906  1.00  0.00    -0.132 C  
HETATM    9  C   UNL     1      -7.371  13.570  68.160  1.00  0.00    -0.121 C  
HETATM   10  C   UNL     1      -8.834  13.676  67.693  1.00  0.00    -0.194 C  
HETATM   11  C   UNL     1      -9.124  15.028  67.039  1.00  0.00    -0.230 C  
HETATM   12  C   UNL     1      -5.811  13.107  70.635  1.00  0.00    -0.143 C  
HETATM   13  C   UNL     1      -8.667  16.201  67.932  1.00  0.00    -0.174 C  
HETATM   14  C   UNL     1      -7.275  15.938  68.551  1.00  0.00    -0.128 C  
HETATM   15  C   UNL     1      -6.046  10.628  70.228  1.00  0.00    -0.123 A  
HETATM   16  C   UNL     1      -6.302  11.945  69.813  1.00  0.00    -0.118 A  
BRANCH   4  17
HETATM   17  O   UNL     1      -7.388   8.673  67.431  1.00  0.00    -0.086 OA 
HETATM   18  C   UNL     1      -8.009   8.966  66.184  1.00  0.00    -0.106 C  
ENDBRANCH   4  17
BRANCH  11  19
HETATM   19  O   UNL     1     -10.556  15.126  66.834  1.00  0.00    -0.285 OA 
BRANCH  19  20
HETATM   20  C   UNL     1     -11.028  15.056  65.556  1.00  0.00    -0.358 C  
HETATM   21  O   UNL     1     -10.771  15.877  64.680  1.00  0.00    -0.553 OA 
BRANCH  20  22
HETATM   22  C   UNL     1     -11.931  13.813  65.322  1.00  0.00    -0.374 C  
HETATM   23  C   UNL     1     -10.172  12.623  63.894  1.00  0.00    -0.340 C  
HETATM   24  C   UNL     1     -12.537  11.881  63.741  1.00  0.00    -0.509 C  
HETATM   25  H2  UNL     1     -13.593  14.952  64.766  1.00  0.00     0.000 HD 
HETATM   26  H1  UNL     1     -13.957  13.374  65.250  1.00  0.00     0.000 HD 
HETATM   27  C   UNL     1     -11.628  13.098  63.978  1.00  0.00    -0.481 C  
HETATM   28  N   UNL     1     -13.364  14.190  65.404  1.00  0.00    -0.580 NA 
ENDBRANCH  20  22
ENDBRANCH  19  20
ENDBRANCH  11  19
BRANCH  13  29
HETATM   29  C   UNL     1      -8.609  17.544  67.158  1.00  0.00    -0.238 C  
HETATM   30  C   UNL     1      -9.624  19.738  66.450  1.00  0.00    -0.508 C  
HETATM   31  C   UNL     1      -9.992  18.930  68.789  1.00  0.00    -0.466 C  
HETATM   32  C   UNL     1      -9.801  18.500  67.334  1.00  0.00    -0.330 C  
ENDBRANCH  13  29
ENDBRANCH   2   3
TORSDOF 6
ENDMDL
MODEL       47
REMARK 921   NORMALIZED FREE ENERGY PREDICTED BY IDOCK:   -5.43 KCAL/MOL
REMARK 922        TOTAL FREE ENERGY PREDICTED BY IDOCK:   -8.15 KCAL/MOL
REMARK 923 INTER-LIGAND FREE ENERGY PREDICTED BY IDOCK:   -7.35 KCAL/MOL
REMARK 924 INTRA-LIGAND FREE ENERGY PREDICTED BY IDOCK:   -0.80 KCAL/MOL
REMARK 927      BINDING AFFINITY PREDICTED BY RF-SCORE:    0.00 PKD
ROOT
HETATM    1  C   UNL     1      -6.271   6.694  72.866  1.00  0.00    -0.054 C  
HETATM    2  O   UNL     1      -7.472   6.165  72.316  1.00  0.00    -0.092 OA 
ENDROOT
BRANCH   2   3
HETATM    3  C   UNL     1      -8.178   6.982  71.471  1.00  0.00    -0.108 A  
HETATM    4  C   UNL     1      -9.086   7.990  71.827  1.00  0.00    -0.158 A  
HETATM    5  C   UNL     1      -9.683   8.740  70.812  1.00  0.00    -0.257 A  
HETATM    6  N   UNL     1      -9.473   9.275  67.047  1.00  0.00    -0.153 NA 
HETATM    7  C   UNL     1      -9.388   8.540  69.453  1.00  0.00    -0.154 A  
HETATM    8  C   UNL     1      -9.282   7.861  66.695  1.00  0.00    -0.177 C  
HETATM    9  C   UNL     1     -10.047   9.424  68.401  1.00  0.00    -0.185 C  
HETATM   10  C   UNL     1      -9.931  10.919  68.750  1.00  0.00    -0.203 C  
HETATM   11  C   UNL     1     -10.752  11.789  67.798  1.00  0.00    -0.205 C  
HETATM   12  C   UNL     1      -8.326   7.133  67.654  1.00  0.00    -0.117 C  
HETATM   13  C   UNL     1     -10.440  11.468  66.321  1.00  0.00    -0.294 C  
HETATM   14  C   UNL     1     -10.352   9.944  66.076  1.00  0.00    -0.132 C  
HETATM   15  C   UNL     1      -7.952   6.710  70.113  1.00  0.00    -0.112 A  
HETATM   16  C   UNL     1      -8.565   7.468  69.102  1.00  0.00    -0.136 A  
BRANCH   4  17
HETATM   17  O   UNL     1      -9.414   8.162  73.147  1.00  0.00    -0.267 OA 
HETATM   18  C   UNL     1     -10.423   7.303  73.666  1.00  0.00    -0.344 C  
ENDBRANCH   4  17
BRANCH  11  19
HETATM   19  O   UNL     1     -10.414  13.176  68.057  1.00  0.00    -0.226 OA 
BRANCH  19  20
HETATM   20  C   UNL     1     -11.417  14.024  68.427  1.00  0.00    -0.306 C  
HETATM   21  O   UNL     1     -12.397  14.276  67.731  1.00  0.00    -0.247 OA 
BRANCH  20  22
HETATM   22  C   UNL     1     -11.189  14.640  69.835  1.00  0.00    -0.231 C  
HETATM   23  C   UNL     1     -12.594  12.850  71.006  1.00  0.00    -0.376 C  
HETATM   24  C   UNL     1     -12.140  14.982  72.196  1.00  0.00    -0.456 C  
HETATM   25  H2  UNL     1     -11.683  16.575  69.221  1.00  0.00     0.000 HD 
HETATM   26  H1  UNL     1     -10.788  16.503  70.653  1.00  0.00     0.000 HD 
HETATM   27  C   UNL     1     -12.361  14.354  70.810  1.00  0.00    -0.417 C  
HETATM   28  N   UNL     1     -10.938  16.098  69.728  1.00  0.00    -0.327 NA 
ENDBRANCH  20  22
ENDBRANCH  19  20
ENDBRANCH  11  19
BRANCH  13  29
HETATM   29  C   UNL     1     -11.498  12.057  65.352  1.00  0.00    -0.361 C  
HETATM   30  C   UNL     1     -12.131  13.300  63.255  1.00  0.00    -0.407 C  
HETATM   31  C   UNL     1     -10.195  11.717  63.188  1.00  0.00    -0.396 C  
HETATM   32  C   UNL     1     -10.972  12.704  64.059  1.00  0.00    -0.448 C  
ENDBRANCH  13  29
ENDBRANCH   2   3
TORSDOF 6
ENDMDL
MODEL       48
REMARK 921   NORMALIZED FREE ENERGY PREDICTED BY IDOCK:   -5.42 KCAL/MOL
REMARK 922        TOTAL FREE ENERGY PREDICTED BY IDOCK:   -8.14 KCAL/MOL
REMARK 923 INTER-LIGAND FREE ENERGY PREDICTED BY IDOCK:   -7.06 KCAL/MOL
REMARK 924 INTRA-LIGAND FREE ENERGY PREDICTED BY IDOCK:   -1.08 KCAL/MOL
REMARK 927      BINDING AFFINITY PREDICTED BY RF-SCORE:    0.00 PKD
ROOT
HETATM    1  C   UNL     1     -12.354  13.507  63.752  1.00  0.00    -0.327 C  
HETATM    2  O   UNL     1     -11.234  13.624  64.623  1.00  0.00    -0.343 OA 
ENDROOT
BRANCH   2   3
HETATM    3  C   UNL     1     -11.063  12.627  65.548  1.00  0.00    -0.294 A  
HETATM    4  C   UNL     1     -10.501  11.360  65.335  1.00  0.00    -0.280 A  
HETATM    5  C   UNL     1     -10.385  10.489  66.420  1.00  0.00    -0.283 A  
HETATM    6  N   UNL     1     -10.821  10.442  70.203  1.00  0.00    -0.288 NA 
HETATM    7  C   UNL     1     -10.784  10.846  67.719  1.00  0.00    -0.279 A  
HETATM    8  C   UNL     1     -12.045  11.254  70.233  1.00  0.00    -0.373 C  
HETATM    9  C   UNL     1     -10.589   9.859  68.864  1.00  0.00    -0.218 C  
HETATM   10  C   UNL     1      -9.162   9.284  68.892  1.00  0.00    -0.143 C  
HETATM   11  C   UNL     1      -9.024   8.159  69.919  1.00  0.00    -0.143 C  
HETATM   12  C   UNL     1     -12.001  12.435  69.249  1.00  0.00    -0.308 C  
HETATM   13  C   UNL     1      -9.551   8.587  71.305  1.00  0.00    -0.264 C  
HETATM   14  C   UNL     1     -10.887   9.357  71.194  1.00  0.00    -0.357 C  
HETATM   15  C   UNL     1     -11.554  12.954  66.820  1.00  0.00    -0.416 A  
HETATM   16  C   UNL     1     -11.437  12.067  67.902  1.00  0.00    -0.396 A  
BRANCH   4  17
HETATM   17  O   UNL     1     -10.150  10.986  64.063  1.00  0.00    -0.291 OA 
HETATM   18  C   UNL     1      -9.018  10.132  63.944  1.00  0.00    -0.244 C  
ENDBRANCH   4  17
BRANCH  11  19
HETATM   19  O   UNL     1      -7.616   7.830  70.034  1.00  0.00    -0.082 OA 
BRANCH  19  20
HETATM   20  C   UNL     1      -7.161   6.716  69.393  1.00  0.00    -0.090 C  
HETATM   21  O   UNL     1      -5.983   6.516  69.109  1.00  0.00    -0.020 OA 
BRANCH  20  22
HETATM   22  C   UNL     1      -8.301   5.715  69.057  1.00  0.00    -0.100 C  
HETATM   23  C   UNL     1      -7.883   4.310  71.155  1.00  0.00    -0.071 C  
HETATM   24  C   UNL     1      -9.160   3.304  69.278  1.00  0.00    -0.200 C  
HETATM   25  H2  UNL     1      -7.668   5.439  67.085  1.00  0.00     0.000 HD 
HETATM   26  H1  UNL     1      -9.274   4.999  67.371  1.00  0.00     0.000 HD 
HETATM   27  C   UNL     1      -8.039   4.297  69.629  1.00  0.00    -0.062 C  
HETATM   28  N   UNL     1      -8.526   5.657  67.592  1.00  0.00    -0.103 NA 
ENDBRANCH  20  22
ENDBRANCH  19  20
ENDBRANCH  11  19
BRANCH  13  29
HETATM   29  C   UNL     1      -9.763   7.379  72.255  1.00  0.00    -0.191 C  
HETATM   30  C   UNL     1     -11.215   5.589  73.271  1.00  0.00    -0.282 C  
HETATM   31  C   UNL     1     -11.497   6.149  70.849  1.00  0.00    -0.317 C  
HETATM   32  C   UNL     1     -11.147   6.708  72.228  1.00  0.00    -0.292 C  
ENDBRANCH  13  29
ENDBRANCH   2   3
TORSDOF 6
ENDMDL
MODEL       49
REMARK 921   NORMALIZED FREE ENERGY PREDICTED BY IDOCK:   -5.41 KCAL/MOL
REMARK 922        TOTAL FREE ENERGY PREDICTED BY IDOCK:   -8.13 KCAL/MOL
REMARK 923 INTER-LIGAND FREE ENERGY PREDICTED BY IDOCK:   -7.85 KCAL/MOL
REMARK 924 INTRA-LIGAND FREE ENERGY PREDICTED BY IDOCK:   -0.28 KCAL/MOL
REMARK 927      BINDING AFFINITY PREDICTED BY RF-SCORE:    0.00 PKD
ROOT
HETATM    1  C   UNL     1     -10.778  18.377  66.238  1.00  0.00    -0.179 C  
HETATM    2  O   UNL     1     -10.604  17.392  65.225  1.00  0.00    -0.667 OA 
ENDROOT
BRANCH   2   3
HETATM    3  C   UNL     1     -10.254  16.133  65.641  1.00  0.00    -0.364 A  
HETATM    4  C   UNL     1      -9.505  15.793  66.776  1.00  0.00    -0.240 A  
HETATM    5  C   UNL     1      -9.279  14.442  67.048  1.00  0.00    -0.246 A  
HETATM    6  N   UNL     1     -10.340  10.989  65.839  1.00  0.00    -0.255 NA 
HETATM    7  C   UNL     1      -9.797  13.414  66.242  1.00  0.00    -0.295 A  
HETATM    8  C   UNL     1     -10.321  11.309  64.405  1.00  0.00    -0.329 C  
HETATM    9  C   UNL     1      -9.545  11.960  66.622  1.00  0.00    -0.209 C  
HETATM   10  C   UNL     1      -9.874  11.685  68.101  1.00  0.00    -0.191 C  
HETATM   11  C   UNL     1      -9.444  10.281  68.526  1.00  0.00    -0.158 C  
HETATM   12  C   UNL     1     -10.907  12.697  64.097  1.00  0.00    -0.431 C  
HETATM   13  C   UNL     1      -9.979   9.205  67.558  1.00  0.00    -0.258 C  
HETATM   14  C   UNL     1      -9.819   9.636  66.082  1.00  0.00    -0.265 C  
HETATM   15  C   UNL     1     -10.690  15.118  64.778  1.00  0.00    -0.344 A  
HETATM   16  C   UNL     1     -10.451  13.763  65.058  1.00  0.00    -0.418 A  
BRANCH   4  17
HETATM   17  O   UNL     1      -8.958  16.789  67.543  1.00  0.00    -0.203 OA 
HETATM   18  C   UNL     1      -7.538  16.885  67.538  1.00  0.00    -0.165 C  
ENDBRANCH   4  17
BRANCH  11  19
HETATM   19  O   UNL     1      -9.984  10.031  69.849  1.00  0.00    -0.237 OA 
BRANCH  19  20
HETATM   20  C   UNL     1      -9.175   9.435  70.771  1.00  0.00    -0.213 C  
HETATM   21  O   UNL     1      -7.948   9.449  70.723  1.00  0.00    -0.182 OA 
BRANCH  20  22
HETATM   22  C   UNL     1      -9.976   8.732  71.902  1.00  0.00    -0.331 C  
HETATM   23  C   UNL     1      -8.458   6.672  71.898  1.00  0.00    -0.114 C  
HETATM   24  C   UNL     1     -10.712   6.493  72.924  1.00  0.00    -0.280 C  
HETATM   25  H2  UNL     1     -11.826   9.062  70.986  1.00  0.00     0.000 HD 
HETATM   26  H1  UNL     1     -11.914   8.728  72.641  1.00  0.00     0.000 HD 
HETATM   27  C   UNL     1      -9.901   7.185  71.816  1.00  0.00    -0.171 C  
HETATM   28  N   UNL     1     -11.388   9.190  71.898  1.00  0.00    -0.375 NA 
ENDBRANCH  20  22
ENDBRANCH  19  20
ENDBRANCH  11  19
BRANCH  13  29
HETATM   29  C   UNL     1      -9.271   7.837  67.746  1.00  0.00    -0.143 C  
HETATM   30  C   UNL     1      -9.283   5.411  68.422  1.00  0.00    -0.128 C  
HETATM   31  C   UNL     1     -11.276   6.350  67.234  1.00  0.00    -0.295 C  
HETATM   32  C   UNL     1     -10.144   6.661  68.214  1.00  0.00    -0.170 C  
ENDBRANCH  13  29
ENDBRANCH   2   3
TORSDOF 6
ENDMDL
MODEL       50
REMARK 921   NORMALIZED FREE ENERGY PREDICTED BY IDOCK:   -5.36 KCAL/MOL
REMARK 922        TOTAL FREE ENERGY PREDICTED BY IDOCK:   -8.06 KCAL/MOL
REMARK 923 INTER-LIGAND FREE ENERGY PREDICTED BY IDOCK:   -6.98 KCAL/MOL
REMARK 924 INTRA-LIGAND FREE ENERGY PREDICTED BY IDOCK:   -1.08 KCAL/MOL
REMARK 927      BINDING AFFINITY PREDICTED BY RF-SCORE:    0.00 PKD
ROOT
HETATM    1  C   UNL     1     -12.349  13.517  65.298  1.00  0.00    -0.467 C  
HETATM    2  O   UNL     1     -11.272  13.658  66.219  1.00  0.00    -0.299 OA 
ENDROOT
BRANCH   2   3
HETATM    3  C   UNL     1     -11.033  12.600  67.057  1.00  0.00    -0.265 A  
HETATM    4  C   UNL     1     -10.107  11.563  66.871  1.00  0.00    -0.212 A  
HETATM    5  C   UNL     1      -9.989  10.587  67.863  1.00  0.00    -0.193 A  
HETATM    6  N   UNL     1     -11.202   9.828  71.393  1.00  0.00    -0.352 NA 
HETATM    7  C   UNL     1     -10.744  10.621  69.048  1.00  0.00    -0.257 A  
HETATM    8  C   UNL     1     -12.581  10.296  71.192  1.00  0.00    -0.400 C  
HETATM    9  C   UNL     1     -10.533   9.544  70.105  1.00  0.00    -0.255 C  
HETATM   10  C   UNL     1      -9.042   9.344  70.436  1.00  0.00    -0.302 C  
HETATM   11  C   UNL     1      -8.821   8.140  71.352  1.00  0.00    -0.149 C  
HETATM   12  C   UNL     1     -12.656  11.592  70.368  1.00  0.00    -0.238 C  
HETATM   13  C   UNL     1      -9.733   8.196  72.595  1.00  0.00    -0.360 C  
HETATM   14  C   UNL     1     -11.174   8.617  72.226  1.00  0.00    -0.328 C  
HETATM   15  C   UNL     1     -11.859  12.587  68.190  1.00  0.00    -0.371 A  
HETATM   16  C   UNL     1     -11.735  11.595  69.177  1.00  0.00    -0.390 A  
BRANCH   4  17
HETATM   17  O   UNL     1      -9.400  11.497  65.699  1.00  0.00    -0.224 OA 
HETATM   18  C   UNL     1      -9.946  10.672  64.675  1.00  0.00    -0.337 C  
ENDBRANCH   4  17
BRANCH  11  19
HETATM   19  O   UNL     1      -7.437   8.157  71.785  1.00  0.00    -0.074 OA 
BRANCH  19  20
HETATM   20  C   UNL     1      -6.586   7.233  71.253  1.00  0.00    -0.043 C  
HETATM   21  O   UNL     1      -6.129   7.292  70.115  1.00  0.00    -0.024 OA 
BRANCH  20  22
HETATM   22  C   UNL     1      -6.248   6.091  72.251  1.00  0.00    -0.042 C  
HETATM   23  C   UNL     1      -7.321   4.292  70.780  1.00  0.00    -0.044 C  
HETATM   24  C   UNL     1      -6.933   3.797  73.182  1.00  0.00    -0.049 C  
HETATM   25  H2  UNL     1      -6.999   7.124  73.905  1.00  0.00     0.000 HD 
HETATM   26  H1  UNL     1      -5.933   5.870  74.289  1.00  0.00     0.000 HD 
HETATM   27  C   UNL     1      -7.260   4.916  72.180  1.00  0.00    -0.080 C  
HETATM   28  N   UNL     1      -6.155   6.620  73.634  1.00  0.00    -0.062 NA 
ENDBRANCH  20  22
ENDBRANCH  19  20
ENDBRANCH  11  19
BRANCH  13  29
HETATM   29  C   UNL     1      -9.799   6.837  73.341  1.00  0.00    -0.230 C  
HETATM   30  C   UNL     1     -10.880   4.606  73.787  1.00  0.00    -0.378 C  
HETATM   31  C   UNL     1     -10.784   5.459  71.437  1.00  0.00    -0.258 C  
HETATM   32  C   UNL     1     -10.905   5.860  72.908  1.00  0.00    -0.293 C  
ENDBRANCH  13  29
ENDBRANCH   2   3
TORSDOF 6
ENDMDL
MODEL       51
REMARK 921   NORMALIZED FREE ENERGY PREDICTED BY IDOCK:   -5.31 KCAL/MOL
REMARK 922        TOTAL FREE ENERGY PREDICTED BY IDOCK:   -7.99 KCAL/MOL
REMARK 923 INTER-LIGAND FREE ENERGY PREDICTED BY IDOCK:   -6.83 KCAL/MOL
REMARK 924 INTRA-LIGAND FREE ENERGY PREDICTED BY IDOCK:   -1.16 KCAL/MOL
REMARK 927      BINDING AFFINITY PREDICTED BY RF-SCORE:    0.00 PKD
ROOT
HETATM    1  C   UNL     1      -7.298   6.794  71.035  1.00  0.00    -0.078 C  
HETATM    2  O   UNL     1      -8.023   6.961  69.821  1.00  0.00    -0.119 OA 
ENDROOT
BRANCH   2   3
HETATM    3  C   UNL     1      -7.986   8.205  69.246  1.00  0.00    -0.115 A  
HETATM    4  C   UNL     1      -8.639   8.619  68.076  1.00  0.00    -0.137 A  
HETATM    5  C   UNL     1      -8.501   9.947  67.667  1.00  0.00    -0.114 A  
HETATM    6  N   UNL     1      -7.079  13.261  68.891  1.00  0.00    -0.099 NA 
HETATM    7  C   UNL     1      -7.756  10.887  68.398  1.00  0.00    -0.116 A  
HETATM    8  C   UNL     1      -5.856  12.701  69.484  1.00  0.00    -0.105 C  
HETATM    9  C   UNL     1      -7.683  12.330  67.914  1.00  0.00    -0.133 C  
HETATM   10  C   UNL     1      -9.076  12.900  67.589  1.00  0.00    -0.194 C  
HETATM   11  C   UNL     1      -8.985  14.276  66.927  1.00  0.00    -0.236 C  
HETATM   12  C   UNL     1      -6.109  11.384  70.238  1.00  0.00    -0.145 C  
HETATM   13  C   UNL     1      -8.091  15.239  67.737  1.00  0.00    -0.158 C  
HETATM   14  C   UNL     1      -6.800  14.542  68.225  1.00  0.00    -0.113 C  
HETATM   15  C   UNL     1      -7.160   9.112  69.927  1.00  0.00    -0.056 A  
HETATM   16  C   UNL     1      -7.025  10.443  69.502  1.00  0.00    -0.102 A  
BRANCH   4  17
HETATM   17  O   UNL     1      -9.331   7.698  67.332  1.00  0.00    -0.136 OA 
HETATM   18  C   UNL     1     -10.737   7.640  67.545  1.00  0.00    -0.209 C  
ENDBRANCH   4  17
BRANCH  11  19
HETATM   19  O   UNL     1     -10.325  14.827  66.859  1.00  0.00    -0.262 OA 
BRANCH  19  20
HETATM   20  C   UNL     1     -10.879  15.018  65.627  1.00  0.00    -0.349 C  
HETATM   21  O   UNL     1     -10.617  15.968  64.894  1.00  0.00    -0.587 OA 
BRANCH  20  22
HETATM   22  C   UNL     1     -11.883  13.896  65.245  1.00  0.00    -0.357 C  
HETATM   23  C   UNL     1     -10.168  12.647  63.814  1.00  0.00    -0.281 C  
HETATM   24  C   UNL     1     -12.581  12.165  63.480  1.00  0.00    -0.621 C  
HETATM   25  H2  UNL     1     -13.391  15.238  64.703  1.00  0.00     0.000 HD 
HETATM   26  H1  UNL     1     -13.935  13.673  65.035  1.00  0.00     0.000 HD 
HETATM   27  C   UNL     1     -11.573  13.261  63.864  1.00  0.00    -0.451 C  
HETATM   28  N   UNL     1     -13.275  14.410  65.286  1.00  0.00    -0.501 NA 
ENDBRANCH  20  22
ENDBRANCH  19  20
ENDBRANCH  11  19
BRANCH  13  29
HETATM   29  C   UNL     1      -7.687  16.496  66.922  1.00  0.00    -0.266 C  
HETATM   30  C   UNL     1      -7.845  18.961  66.431  1.00  0.00    -0.296 C  
HETATM   31  C   UNL     1      -7.878  18.194  68.813  1.00  0.00    -0.268 C  
HETATM   32  C   UNL     1      -8.278  17.840  67.380  1.00  0.00    -0.221 C  
ENDBRANCH  13  29
ENDBRANCH   2   3
TORSDOF 6
ENDMDL
MODEL       52
REMARK 921   NORMALIZED FREE ENERGY PREDICTED BY IDOCK:   -5.30 KCAL/MOL
REMARK 922        TOTAL FREE ENERGY PREDICTED BY IDOCK:   -7.98 KCAL/MOL
REMARK 923 INTER-LIGAND FREE ENERGY PREDICTED BY IDOCK:   -8.05 KCAL/MOL
REMARK 924 INTRA-LIGAND FREE ENERGY PREDICTED BY IDOCK:    0.07 KCAL/MOL
REMARK 927      BINDING AFFINITY PREDICTED BY RF-SCORE:    0.00 PKD
ROOT
HETATM    1  C   UNL     1      -7.552   8.323  74.476  1.00  0.00    -0.235 C  
HETATM    2  O   UNL     1      -7.675   7.614  73.248  1.00  0.00    -0.099 OA 
ENDROOT
BRANCH   2   3
HETATM    3  C   UNL     1      -8.312   8.262  72.221  1.00  0.00    -0.169 A  
HETATM    4  C   UNL     1      -9.693   8.445  72.060  1.00  0.00    -0.283 A  
HETATM    5  C   UNL     1     -10.147   9.167  70.954  1.00  0.00    -0.356 A  
HETATM    6  N   UNL     1      -8.814  11.288  68.086  1.00  0.00    -0.152 NA 
HETATM    7  C   UNL     1      -9.271   9.737  70.015  1.00  0.00    -0.266 A  
HETATM    8  C   UNL     1      -7.644  10.448  67.796  1.00  0.00    -0.089 C  
HETATM    9  C   UNL     1      -9.837  10.547  68.854  1.00  0.00    -0.201 C  
HETATM   10  C   UNL     1     -10.858  11.598  69.328  1.00  0.00    -0.203 C  
HETATM   11  C   UNL     1     -11.560  12.277  68.151  1.00  0.00    -0.339 C  
HETATM   12  C   UNL     1      -6.946   9.940  69.069  1.00  0.00    -0.059 C  
HETATM   13  C   UNL     1     -10.548  12.813  67.117  1.00  0.00    -0.249 C  
HETATM   14  C   UNL     1      -9.419  11.793  66.844  1.00  0.00    -0.193 C  
HETATM   15  C   UNL     1      -7.437   8.743  71.236  1.00  0.00    -0.127 A  
HETATM   16  C   UNL     1      -7.907   9.462  70.124  1.00  0.00    -0.148 A  
BRANCH   4  17
HETATM   17  O   UNL     1     -10.556   7.855  72.947  1.00  0.00    -0.326 OA 
HETATM   18  C   UNL     1     -11.882   7.628  72.484  1.00  0.00    -0.263 C  
ENDBRANCH   4  17
BRANCH  11  19
HETATM   19  O   UNL     1     -12.330  13.390  68.674  1.00  0.00    -0.203 OA 
BRANCH  19  20
HETATM   20  C   UNL     1     -11.778  14.142  69.669  1.00  0.00    -0.316 C  
HETATM   21  O   UNL     1     -10.721  14.758  69.562  1.00  0.00    -0.241 OA 
BRANCH  20  22
HETATM   22  C   UNL     1     -12.638  14.141  70.963  1.00  0.00    -0.369 C  
HETATM   23  C   UNL     1     -11.688  16.375  71.771  1.00  0.00    -0.395 C  
HETATM   24  C   UNL     1     -12.807  14.888  73.415  1.00  0.00    -0.638 C  
HETATM   25  H2  UNL     1     -12.123  12.179  71.469  1.00  0.00     0.000 HD 
HETATM   26  H1  UNL     1     -13.526  12.749  72.219  1.00  0.00     0.000 HD 
HETATM   27  C   UNL     1     -11.963  14.910  72.130  1.00  0.00    -0.412 C  
HETATM   28  N   UNL     1     -12.962  12.750  71.369  1.00  0.00    -0.329 NA 
ENDBRANCH  20  22
ENDBRANCH  19  20
ENDBRANCH  11  19
BRANCH  13  29
HETATM   29  C   UNL     1     -11.219  13.170  65.765  1.00  0.00    -0.309 C  
HETATM   30  C   UNL     1     -12.353  14.803  64.219  1.00  0.00    -0.345 C  
HETATM   31  C   UNL     1     -10.461  15.601  65.648  1.00  0.00    -0.402 C  
HETATM   32  C   UNL     1     -11.644  14.635  65.565  1.00  0.00    -0.335 C  
ENDBRANCH  13  29
ENDBRANCH   2   3
TORSDOF 6
ENDMDL
MODEL       53
REMARK 921   NORMALIZED FREE ENERGY PREDICTED BY IDOCK:   -5.21 KCAL/MOL
REMARK 922        TOTAL FREE ENERGY PREDICTED BY IDOCK:   -7.85 KCAL/MOL
REMARK 923 INTER-LIGAND FREE ENERGY PREDICTED BY IDOCK:   -8.07 KCAL/MOL
REMARK 924 INTRA-LIGAND FREE ENERGY PREDICTED BY IDOCK:    0.21 KCAL/MOL
REMARK 927      BINDING AFFINITY PREDICTED BY RF-SCORE:    0.00 PKD
ROOT
HETATM    1  C   UNL     1      -8.348   3.776  66.294  1.00  0.00    -0.105 C  
HETATM    2  O   UNL     1      -8.758   4.472  67.466  1.00  0.00    -0.103 OA 
ENDROOT
BRANCH   2   3
HETATM    3  C   UNL     1      -9.222   5.751  67.295  1.00  0.00    -0.110 A  
HETATM    4  C   UNL     1     -10.279   6.369  67.978  1.00  0.00    -0.164 A  
HETATM    5  C   UNL     1     -10.580   7.700  67.681  1.00  0.00    -0.294 A  
HETATM    6  N   UNL     1      -9.216  10.641  65.682  1.00  0.00    -0.187 NA 
HETATM    7  C   UNL     1      -9.846   8.447  66.744  1.00  0.00    -0.329 A  
HETATM    8  C   UNL     1      -8.801   9.858  64.509  1.00  0.00    -0.209 C  
HETATM    9  C   UNL     1     -10.206   9.909  66.500  1.00  0.00    -0.222 C  
HETATM   10  C   UNL     1     -10.337  10.697  67.816  1.00  0.00    -0.239 C  
HETATM   11  C   UNL     1     -10.880  12.107  67.580  1.00  0.00    -0.243 C  
HETATM   12  C   UNL     1      -8.145   8.520  64.888  1.00  0.00    -0.145 C  
HETATM   13  C   UNL     1     -10.082  12.848  66.486  1.00  0.00    -0.263 C  
HETATM   14  C   UNL     1      -9.790  11.932  65.275  1.00  0.00    -0.230 C  
HETATM   15  C   UNL     1      -8.549   6.459  66.288  1.00  0.00    -0.140 A  
HETATM   16  C   UNL     1      -8.866   7.796  65.994  1.00  0.00    -0.189 A  
BRANCH   4  17
HETATM   17  O   UNL     1     -11.028   5.635  68.861  1.00  0.00    -0.235 OA 
HETATM   18  C   UNL     1     -11.405   6.288  70.069  1.00  0.00    -0.416 C  
ENDBRANCH   4  17
BRANCH  11  19
HETATM   19  O   UNL     1     -10.764  12.844  68.824  1.00  0.00    -0.247 OA 
BRANCH  19  20
HETATM   20  C   UNL     1     -11.790  12.760  69.718  1.00  0.00    -0.310 C  
HETATM   21  O   UNL     1     -12.458  11.747  69.908  1.00  0.00    -0.148 OA 
BRANCH  20  22
HETATM   22  C   UNL     1     -12.026  14.093  70.482  1.00  0.00    -0.323 C  
HETATM   23  C   UNL     1     -13.520  12.990  72.242  1.00  0.00    -0.645 C  
HETATM   24  C   UNL     1     -13.628  15.455  71.958  1.00  0.00    -0.588 C  
HETATM   25  H2  UNL     1     -12.517  15.158  68.752  1.00  0.00     0.000 HD 
HETATM   26  H1  UNL     1     -12.055  16.123  70.060  1.00  0.00     0.000 HD 
HETATM   27  C   UNL     1     -13.390  14.126  71.220  1.00  0.00    -0.370 C  
HETATM   28  N   UNL     1     -11.900  15.248  69.559  1.00  0.00    -0.328 NA 
ENDBRANCH  20  22
ENDBRANCH  19  20
ENDBRANCH  11  19
BRANCH  13  29
HETATM   29  C   UNL     1     -10.818  14.113  65.973  1.00  0.00    -0.297 C  
HETATM   30  C   UNL     1     -12.262  15.304  64.287  1.00  0.00    -0.205 C  
HETATM   31  C   UNL     1     -12.789  12.929  64.872  1.00  0.00    -0.370 C  
HETATM   32  C   UNL     1     -11.667  13.955  64.700  1.00  0.00    -0.413 C  
ENDBRANCH  13  29
ENDBRANCH   2   3
TORSDOF 6
ENDMDL
MODEL       54
REMARK 921   NORMALIZED FREE ENERGY PREDICTED BY IDOCK:   -5.13 KCAL/MOL
REMARK 922        TOTAL FREE ENERGY PREDICTED BY IDOCK:   -7.74 KCAL/MOL
REMARK 923 INTER-LIGAND FREE ENERGY PREDICTED BY IDOCK:   -6.79 KCAL/MOL
REMARK 924 INTRA-LIGAND FREE ENERGY PREDICTED BY IDOCK:   -0.95 KCAL/MOL
REMARK 927      BINDING AFFINITY PREDICTED BY RF-SCORE:    0.00 PKD
ROOT
HETATM    1  C   UNL     1      -7.890   4.700  72.004  1.00  0.00    -0.099 C  
HETATM    2  O   UNL     1      -9.238   4.906  71.594  1.00  0.00    -0.136 OA 
ENDROOT
BRANCH   2   3
HETATM    3  C   UNL     1      -9.492   6.029  70.850  1.00  0.00    -0.168 A  
HETATM    4  C   UNL     1     -10.650   6.819  70.875  1.00  0.00    -0.220 A  
HETATM    5  C   UNL     1     -10.706   7.951  70.059  1.00  0.00    -0.244 A  
HETATM    6  N   UNL     1      -8.481  10.034  67.776  1.00  0.00    -0.114 NA 
HETATM    7  C   UNL     1      -9.636   8.340  69.236  1.00  0.00    -0.164 A  
HETATM    8  C   UNL     1      -7.780   8.900  67.157  1.00  0.00    -0.095 C  
HETATM    9  C   UNL     1      -9.751   9.610  68.402  1.00  0.00    -0.150 C  
HETATM   10  C   UNL     1     -10.233  10.809  69.240  1.00  0.00    -0.217 C  
HETATM   11  C   UNL     1     -10.527  12.029  68.367  1.00  0.00    -0.219 C  
HETATM   12  C   UNL     1      -7.419   7.800  68.169  1.00  0.00    -0.108 C  
HETATM   13  C   UNL     1      -9.346  12.358  67.431  1.00  0.00    -0.181 C  
HETATM   14  C   UNL     1      -8.761  11.083  66.783  1.00  0.00    -0.152 C  
HETATM   15  C   UNL     1      -8.459   6.355  69.958  1.00  0.00    -0.135 A  
HETATM   16  C   UNL     1      -8.531   7.493  69.137  1.00  0.00    -0.136 A  
BRANCH   4  17
HETATM   17  O   UNL     1     -11.716   6.423  71.641  1.00  0.00    -0.301 OA 
HETATM   18  C   UNL     1     -12.937   7.129  71.442  1.00  0.00    -0.368 C  
ENDBRANCH   4  17
BRANCH  11  19
HETATM   19  O   UNL     1     -10.758  13.160  69.246  1.00  0.00    -0.095 OA 
BRANCH  19  20
HETATM   20  C   UNL     1     -11.972  13.779  69.192  1.00  0.00    -0.361 C  
HETATM   21  O   UNL     1     -12.525  14.122  68.150  1.00  0.00    -0.115 OA 
BRANCH  20  22
HETATM   22  C   UNL     1     -12.590  14.004  70.600  1.00  0.00    -0.344 C  
HETATM   23  C   UNL     1     -11.421  16.258  70.914  1.00  0.00    -0.336 C  
HETATM   24  C   UNL     1     -12.296  15.076  72.915  1.00  0.00    -0.466 C  
HETATM   25  H2  UNL     1     -12.077  12.096  71.282  1.00  0.00     0.000 HD 
HETATM   26  H1  UNL     1     -13.301  12.850  72.170  1.00  0.00     0.000 HD 
HETATM   27  C   UNL     1     -11.690  14.873  71.516  1.00  0.00    -0.394 C  
HETATM   28  N   UNL     1     -12.895  12.703  71.245  1.00  0.00    -0.319 NA 
ENDBRANCH  20  22
ENDBRANCH  19  20
ENDBRANCH  11  19
BRANCH  13  29
HETATM   29  C   UNL     1      -9.745  13.340  66.299  1.00  0.00    -0.274 C  
HETATM   30  C   UNL     1     -10.089  15.671  65.408  1.00  0.00    -0.370 C  
HETATM   31  C   UNL     1      -8.135  15.221  66.904  1.00  0.00    -0.224 C  
HETATM   32  C   UNL     1      -9.583  14.842  66.592  1.00  0.00    -0.289 C  
ENDBRANCH  13  29
ENDBRANCH   2   3
TORSDOF 6
ENDMDL
MODEL       55
REMARK 921   NORMALIZED FREE ENERGY PREDICTED BY IDOCK:   -5.12 KCAL/MOL
REMARK 922        TOTAL FREE ENERGY PREDICTED BY IDOCK:   -7.74 KCAL/MOL
REMARK 923 INTER-LIGAND FREE ENERGY PREDICTED BY IDOCK:   -6.61 KCAL/MOL
REMARK 924 INTRA-LIGAND FREE ENERGY PREDICTED BY IDOCK:   -1.13 KCAL/MOL
REMARK 927      BINDING AFFINITY PREDICTED BY RF-SCORE:    0.00 PKD
ROOT
HETATM    1  C   UNL     1      -7.829   7.387  67.696  1.00  0.00    -0.113 C  
HETATM    2  O   UNL     1      -8.623   8.267  68.485  1.00  0.00    -0.131 OA 
ENDROOT
BRANCH   2   3
HETATM    3  C   UNL     1      -8.391   9.610  68.335  1.00  0.00    -0.117 A  
HETATM    4  C   UNL     1      -9.172  10.530  67.621  1.00  0.00    -0.145 A  
HETATM    5  C   UNL     1      -8.784  11.872  67.613  1.00  0.00    -0.162 A  
HETATM    6  N   UNL     1      -6.266  14.207  69.260  1.00  0.00    -0.097 NA 
HETATM    7  C   UNL     1      -7.658  12.335  68.315  1.00  0.00    -0.133 A  
HETATM    8  C   UNL     1      -5.135  13.270  69.229  1.00  0.00    -0.074 C  
HETATM    9  C   UNL     1      -7.317  13.820  68.295  1.00  0.00    -0.118 C  
HETATM   10  C   UNL     1      -8.540  14.696  68.624  1.00  0.00    -0.172 C  
HETATM   11  C   UNL     1      -8.244  16.183  68.419  1.00  0.00    -0.172 C  
HETATM   12  C   UNL     1      -5.543  11.831  69.586  1.00  0.00    -0.078 C  
HETATM   13  C   UNL     1      -6.955  16.612  69.150  1.00  0.00    -0.227 C  
HETATM   14  C   UNL     1      -5.822  15.577  68.962  1.00  0.00    -0.104 C  
HETATM   15  C   UNL     1      -7.212  10.047  68.956  1.00  0.00    -0.076 A  
HETATM   16  C   UNL     1      -6.829  11.398  68.935  1.00  0.00    -0.089 A  
BRANCH   4  17
HETATM   17  O   UNL     1     -10.246  10.081  66.897  1.00  0.00    -0.216 OA 
HETATM   18  C   UNL     1     -10.027   9.865  65.507  1.00  0.00    -0.292 C  
ENDBRANCH   4  17
BRANCH  11  19
HETATM   19  O   UNL     1      -9.360  16.937  68.956  1.00  0.00    -0.255 OA 
BRANCH  19  20
HETATM   20  C   UNL     1     -10.447  17.134  68.156  1.00  0.00    -0.366 C  
HETATM   21  O   UNL     1     -11.575  16.721  68.412  1.00  0.00    -0.097 OA 
BRANCH  20  22
HETATM   22  C   UNL     1     -10.106  17.946  66.876  1.00  0.00    -0.348 C  
HETATM   23  C   UNL     1     -10.290  20.198  68.079  1.00  0.00    -0.449 C  
HETATM   24  C   UNL     1     -10.421  20.154  65.600  1.00  0.00    -0.323 C  
HETATM   25  H2  UNL     1     -11.486  16.920  65.689  1.00  0.00     0.000 HD 
HETATM   26  H1  UNL     1     -10.279  17.726  64.821  1.00  0.00     0.000 HD 
HETATM   27  C   UNL     1     -10.745  19.360  66.877  1.00  0.00    -0.570 C  
HETATM   28  N   UNL     1     -10.503  17.192  65.662  1.00  0.00    -0.575 NA 
ENDBRANCH  20  22
ENDBRANCH  19  20
ENDBRANCH  11  19
BRANCH  13  29
HETATM   29  C   UNL     1      -6.437  17.993  68.672  1.00  0.00    -0.223 C  
HETATM   30  C   UNL     1      -5.881  20.415  69.085  1.00  0.00    -0.375 C  
HETATM   31  C   UNL     1      -5.381  18.734  70.870  1.00  0.00    -0.251 C  
HETATM   32  C   UNL     1      -6.334  19.103  69.732  1.00  0.00    -0.260 C  
ENDBRANCH  13  29
ENDBRANCH   2   3
TORSDOF 6
ENDMDL
MODEL       56
REMARK 921   NORMALIZED FREE ENERGY PREDICTED BY IDOCK:   -5.12 KCAL/MOL
REMARK 922        TOTAL FREE ENERGY PREDICTED BY IDOCK:   -7.73 KCAL/MOL
REMARK 923 INTER-LIGAND FREE ENERGY PREDICTED BY IDOCK:   -7.97 KCAL/MOL
REMARK 924 INTRA-LIGAND FREE ENERGY PREDICTED BY IDOCK:    0.24 KCAL/MOL
REMARK 927      BINDING AFFINITY PREDICTED BY RF-SCORE:    0.00 PKD
ROOT
HETATM    1  C   UNL     1      -6.041   9.218  65.489  1.00  0.00    -0.063 C  
HETATM    2  O   UNL     1      -7.243   9.332  66.244  1.00  0.00    -0.086 OA 
ENDROOT
BRANCH   2   3
HETATM    3  C   UNL     1      -7.741  10.596  66.427  1.00  0.00    -0.141 A  
HETATM    4  C   UNL     1      -9.010  11.069  66.064  1.00  0.00    -0.197 A  
HETATM    5  C   UNL     1      -9.343  12.391  66.367  1.00  0.00    -0.219 A  
HETATM    6  N   UNL     1      -7.998  15.387  68.295  1.00  0.00    -0.125 NA 
HETATM    7  C   UNL     1      -8.464  13.253  67.044  1.00  0.00    -0.138 A  
HETATM    8  C   UNL     1      -6.593  15.212  67.901  1.00  0.00    -0.158 C  
HETATM    9  C   UNL     1      -8.911  14.672  67.378  1.00  0.00    -0.195 C  
HETATM   10  C   UNL     1     -10.295  14.697  68.051  1.00  0.00    -0.235 C  
HETATM   11  C   UNL     1     -10.821  16.124  68.212  1.00  0.00    -0.326 C  
HETATM   12  C   UNL     1      -6.150  13.740  67.911  1.00  0.00    -0.154 C  
HETATM   13  C   UNL     1      -9.782  17.040  68.891  1.00  0.00    -0.259 C  
HETATM   14  C   UNL     1      -8.363  16.812  68.321  1.00  0.00    -0.213 C  
HETATM   15  C   UNL     1      -6.823  11.479  67.014  1.00  0.00    -0.147 A  
HETATM   16  C   UNL     1      -7.167  12.809  67.307  1.00  0.00    -0.088 A  
BRANCH   4  17
HETATM   17  O   UNL     1      -9.857  10.249  65.364  1.00  0.00    -0.255 OA 
HETATM   18  C   UNL     1     -10.161  10.642  64.030  1.00  0.00    -0.310 C  
ENDBRANCH   4  17
BRANCH  11  19
HETATM   19  O   UNL     1     -12.010  16.070  69.041  1.00  0.00    -0.342 OA 
BRANCH  19  20
HETATM   20  C   UNL     1     -11.884  15.605  70.317  1.00  0.00    -0.365 C  
HETATM   21  O   UNL     1     -11.148  16.107  71.163  1.00  0.00    -0.257 OA 
BRANCH  20  22
HETATM   22  C   UNL     1     -12.778  14.365  70.591  1.00  0.00    -0.357 C  
HETATM   23  C   UNL     1     -14.016  15.502  72.521  1.00  0.00    -0.646 C  
HETATM   24  C   UNL     1     -14.094  13.026  72.344  1.00  0.00    -0.305 C  
HETATM   25  H2  UNL     1     -11.169  13.032  70.602  1.00  0.00     0.000 HD 
HETATM   26  H1  UNL     1     -12.674  12.308  70.347  1.00  0.00     0.000 HD 
HETATM   27  C   UNL     1     -13.226  14.266  72.073  1.00  0.00    -0.470 C  
HETATM   28  N   UNL     1     -12.086  13.122  70.167  1.00  0.00    -0.345 NA 
ENDBRANCH  20  22
ENDBRANCH  19  20
ENDBRANCH  11  19
BRANCH  13  29
HETATM   29  C   UNL     1     -10.131  18.544  68.739  1.00  0.00    -0.394 C  
HETATM   30  C   UNL     1      -9.999  20.734  67.501  1.00  0.00    -0.337 C  
HETATM   31  C   UNL     1     -10.210  18.612  66.192  1.00  0.00    -0.450 C  
HETATM   32  C   UNL     1      -9.639  19.246  67.461  1.00  0.00    -0.390 C  
ENDBRANCH  13  29
ENDBRANCH   2   3
TORSDOF 6
ENDMDL
MODEL       57
REMARK 921   NORMALIZED FREE ENERGY PREDICTED BY IDOCK:   -4.99 KCAL/MOL
REMARK 922        TOTAL FREE ENERGY PREDICTED BY IDOCK:   -7.56 KCAL/MOL
REMARK 923 INTER-LIGAND FREE ENERGY PREDICTED BY IDOCK:   -6.61 KCAL/MOL
REMARK 924 INTRA-LIGAND FREE ENERGY PREDICTED BY IDOCK:   -0.96 KCAL/MOL
REMARK 927      BINDING AFFINITY PREDICTED BY RF-SCORE:    0.00 PKD
ROOT
HETATM    1  C   UNL     1     -10.639  17.632  65.614  1.00  0.00    -0.135 C  
HETATM    2  O   UNL     1     -10.545  16.389  64.928  1.00  0.00    -0.677 OA 
ENDROOT
BRANCH   2   3
HETATM    3  C   UNL     1     -10.284  15.280  65.691  1.00  0.00    -0.372 A  
HETATM    4  C   UNL     1     -11.087  14.139  65.832  1.00  0.00    -0.306 A  
HETATM    5  C   UNL     1     -10.629  13.094  66.637  1.00  0.00    -0.284 A  
HETATM    6  N   UNL     1      -7.515  12.004  68.539  1.00  0.00    -0.113 NA 
HETATM    7  C   UNL     1      -9.384  13.133  67.286  1.00  0.00    -0.225 A  
HETATM    8  C   UNL     1      -7.169  13.336  69.056  1.00  0.00    -0.007 C  
HETATM    9  C   UNL     1      -8.930  11.937  68.116  1.00  0.00    -0.185 C  
HETATM   10  C   UNL     1      -9.082  10.612  67.348  1.00  0.00    -0.146 C  
HETATM   11  C   UNL     1      -8.806   9.403  68.243  1.00  0.00    -0.128 C  
HETATM   12  C   UNL     1      -7.362  14.448  68.012  1.00  0.00    -0.148 C  
HETATM   13  C   UNL     1      -7.462   9.541  68.988  1.00  0.00    -0.074 C  
HETATM   14  C   UNL     1      -7.268  10.967  69.553  1.00  0.00    -0.090 C  
HETATM   15  C   UNL     1      -9.085  15.368  66.414  1.00  0.00    -0.350 A  
HETATM   16  C   UNL     1      -8.638  14.312  67.226  1.00  0.00    -0.229 A  
BRANCH   4  17
HETATM   17  O   UNL     1     -12.323  14.111  65.239  1.00  0.00    -0.424 OA 
HETATM   18  C   UNL     1     -12.738  12.861  64.697  1.00  0.00    -0.330 C  
ENDBRANCH   4  17
BRANCH  11  19
HETATM   19  O   UNL     1      -8.755   8.225  67.399  1.00  0.00    -0.123 OA 
BRANCH  19  20
HETATM   20  C   UNL     1      -9.832   7.389  67.396  1.00  0.00    -0.169 C  
HETATM   21  O   UNL     1     -10.900   7.643  66.846  1.00  0.00    -0.328 OA 
BRANCH  20  22
HETATM   22  C   UNL     1      -9.562   6.066  68.166  1.00  0.00    -0.118 C  
HETATM   23  C   UNL     1     -11.456   6.482  69.836  1.00  0.00    -0.467 C  
HETATM   24  C   UNL     1      -9.681   4.848  70.424  1.00  0.00    -0.284 C  
HETATM   25  H2  UNL     1      -7.508   6.414  68.323  1.00  0.00     0.000 HD 
HETATM   26  H1  UNL     1      -7.962   4.800  68.537  1.00  0.00     0.000 HD 
HETATM   27  C   UNL     1      -9.968   6.151  69.661  1.00  0.00    -0.210 C  
HETATM   28  N   UNL     1      -8.139   5.669  68.031  1.00  0.00    -0.097 NA 
ENDBRANCH  20  22
ENDBRANCH  19  20
ENDBRANCH  11  19
BRANCH  13  29
HETATM   29  C   UNL     1      -7.328   8.532  70.158  1.00  0.00    -0.051 C  
HETATM   30  C   UNL     1      -7.700   7.861  72.557  1.00  0.00    -0.140 C  
HETATM   31  C   UNL     1      -9.497   9.123  71.358  1.00  0.00    -0.279 C  
HETATM   32  C   UNL     1      -7.987   8.923  71.492  1.00  0.00    -0.119 C  
ENDBRANCH  13  29
ENDBRANCH   2   3
TORSDOF 6
ENDMDL
MODEL       58
REMARK 921   NORMALIZED FREE ENERGY PREDICTED BY IDOCK:   -4.95 KCAL/MOL
REMARK 922        TOTAL FREE ENERGY PREDICTED BY IDOCK:   -7.50 KCAL/MOL
REMARK 923 INTER-LIGAND FREE ENERGY PREDICTED BY IDOCK:   -6.91 KCAL/MOL
REMARK 924 INTRA-LIGAND FREE ENERGY PREDICTED BY IDOCK:   -0.59 KCAL/MOL
REMARK 927      BINDING AFFINITY PREDICTED BY RF-SCORE:    0.00 PKD
ROOT
HETATM    1  C   UNL     1     -11.947  10.551  69.730  1.00  0.00    -0.238 C  
HETATM    2  O   UNL     1     -12.752  11.716  69.587  1.00  0.00     0.063 OA 
ENDROOT
BRANCH   2   3
HETATM    3  C   UNL     1     -12.101  12.884  69.282  1.00  0.00    -0.182 A  
HETATM    4  C   UNL     1     -11.704  13.891  70.172  1.00  0.00    -0.244 A  
HETATM    5  C   UNL     1     -11.019  14.998  69.667  1.00  0.00    -0.294 A  
HETATM    6  N   UNL     1      -9.418  16.235  66.441  1.00  0.00    -0.272 NA 
HETATM    7  C   UNL     1     -10.691  15.125  68.307  1.00  0.00    -0.251 A  
HETATM    8  C   UNL     1     -10.465  15.734  65.540  1.00  0.00    -0.403 C  
HETATM    9  C   UNL     1      -9.905  16.342  67.833  1.00  0.00    -0.237 C  
HETATM   10  C   UNL     1      -8.659  16.598  68.701  1.00  0.00    -0.253 C  
HETATM   11  C   UNL     1      -7.981  17.920  68.343  1.00  0.00    -0.298 C  
HETATM   12  C   UNL     1     -10.967  14.334  65.931  1.00  0.00    -0.304 C  
HETATM   13  C   UNL     1      -7.717  18.032  66.826  1.00  0.00    -0.252 C  
HETATM   14  C   UNL     1      -8.933  17.552  66.000  1.00  0.00    -0.030 C  
HETATM   15  C   UNL     1     -11.864  13.049  67.909  1.00  0.00    -0.389 A  
HETATM   16  C   UNL     1     -11.180  14.171  67.413  1.00  0.00    -0.334 A  
BRANCH   4  17
HETATM   17  O   UNL     1     -12.059  13.798  71.493  1.00  0.00    -0.195 OA 
HETATM   18  C   UNL     1     -13.346  14.298  71.840  1.00  0.00    -0.388 C  
ENDBRANCH   4  17
BRANCH  11  19
HETATM   19  O   UNL     1      -6.712  17.975  69.044  1.00  0.00    -0.239 OA 
BRANCH  19  20
HETATM   20  C   UNL     1      -5.769  17.039  68.739  1.00  0.00    -0.144 C  
HETATM   21  O   UNL     1      -5.403  16.776  67.596  1.00  0.00    -0.112 OA 
BRANCH  20  22
HETATM   22  C   UNL     1      -5.196  16.336  70.000  1.00  0.00    -0.152 C  
HETATM   23  C   UNL     1      -5.969  14.018  69.239  1.00  0.00    -0.095 C  
HETATM   24  C   UNL     1      -5.421  14.368  71.636  1.00  0.00    -0.171 C  
HETATM   25  H2  UNL     1      -6.069  17.696  71.325  1.00  0.00     0.000 HD 
HETATM   26  H1  UNL     1      -4.781  16.817  71.975  1.00  0.00     0.000 HD 
HETATM   27  C   UNL     1      -5.978  15.049  70.375  1.00  0.00    -0.134 C  
HETATM   28  N   UNL     1      -5.157  17.278  71.146  1.00  0.00    -0.406 NA 
ENDBRANCH  20  22
ENDBRANCH  19  20
ENDBRANCH  11  19
BRANCH  13  29
HETATM   29  C   UNL     1      -7.376  19.482  66.392  1.00  0.00    -0.265 C  
HETATM   30  C   UNL     1      -5.742  21.233  65.614  1.00  0.00    -0.223 C  
HETATM   31  C   UNL     1      -5.541  18.905  64.720  1.00  0.00    -0.286 C  
HETATM   32  C   UNL     1      -5.932  19.748  65.934  1.00  0.00    -0.186 C  
ENDBRANCH  13  29
ENDBRANCH   2   3
TORSDOF 6
ENDMDL
MODEL       59
REMARK 921   NORMALIZED FREE ENERGY PREDICTED BY IDOCK:   -4.92 KCAL/MOL
REMARK 922        TOTAL FREE ENERGY PREDICTED BY IDOCK:   -7.47 KCAL/MOL
REMARK 923 INTER-LIGAND FREE ENERGY PREDICTED BY IDOCK:   -6.13 KCAL/MOL
REMARK 924 INTRA-LIGAND FREE ENERGY PREDICTED BY IDOCK:   -1.34 KCAL/MOL
REMARK 927      BINDING AFFINITY PREDICTED BY RF-SCORE:    0.00 PKD
ROOT
HETATM    1  C   UNL     1      -9.491   4.870  72.370  1.00  0.00    -0.140 C  
HETATM    2  O   UNL     1      -8.710   4.885  71.180  1.00  0.00    -0.121 OA 
ENDROOT
BRANCH   2   3
HETATM    3  C   UNL     1      -8.644   6.073  70.499  1.00  0.00    -0.137 A  
HETATM    4  C   UNL     1      -9.542   6.547  69.532  1.00  0.00    -0.145 A  
HETATM    5  C   UNL     1      -9.318   7.807  68.972  1.00  0.00    -0.150 A  
HETATM    6  N   UNL     1      -7.069  10.850  69.401  1.00  0.00    -0.121 NA 
HETATM    7  C   UNL     1      -8.243   8.624  69.361  1.00  0.00    -0.113 A  
HETATM    8  C   UNL     1      -5.834  10.100  69.668  1.00  0.00    -0.042 C  
HETATM    9  C   UNL     1      -8.084  10.005  68.736  1.00  0.00    -0.106 C  
HETATM   10  C   UNL     1      -9.396  10.809  68.772  1.00  0.00    -0.186 C  
HETATM   11  C   UNL     1      -9.284  12.112  67.980  1.00  0.00    -0.194 C  
HETATM   12  C   UNL     1      -6.060   8.889  70.589  1.00  0.00    -0.037 C  
HETATM   13  C   UNL     1      -8.043  12.927  68.398  1.00  0.00    -0.130 C  
HETATM   14  C   UNL     1      -6.798  12.026  68.560  1.00  0.00    -0.078 C  
HETATM   15  C   UNL     1      -7.515   6.840  70.821  1.00  0.00    -0.083 A  
HETATM   16  C   UNL     1      -7.297   8.103  70.245  1.00  0.00    -0.059 A  
BRANCH   4  17
HETATM   17  O   UNL     1     -10.568   5.739  69.114  1.00  0.00    -0.250 OA 
HETATM   18  C   UNL     1     -10.646   5.486  67.716  1.00  0.00    -0.154 C  
ENDBRANCH   4  17
BRANCH  11  19
HETATM   19  O   UNL     1     -10.473  12.900  68.247  1.00  0.00    -0.229 OA 
BRANCH  19  20
HETATM   20  C   UNL     1     -11.493  12.851  67.342  1.00  0.00    -0.336 C  
HETATM   21  O   UNL     1     -12.159  11.846  67.108  1.00  0.00    -0.590 OA 
BRANCH  20  22
HETATM   22  C   UNL     1     -11.728  14.214  66.635  1.00  0.00    -0.403 C  
HETATM   23  C   UNL     1     -10.902  13.349  64.373  1.00  0.00    -0.422 C  
HETATM   24  C   UNL     1     -10.988  15.801  64.755  1.00  0.00    -0.410 C  
HETATM   25  H2  UNL     1     -10.743  15.310  68.116  1.00  0.00     0.000 HD 
HETATM   26  H1  UNL     1     -11.782  16.223  67.145  1.00  0.00     0.000 HD 
HETATM   27  C   UNL     1     -10.765  14.442  65.440  1.00  0.00    -0.359 C  
HETATM   28  N   UNL     1     -11.628  15.328  67.610  1.00  0.00    -0.293 NA 
ENDBRANCH  20  22
ENDBRANCH  19  20
ENDBRANCH  11  19
BRANCH  13  29
HETATM   29  C   UNL     1      -7.703  14.049  67.382  1.00  0.00    -0.177 C  
HETATM   30  C   UNL     1      -7.787  16.449  66.623  1.00  0.00    -0.316 C  
HETATM   31  C   UNL     1      -7.474  15.958  69.055  1.00  0.00    -0.194 C  
HETATM   32  C   UNL     1      -8.126  15.479  67.758  1.00  0.00    -0.153 C  
ENDBRANCH  13  29
ENDBRANCH   2   3
TORSDOF 6
ENDMDL
MODEL       60
REMARK 921   NORMALIZED FREE ENERGY PREDICTED BY IDOCK:   -4.87 KCAL/MOL
REMARK 922        TOTAL FREE ENERGY PREDICTED BY IDOCK:   -7.40 KCAL/MOL
REMARK 923 INTER-LIGAND FREE ENERGY PREDICTED BY IDOCK:   -7.50 KCAL/MOL
REMARK 924 INTRA-LIGAND FREE ENERGY PREDICTED BY IDOCK:    0.10 KCAL/MOL
REMARK 927      BINDING AFFINITY PREDICTED BY RF-SCORE:    0.00 PKD
ROOT
HETATM    1  C   UNL     1      -7.868   6.303  70.551  1.00  0.00    -0.106 C  
HETATM    2  O   UNL     1      -7.976   6.508  69.147  1.00  0.00    -0.108 OA 
ENDROOT
BRANCH   2   3
HETATM    3  C   UNL     1      -8.404   7.744  68.734  1.00  0.00    -0.128 A  
HETATM    4  C   UNL     1      -9.720   8.133  68.447  1.00  0.00    -0.161 A  
HETATM    5  C   UNL     1      -9.959   9.456  68.069  1.00  0.00    -0.209 A  
HETATM    6  N   UNL     1      -8.159  12.802  67.804  1.00  0.00    -0.154 NA 
HETATM    7  C   UNL     1      -8.934  10.414  67.992  1.00  0.00    -0.129 A  
HETATM    8  C   UNL     1      -6.895  12.262  67.282  1.00  0.00    -0.140 C  
HETATM    9  C   UNL     1      -9.275  11.851  67.613  1.00  0.00    -0.183 C  
HETATM   10  C   UNL     1     -10.451  12.402  68.439  1.00  0.00    -0.245 C  
HETATM   11  C   UNL     1     -10.910  13.769  67.929  1.00  0.00    -0.244 C  
HETATM   12  C   UNL     1      -6.475  10.956  67.975  1.00  0.00    -0.058 C  
HETATM   13  C   UNL     1      -9.729  14.752  67.792  1.00  0.00    -0.213 C  
HETATM   14  C   UNL     1      -8.496  14.075  67.150  1.00  0.00    -0.190 C  
HETATM   15  C   UNL     1      -7.363   8.668  68.564  1.00  0.00    -0.085 A  
HETATM   16  C   UNL     1      -7.616   9.995  68.177  1.00  0.00    -0.084 A  
BRANCH   4  17
HETATM   17  O   UNL     1     -10.719   7.194  68.476  1.00  0.00    -0.201 OA 
HETATM   18  C   UNL     1     -10.902   6.427  67.291  1.00  0.00    -0.385 C  
ENDBRANCH   4  17
BRANCH  11  19
HETATM   19  O   UNL     1     -11.859  14.306  68.886  1.00  0.00    -0.307 OA 
BRANCH  19  20
HETATM   20  C   UNL     1     -12.085  13.601  70.032  1.00  0.00    -0.348 C  
HETATM   21  O   UNL     1     -12.381  12.409  70.060  1.00  0.00    -0.200 OA 
BRANCH  20  22
HETATM   22  C   UNL     1     -11.924  14.472  71.308  1.00  0.00    -0.333 C  
HETATM   23  C   UNL     1     -14.265  13.900  72.170  1.00  0.00    -0.595 C  
HETATM   24  C   UNL     1     -13.110  15.901  73.083  1.00  0.00    -0.673 C  
HETATM   25  H2  UNL     1     -11.229  16.137  70.254  1.00  0.00     0.000 HD 
HETATM   26  H1  UNL     1     -10.859  16.149  71.903  1.00  0.00     0.000 HD 
HETATM   27  C   UNL     1     -13.276  15.023  71.831  1.00  0.00    -0.455 C  
HETATM   28  N   UNL     1     -10.965  15.577  71.065  1.00  0.00    -0.330 NA 
ENDBRANCH  20  22
ENDBRANCH  19  20
ENDBRANCH  11  19
BRANCH  13  29
HETATM   29  C   UNL     1     -10.095  16.000  66.946  1.00  0.00    -0.266 C  
HETATM   30  C   UNL     1     -10.581  18.462  66.727  1.00  0.00    -0.367 C  
HETATM   31  C   UNL     1      -8.783  17.716  68.299  1.00  0.00    -0.276 C  
HETATM   32  C   UNL     1     -10.133  17.351  67.681  1.00  0.00    -0.327 C  
ENDBRANCH  13  29
ENDBRANCH   2   3
TORSDOF 6
ENDMDL
MODEL       61
REMARK 921   NORMALIZED FREE ENERGY PREDICTED BY IDOCK:   -4.86 KCAL/MOL
REMARK 922        TOTAL FREE ENERGY PREDICTED BY IDOCK:   -7.38 KCAL/MOL
REMARK 923 INTER-LIGAND FREE ENERGY PREDICTED BY IDOCK:   -7.02 KCAL/MOL
REMARK 924 INTRA-LIGAND FREE ENERGY PREDICTED BY IDOCK:   -0.36 KCAL/MOL
REMARK 927      BINDING AFFINITY PREDICTED BY RF-SCORE:    0.00 PKD
ROOT
HETATM    1  C   UNL     1      -9.977  18.180  67.469  1.00  0.00    -0.332 C  
HETATM    2  O   UNL     1     -10.940  17.132  67.447  1.00  0.00    -0.215 OA 
ENDROOT
BRANCH   2   3
HETATM    3  C   UNL     1     -10.465  15.859  67.267  1.00  0.00    -0.310 A  
HETATM    4  C   UNL     1      -9.669  15.118  68.152  1.00  0.00    -0.217 A  
HETATM    5  C   UNL     1      -9.311  13.815  67.799  1.00  0.00    -0.213 A  
HETATM    6  N   UNL     1     -10.055  11.184  65.148  1.00  0.00    -0.264 NA 
HETATM    7  C   UNL     1      -9.741  13.213  66.605  1.00  0.00    -0.261 A  
HETATM    8  C   UNL     1     -10.090  12.112  64.008  1.00  0.00    -0.331 C  
HETATM    9  C   UNL     1      -9.345  11.772  66.304  1.00  0.00    -0.225 C  
HETATM   10  C   UNL     1      -9.623  10.837  67.495  1.00  0.00    -0.176 C  
HETATM   11  C   UNL     1      -9.054   9.437  67.261  1.00  0.00    -0.133 C  
HETATM   12  C   UNL     1     -10.811  13.430  64.335  1.00  0.00    -0.422 C  
HETATM   13  C   UNL     1      -9.499   8.862  65.900  1.00  0.00    -0.303 C  
HETATM   14  C   UNL     1      -9.404   9.919  64.776  1.00  0.00    -0.278 C  
HETATM   15  C   UNL     1     -10.816  15.300  66.029  1.00  0.00    -0.331 A  
HETATM   16  C   UNL     1     -10.444  13.991  65.683  1.00  0.00    -0.328 A  
BRANCH   4  17
HETATM   17  O   UNL     1      -9.208  15.712  69.299  1.00  0.00    -0.237 OA 
HETATM   18  C   UNL     1      -7.808  15.622  69.540  1.00  0.00    -0.180 C  
ENDBRANCH   4  17
BRANCH  11  19
HETATM   19  O   UNL     1      -9.547   8.573  68.317  1.00  0.00    -0.141 OA 
BRANCH  19  20
HETATM   20  C   UNL     1      -8.955   8.657  69.544  1.00  0.00    -0.145 C  
HETATM   21  O   UNL     1      -7.917   9.274  69.767  1.00  0.00    -0.083 OA 
BRANCH  20  22
HETATM   22  C   UNL     1      -9.742   7.884  70.638  1.00  0.00    -0.173 C  
HETATM   23  C   UNL     1     -11.415   9.789  70.987  1.00  0.00    -0.458 C  
HETATM   24  C   UNL     1     -11.187   8.060  72.755  1.00  0.00    -0.448 C  
HETATM   25  H2  UNL     1      -8.021   7.370  71.708  1.00  0.00     0.000 HD 
HETATM   26  H1  UNL     1      -9.370   6.410  72.049  1.00  0.00     0.000 HD 
HETATM   27  C   UNL     1     -10.427   8.829  71.661  1.00  0.00    -0.387 C  
HETATM   28  N   UNL     1      -8.854   6.917  71.330  1.00  0.00    -0.135 NA 
ENDBRANCH  20  22
ENDBRANCH  19  20
ENDBRANCH  11  19
BRANCH  13  29
HETATM   29  C   UNL     1      -8.660   7.627  65.478  1.00  0.00    -0.112 C  
HETATM   30  C   UNL     1      -6.719   6.579  64.263  1.00  0.00    -0.038 C  
HETATM   31  C   UNL     1      -6.385   8.773  65.416  1.00  0.00    -0.062 C  
HETATM   32  C   UNL     1      -7.386   7.898  64.661  1.00  0.00    -0.084 C  
ENDBRANCH  13  29
ENDBRANCH   2   3
TORSDOF 6
ENDMDL
MODEL       62
REMARK 921   NORMALIZED FREE ENERGY PREDICTED BY IDOCK:   -4.86 KCAL/MOL
REMARK 922        TOTAL FREE ENERGY PREDICTED BY IDOCK:   -7.38 KCAL/MOL
REMARK 923 INTER-LIGAND FREE ENERGY PREDICTED BY IDOCK:   -6.48 KCAL/MOL
REMARK 924 INTRA-LIGAND FREE ENERGY PREDICTED BY IDOCK:   -0.90 KCAL/MOL
REMARK 927      BINDING AFFINITY PREDICTED BY RF-SCORE:    0.00 PKD
ROOT
HETATM    1  C   UNL     1      -9.156   2.011  68.684  1.00  0.00    -0.149 C  
HETATM    2  O   UNL     1      -8.406   2.730  67.711  1.00  0.00    -0.077 OA 
ENDROOT
BRANCH   2   3
HETATM    3  C   UNL     1      -8.616   4.084  67.645  1.00  0.00    -0.100 A  
HETATM    4  C   UNL     1      -8.143   4.969  66.667  1.00  0.00    -0.108 A  
HETATM    5  C   UNL     1      -8.496   6.317  66.758  1.00  0.00    -0.111 A  
HETATM    6  N   UNL     1     -10.767   8.626  68.761  1.00  0.00    -0.127 NA 
HETATM    7  C   UNL     1      -9.327   6.811  67.777  1.00  0.00    -0.116 A  
HETATM    8  C   UNL     1     -10.528   7.994  70.066  1.00  0.00    -0.228 C  
HETATM    9  C   UNL     1      -9.704   8.288  67.791  1.00  0.00    -0.158 C  
HETATM   10  C   UNL     1     -10.213   8.766  66.418  1.00  0.00    -0.256 C  
HETATM   11  C   UNL     1     -10.410  10.282  66.383  1.00  0.00    -0.195 C  
HETATM   12  C   UNL     1     -10.487   6.459  69.985  1.00  0.00    -0.267 C  
HETATM   13  C   UNL     1     -11.265  10.772  67.570  1.00  0.00    -0.346 C  
HETATM   14  C   UNL     1     -10.849  10.089  68.893  1.00  0.00    -0.220 C  
HETATM   15  C   UNL     1      -9.365   4.586  68.720  1.00  0.00    -0.206 A  
HETATM   16  C   UNL     1      -9.707   5.945  68.804  1.00  0.00    -0.161 A  
BRANCH   4  17
HETATM   17  O   UNL     1      -7.295   4.504  65.695  1.00  0.00    -0.077 OA 
HETATM   18  C   UNL     1      -5.913   4.801  65.865  1.00  0.00    -0.023 C  
ENDBRANCH   4  17
BRANCH  11  19
HETATM   19  O   UNL     1     -11.090  10.615  65.146  1.00  0.00     0.099 OA 
BRANCH  19  20
HETATM   20  C   UNL     1     -10.455  11.440  64.265  1.00  0.00    -0.342 C  
HETATM   21  O   UNL     1      -9.287  11.302  63.912  1.00  0.00    -0.197 OA 
BRANCH  20  22
HETATM   22  C   UNL     1     -11.375  12.580  63.747  1.00  0.00    -0.466 C  
HETATM   23  C   UNL     1     -10.067  14.396  64.988  1.00  0.00    -0.322 C  
HETATM   24  C   UNL     1     -12.375  14.899  64.220  1.00  0.00    -0.300 C  
HETATM   25  H2  UNL     1     -13.137  11.580  64.259  1.00  0.00     0.000 HD 
HETATM   26  H1  UNL     1     -13.337  12.807  63.115  1.00  0.00     0.000 HD 
HETATM   27  C   UNL     1     -11.448  13.781  64.727  1.00  0.00    -0.366 C  
HETATM   28  N   UNL     1     -12.733  12.058  63.455  1.00  0.00    -0.742 NA 
ENDBRANCH  20  22
ENDBRANCH  19  20
ENDBRANCH  11  19
BRANCH  13  29
HETATM   29  C   UNL     1     -11.178  12.308  67.767  1.00  0.00    -0.331 C  
HETATM   30  C   UNL     1     -10.058  14.360  68.705  1.00  0.00    -0.242 C  
HETATM   31  C   UNL     1      -8.637  12.491  67.841  1.00  0.00    -0.179 C  
HETATM   32  C   UNL     1      -9.955  12.842  68.532  1.00  0.00    -0.168 C  
ENDBRANCH  13  29
ENDBRANCH   2   3
TORSDOF 6
ENDMDL
MODEL       63
REMARK 921   NORMALIZED FREE ENERGY PREDICTED BY IDOCK:   -4.83 KCAL/MOL
REMARK 922        TOTAL FREE ENERGY PREDICTED BY IDOCK:   -7.35 KCAL/MOL
REMARK 923 INTER-LIGAND FREE ENERGY PREDICTED BY IDOCK:   -6.44 KCAL/MOL
REMARK 924 INTRA-LIGAND FREE ENERGY PREDICTED BY IDOCK:   -0.91 KCAL/MOL
REMARK 927      BINDING AFFINITY PREDICTED BY RF-SCORE:    0.00 PKD
ROOT
HETATM    1  C   UNL     1      -8.085   4.243  71.472  1.00  0.00    -0.087 C  
HETATM    2  O   UNL     1      -7.771   5.564  71.900  1.00  0.00    -0.100 OA 
ENDROOT
BRANCH   2   3
HETATM    3  C   UNL     1      -8.412   6.591  71.256  1.00  0.00    -0.126 A  
HETATM    4  C   UNL     1      -8.866   7.792  71.817  1.00  0.00    -0.119 A  
HETATM    5  C   UNL     1      -9.472   8.734  70.982  1.00  0.00    -0.287 A  
HETATM    6  N   UNL     1     -10.123   9.390  67.288  1.00  0.00    -0.210 NA 
HETATM    7  C   UNL     1      -9.617   8.532  69.599  1.00  0.00    -0.170 A  
HETATM    8  C   UNL     1     -10.443   8.000  66.933  1.00  0.00    -0.317 C  
HETATM    9  C   UNL     1     -10.251   9.621  68.742  1.00  0.00    -0.196 C  
HETATM   10  C   UNL     1      -9.625  11.002  69.010  1.00  0.00    -0.136 C  
HETATM   11  C   UNL     1     -10.386  12.118  68.292  1.00  0.00    -0.212 C  
HETATM   12  C   UNL     1      -9.516   6.982  67.616  1.00  0.00    -0.134 C  
HETATM   13  C   UNL     1     -10.581  11.802  66.795  1.00  0.00    -0.273 C  
HETATM   14  C   UNL     1     -11.000  10.330  66.573  1.00  0.00     0.096 C  
HETATM   15  C   UNL     1      -8.641   6.340  69.895  1.00  0.00    -0.134 A  
HETATM   16  C   UNL     1      -9.257   7.292  69.067  1.00  0.00    -0.139 A  
BRANCH   4  17
HETATM   17  O   UNL     1      -8.770   7.979  73.172  1.00  0.00    -0.188 OA 
HETATM   18  C   UNL     1      -9.705   7.269  73.977  1.00  0.00    -0.231 C  
ENDBRANCH   4  17
BRANCH  11  19
HETATM   19  O   UNL     1      -9.611  13.338  68.417  1.00  0.00    -0.220 OA 
BRANCH  19  20
HETATM   20  C   UNL     1     -10.156  14.377  69.111  1.00  0.00    -0.098 C  
HETATM   21  O   UNL     1     -11.260  14.344  69.648  1.00  0.00    -0.250 OA 
BRANCH  20  22
HETATM   22  C   UNL     1      -9.222  15.619  69.156  1.00  0.00    -0.254 C  
HETATM   23  C   UNL     1     -10.519  16.842  67.320  1.00  0.00    -0.310 C  
HETATM   24  C   UNL     1      -8.202  17.573  67.837  1.00  0.00    -0.231 C  
HETATM   25  H2  UNL     1      -7.473  14.480  69.060  1.00  0.00     0.000 HD 
HETATM   26  H1  UNL     1      -7.255  16.048  69.652  1.00  0.00     0.000 HD 
HETATM   27  C   UNL     1      -9.143  16.357  67.794  1.00  0.00    -0.199 C  
HETATM   28  N   UNL     1      -7.868  15.232  69.623  1.00  0.00    -0.202 NA 
ENDBRANCH  20  22
ENDBRANCH  19  20
ENDBRANCH  11  19
BRANCH  13  29
HETATM   29  C   UNL     1     -11.645  12.716  66.132  1.00  0.00    -0.445 C  
HETATM   30  C   UNL     1     -12.360  14.355  64.358  1.00  0.00    -0.428 C  
HETATM   31  C   UNL     1     -10.843  12.469  63.725  1.00  0.00    -0.489 C  
HETATM   32  C   UNL     1     -11.230  13.441  64.840  1.00  0.00    -0.347 C  
ENDBRANCH  13  29
ENDBRANCH   2   3
TORSDOF 6
ENDMDL
MODEL       64
REMARK 921   NORMALIZED FREE ENERGY PREDICTED BY IDOCK:   -4.82 KCAL/MOL
REMARK 922        TOTAL FREE ENERGY PREDICTED BY IDOCK:   -7.33 KCAL/MOL
REMARK 923 INTER-LIGAND FREE ENERGY PREDICTED BY IDOCK:   -6.15 KCAL/MOL
REMARK 924 INTRA-LIGAND FREE ENERGY PREDICTED BY IDOCK:   -1.18 KCAL/MOL
REMARK 927      BINDING AFFINITY PREDICTED BY RF-SCORE:    0.00 PKD
ROOT
HETATM    1  C   UNL     1     -10.328  18.119  66.338  1.00  0.00    -0.394 C  
HETATM    2  O   UNL     1      -9.050  17.513  66.495  1.00  0.00    -0.255 OA 
ENDROOT
BRANCH   2   3
HETATM    3  C   UNL     1      -9.030  16.156  66.689  1.00  0.00    -0.255 A  
HETATM    4  C   UNL     1      -7.957  15.381  67.153  1.00  0.00    -0.217 A  
HETATM    5  C   UNL     1      -8.145  14.007  67.314  1.00  0.00    -0.174 A  
HETATM    6  N   UNL     1     -10.914  11.394  67.218  1.00  0.00    -0.265 NA 
HETATM    7  C   UNL     1      -9.375  13.379  67.055  1.00  0.00    -0.243 A  
HETATM    8  C   UNL     1     -11.616  11.948  66.052  1.00  0.00    -0.227 C  
HETATM    9  C   UNL     1      -9.520  11.881  67.293  1.00  0.00    -0.175 C  
HETATM   10  C   UNL     1      -8.998  11.464  68.681  1.00  0.00    -0.133 C  
HETATM   11  C   UNL     1      -8.970   9.944  68.843  1.00  0.00    -0.153 C  
HETATM   12  C   UNL     1     -11.694  13.483  66.078  1.00  0.00    -0.389 C  
HETATM   13  C   UNL     1     -10.325   9.307  68.470  1.00  0.00    -0.237 C  
HETATM   14  C   UNL     1     -10.907   9.923  67.177  1.00  0.00    -0.157 C  
HETATM   15  C   UNL     1     -10.230  15.522  66.334  1.00  0.00    -0.300 A  
HETATM   16  C   UNL     1     -10.405  14.138  66.495  1.00  0.00    -0.284 A  
BRANCH   4  17
HETATM   17  O   UNL     1      -6.741  15.977  67.365  1.00  0.00    -0.159 OA 
HETATM   18  C   UNL     1      -6.445  16.354  68.706  1.00  0.00    -0.142 C  
ENDBRANCH   4  17
BRANCH  11  19
HETATM   19  O   UNL     1      -8.681   9.649  70.234  1.00  0.00    -0.218 OA 
BRANCH  19  20
HETATM   20  C   UNL     1      -7.375   9.525  70.606  1.00  0.00    -0.120 C  
HETATM   21  O   UNL     1      -6.609  10.472  70.759  1.00  0.00    -0.343 OA 
BRANCH  20  22
HETATM   22  C   UNL     1      -6.956   8.044  70.823  1.00  0.00    -0.045 C  
HETATM   23  C   UNL     1      -5.874   7.860  68.511  1.00  0.00    -0.035 C  
HETATM   24  C   UNL     1      -6.481   5.775  69.716  1.00  0.00    -0.042 C  
HETATM   25  H2  UNL     1      -8.848   7.461  71.492  1.00  0.00     0.000 HD 
HETATM   26  H1  UNL     1      -7.598   6.408  71.923  1.00  0.00     0.000 HD 
HETATM   27  C   UNL     1      -6.876   7.245  69.495  1.00  0.00    -0.050 C  
HETATM   28  N   UNL     1      -7.873   7.380  71.781  1.00  0.00    -0.089 NA 
ENDBRANCH  20  22
ENDBRANCH  19  20
ENDBRANCH  11  19
BRANCH  13  29
HETATM   29  C   UNL     1     -10.221   7.771  68.272  1.00  0.00    -0.236 C  
HETATM   30  C   UNL     1     -10.162   5.421  69.176  1.00  0.00    -0.302 C  
HETATM   31  C   UNL     1     -11.717   7.082  70.216  1.00  0.00    -0.284 C  
HETATM   32  C   UNL     1     -10.364   6.897  69.530  1.00  0.00    -0.224 C  
ENDBRANCH  13  29
ENDBRANCH   2   3
TORSDOF 6
ENDMDL
MODEL       65
REMARK 921   NORMALIZED FREE ENERGY PREDICTED BY IDOCK:   -4.81 KCAL/MOL
REMARK 922        TOTAL FREE ENERGY PREDICTED BY IDOCK:   -7.31 KCAL/MOL
REMARK 923 INTER-LIGAND FREE ENERGY PREDICTED BY IDOCK:   -6.48 KCAL/MOL
REMARK 924 INTRA-LIGAND FREE ENERGY PREDICTED BY IDOCK:   -0.83 KCAL/MOL
REMARK 927      BINDING AFFINITY PREDICTED BY RF-SCORE:    0.00 PKD
ROOT
HETATM    1  C   UNL     1      -6.802   2.241  65.048  1.00  0.00    -0.043 C  
HETATM    2  O   UNL     1      -6.835   2.854  66.333  1.00  0.00    -0.049 OA 
ENDROOT
BRANCH   2   3
HETATM    3  C   UNL     1      -7.600   3.985  66.459  1.00  0.00    -0.088 A  
HETATM    4  C   UNL     1      -8.599   4.232  67.411  1.00  0.00    -0.104 A  
HETATM    5  C   UNL     1      -9.248   5.468  67.394  1.00  0.00    -0.110 A  
HETATM    6  N   UNL     1      -9.038   8.869  65.693  1.00  0.00    -0.216 NA 
HETATM    7  C   UNL     1      -8.918   6.480  66.477  1.00  0.00    -0.152 A  
HETATM    8  C   UNL     1      -8.717   8.358  64.353  1.00  0.00     0.144 C  
HETATM    9  C   UNL     1      -9.641   7.820  66.544  1.00  0.00    -0.201 C  
HETATM   10  C   UNL     1      -9.664   8.393  67.973  1.00  0.00    -0.184 C  
HETATM   11  C   UNL     1     -10.547   9.637  68.071  1.00  0.00    -0.243 C  
HETATM   12  C   UNL     1      -7.711   7.195  64.385  1.00  0.00    -0.117 C  
HETATM   13  C   UNL     1     -10.188  10.677  66.989  1.00  0.00    -0.267 C  
HETATM   14  C   UNL     1      -9.961  10.011  65.613  1.00  0.00    -0.285 C  
HETATM   15  C   UNL     1      -7.334   4.952  65.478  1.00  0.00    -0.073 A  
HETATM   16  C   UNL     1      -7.999   6.189  65.468  1.00  0.00    -0.117 A  
BRANCH   4  17
HETATM   17  O   UNL     1      -8.958   3.235  68.281  1.00  0.00    -0.111 OA 
HETATM   18  C   UNL     1      -9.639   3.640  69.464  1.00  0.00    -0.137 C  
ENDBRANCH   4  17
BRANCH  11  19
HETATM   19  O   UNL     1     -10.338  10.230  69.378  1.00  0.00    -0.208 OA 
BRANCH  19  20
HETATM   20  C   UNL     1     -10.407   9.417  70.471  1.00  0.00    -0.281 C  
HETATM   21  O   UNL     1      -9.449   9.148  71.192  1.00  0.00    -0.261 OA 
BRANCH  20  22
HETATM   22  C   UNL     1     -11.839   8.864  70.714  1.00  0.00    -0.194 C  
HETATM   23  C   UNL     1     -12.726  11.116  71.544  1.00  0.00    -0.499 C  
HETATM   24  C   UNL     1     -13.997   9.055  72.094  1.00  0.00    -0.499 C  
HETATM   25  H2  UNL     1     -11.165   7.192  71.771  1.00  0.00     0.000 HD 
HETATM   26  H1  UNL     1     -12.732   7.045  71.155  1.00  0.00     0.000 HD 
HETATM   27  C   UNL     1     -12.588   9.618  71.844  1.00  0.00    -0.481 C  
HETATM   28  N   UNL     1     -11.792   7.408  70.996  1.00  0.00    -0.302 NA 
ENDBRANCH  20  22
ENDBRANCH  19  20
ENDBRANCH  11  19
BRANCH  13  29
HETATM   29  C   UNL     1     -11.282  11.765  66.829  1.00  0.00    -0.388 C  
HETATM   30  C   UNL     1     -12.135  14.112  67.157  1.00  0.00    -0.432 C  
HETATM   31  C   UNL     1      -9.726  13.768  66.576  1.00  0.00    -0.301 C  
HETATM   32  C   UNL     1     -10.930  13.181  67.315  1.00  0.00    -0.288 C  
ENDBRANCH  13  29
ENDBRANCH   2   3
TORSDOF 6
ENDMDL
MODEL       66
REMARK 921   NORMALIZED FREE ENERGY PREDICTED BY IDOCK:   -4.81 KCAL/MOL
REMARK 922        TOTAL FREE ENERGY PREDICTED BY IDOCK:   -7.31 KCAL/MOL
REMARK 923 INTER-LIGAND FREE ENERGY PREDICTED BY IDOCK:   -6.73 KCAL/MOL
REMARK 924 INTRA-LIGAND FREE ENERGY PREDICTED BY IDOCK:   -0.58 KCAL/MOL
REMARK 927      BINDING AFFINITY PREDICTED BY RF-SCORE:    0.00 PKD
ROOT
HETATM    1  C   UNL     1     -10.477   4.472  74.044  1.00  0.00    -0.261 C  
HETATM    2  O   UNL     1      -9.835   5.705  74.349  1.00  0.00    -0.176 OA 
ENDROOT
BRANCH   2   3
HETATM    3  C   UNL     1      -9.897   6.687  73.394  1.00  0.00    -0.195 A  
HETATM    4  C   UNL     1      -8.878   7.082  72.515  1.00  0.00    -0.124 A  
HETATM    5  C   UNL     1      -9.149   8.088  71.586  1.00  0.00    -0.194 A  
HETATM    6  N   UNL     1     -12.065  10.144  70.255  1.00  0.00    -0.237 NA 
HETATM    7  C   UNL     1     -10.410   8.698  71.483  1.00  0.00    -0.341 A  
HETATM    8  C   UNL     1     -12.718  10.356  71.554  1.00  0.00    -0.459 C  
HETATM    9  C   UNL     1     -10.646   9.762  70.416  1.00  0.00    -0.304 C  
HETATM   10  C   UNL     1     -10.169   9.301  69.027  1.00  0.00    -0.217 C  
HETATM   11  C   UNL     1     -10.232  10.434  68.001  1.00  0.00    -0.169 C  
HETATM   12  C   UNL     1     -12.706   9.098  72.438  1.00  0.00    -0.410 C  
HETATM   13  C   UNL     1     -11.617  11.114  67.990  1.00  0.00    -0.337 C  
HETATM   14  C   UNL     1     -12.145  11.355  69.423  1.00  0.00    -0.291 C  
HETATM   15  C   UNL     1     -11.128   7.360  73.363  1.00  0.00    -0.181 A  
HETATM   16  C   UNL     1     -11.386   8.375  72.428  1.00  0.00    -0.448 A  
BRANCH   4  17
HETATM   17  O   UNL     1      -7.632   6.523  72.639  1.00  0.00    -0.099 OA 
HETATM   18  C   UNL     1      -6.702   7.224  73.458  1.00  0.00    -0.065 C  
ENDBRANCH   4  17
BRANCH  11  19
HETATM   19  O   UNL     1      -9.980   9.863  66.692  1.00  0.00    -0.194 OA 
BRANCH  19  20
HETATM   20  C   UNL     1      -8.901  10.316  65.990  1.00  0.00    -0.149 C  
HETATM   21  O   UNL     1      -8.951  11.213  65.152  1.00  0.00    -0.179 OA 
BRANCH  20  22
HETATM   22  C   UNL     1      -7.590   9.574  66.369  1.00  0.00    -0.097 C  
HETATM   23  C   UNL     1      -8.383   7.356  65.367  1.00  0.00    -0.122 C  
HETATM   24  C   UNL     1      -6.512   7.329  67.000  1.00  0.00    -0.055 C  
HETATM   25  H2  UNL     1      -7.607  10.260  68.343  1.00  0.00     0.000 HD 
HETATM   26  H1  UNL     1      -6.100   9.717  67.804  1.00  0.00     0.000 HD 
HETATM   27  C   UNL     1      -7.809   8.056  66.606  1.00  0.00    -0.098 C  
HETATM   28  N   UNL     1      -6.961  10.205  67.555  1.00  0.00    -0.084 NA 
ENDBRANCH  20  22
ENDBRANCH  19  20
ENDBRANCH  11  19
BRANCH  13  29
HETATM   29  C   UNL     1     -11.601  12.474  67.243  1.00  0.00    -0.434 C  
HETATM   30  C   UNL     1     -11.003  14.916  67.103  1.00  0.00    -0.323 C  
HETATM   31  C   UNL     1      -9.380  13.329  68.155  1.00  0.00    -0.220 C  
HETATM   32  C   UNL     1     -10.861  13.635  67.929  1.00  0.00    -0.264 C  
ENDBRANCH  13  29
ENDBRANCH   2   3
TORSDOF 6
ENDMDL
MODEL       67
REMARK 921   NORMALIZED FREE ENERGY PREDICTED BY IDOCK:   -4.79 KCAL/MOL
REMARK 922        TOTAL FREE ENERGY PREDICTED BY IDOCK:   -7.29 KCAL/MOL
REMARK 923 INTER-LIGAND FREE ENERGY PREDICTED BY IDOCK:   -6.26 KCAL/MOL
REMARK 924 INTRA-LIGAND FREE ENERGY PREDICTED BY IDOCK:   -1.03 KCAL/MOL
REMARK 927      BINDING AFFINITY PREDICTED BY RF-SCORE:    0.00 PKD
ROOT
HETATM    1  C   UNL     1      -7.405   7.205  62.580  1.00  0.00    -0.083 C  
HETATM    2  O   UNL     1      -8.125   8.100  63.421  1.00  0.00    -0.156 OA 
ENDROOT
BRANCH   2   3
HETATM    3  C   UNL     1      -8.280   7.726  64.731  1.00  0.00    -0.096 A  
HETATM    4  C   UNL     1      -8.549   8.561  65.825  1.00  0.00    -0.168 A  
HETATM    5  C   UNL     1      -8.706   7.981  67.086  1.00  0.00    -0.134 A  
HETATM    6  N   UNL     1      -8.990   4.555  68.725  1.00  0.00    -0.105 NA 
HETATM    7  C   UNL     1      -8.631   6.593  67.292  1.00  0.00    -0.119 A  
HETATM    8  C   UNL     1      -7.964   3.899  67.902  1.00  0.00    -0.085 C  
HETATM    9  C   UNL     1      -8.853   6.027  68.689  1.00  0.00    -0.109 C  
HETATM   10  C   UNL     1     -10.130   6.588  69.342  1.00  0.00    -0.198 C  
HETATM   11  C   UNL     1     -10.249   6.167  70.807  1.00  0.00    -0.198 C  
HETATM   12  C   UNL     1      -8.039   4.305  66.421  1.00  0.00    -0.102 C  
HETATM   13  C   UNL     1     -10.081   4.642  70.977  1.00  0.00    -0.246 C  
HETATM   14  C   UNL     1      -8.913   4.100  70.121  1.00  0.00    -0.090 C  
HETATM   15  C   UNL     1      -8.107   6.351  64.944  1.00  0.00    -0.120 A  
HETATM   16  C   UNL     1      -8.261   5.781  66.219  1.00  0.00    -0.109 A  
BRANCH   4  17
HETATM   17  O   UNL     1      -8.578   9.919  65.642  1.00  0.00    -0.136 OA 
HETATM   18  C   UNL     1      -9.728  10.600  66.134  1.00  0.00    -0.205 C  
ENDBRANCH   4  17
BRANCH  11  19
HETATM   19  O   UNL     1     -11.568   6.548  71.275  1.00  0.00    -0.301 OA 
BRANCH  19  20
HETATM   20  C   UNL     1     -11.660   7.553  72.192  1.00  0.00    -0.298 C  
HETATM   21  O   UNL     1     -11.081   7.552  73.275  1.00  0.00    -0.378 OA 
BRANCH  20  22
HETATM   22  C   UNL     1     -12.580   8.711  71.717  1.00  0.00    -0.349 C  
HETATM   23  C   UNL     1     -10.666   9.948  70.552  1.00  0.00    -0.382 C  
HETATM   24  C   UNL     1     -12.736  11.202  71.109  1.00  0.00    -0.510 C  
HETATM   25  H2  UNL     1     -13.435   8.992  73.604  1.00  0.00     0.000 HD 
HETATM   26  H1  UNL     1     -14.338   9.628  72.325  1.00  0.00     0.000 HD 
HETATM   27  C   UNL     1     -11.818  10.054  71.560  1.00  0.00    -0.406 C  
HETATM   28  N   UNL     1     -13.734   8.867  72.637  1.00  0.00    -0.410 NA 
ENDBRANCH  20  22
ENDBRANCH  19  20
ENDBRANCH  11  19
BRANCH  13  29
HETATM   29  C   UNL     1      -9.833   4.236  72.453  1.00  0.00    -0.217 C  
HETATM   30  C   UNL     1     -10.397   2.884  74.502  1.00  0.00    -0.212 C  
HETATM   31  C   UNL     1     -10.553   1.799  72.253  1.00  0.00    -0.125 C  
HETATM   32  C   UNL     1     -10.715   3.111  73.022  1.00  0.00    -0.219 C  
ENDBRANCH  13  29
ENDBRANCH   2   3
TORSDOF 6
ENDMDL
MODEL       68
REMARK 921   NORMALIZED FREE ENERGY PREDICTED BY IDOCK:   -4.78 KCAL/MOL
REMARK 922        TOTAL FREE ENERGY PREDICTED BY IDOCK:   -7.27 KCAL/MOL
REMARK 923 INTER-LIGAND FREE ENERGY PREDICTED BY IDOCK:   -6.04 KCAL/MOL
REMARK 924 INTRA-LIGAND FREE ENERGY PREDICTED BY IDOCK:   -1.23 KCAL/MOL
REMARK 927      BINDING AFFINITY PREDICTED BY RF-SCORE:    0.00 PKD
ROOT
HETATM    1  C   UNL     1      -9.619   2.500  72.460  1.00  0.00    -0.110 C  
HETATM    2  O   UNL     1      -8.956   3.760  72.469  1.00  0.00    -0.102 OA 
ENDROOT
BRANCH   2   3
HETATM    3  C   UNL     1      -9.215   4.602  71.418  1.00  0.00    -0.142 A  
HETATM    4  C   UNL     1     -10.198   5.599  71.351  1.00  0.00    -0.214 A  
HETATM    5  C   UNL     1     -10.283   6.379  70.196  1.00  0.00    -0.229 A  
HETATM    6  N   UNL     1      -8.402   7.025  66.948  1.00  0.00    -0.116 NA 
HETATM    7  C   UNL     1      -9.403   6.219  69.112  1.00  0.00    -0.133 A  
HETATM    8  C   UNL     1      -8.054   5.622  66.683  1.00  0.00    -0.105 C  
HETATM    9  C   UNL     1      -9.528   7.134  67.900  1.00  0.00    -0.130 C  
HETATM   10  C   UNL     1      -9.602   8.618  68.303  1.00  0.00    -0.160 C  
HETATM   11  C   UNL     1      -9.916   9.516  67.106  1.00  0.00    -0.204 C  
HETATM   12  C   UNL     1      -7.625   4.865  67.951  1.00  0.00    -0.083 C  
HETATM   13  C   UNL     1      -8.966   9.238  65.922  1.00  0.00    -0.225 C  
HETATM   14  C   UNL     1      -8.757   7.722  65.703  1.00  0.00    -0.104 C  
HETATM   15  C   UNL     1      -8.397   4.370  70.302  1.00  0.00    -0.086 A  
HETATM   16  C   UNL     1      -8.496   5.158  69.143  1.00  0.00    -0.090 A  
BRANCH   4  17
HETATM   17  O   UNL     1     -11.089   5.733  72.385  1.00  0.00    -0.253 OA 
HETATM   18  C   UNL     1     -10.807   6.753  73.337  1.00  0.00    -0.253 C  
ENDBRANCH   4  17
BRANCH  11  19
HETATM   19  O   UNL     1      -9.750  10.894  67.526  1.00  0.00    -0.165 OA 
BRANCH  19  20
HETATM   20  C   UNL     1     -10.869  11.657  67.684  1.00  0.00    -0.225 C  
HETATM   21  O   UNL     1     -11.970  11.210  67.991  1.00  0.00    -0.625 OA 
BRANCH  20  22
HETATM   22  C   UNL     1     -10.601  13.167  67.434  1.00  0.00    -0.242 C  
HETATM   23  C   UNL     1     -11.349  13.047  64.990  1.00  0.00    -0.325 C  
HETATM   24  C   UNL     1      -9.954  14.967  65.720  1.00  0.00    -0.376 C  
HETATM   25  H2  UNL     1      -8.689  13.110  68.278  1.00  0.00     0.000 HD 
HETATM   26  H1  UNL     1      -9.366  14.656  68.185  1.00  0.00     0.000 HD 
HETATM   27  C   UNL     1     -10.238  13.475  65.958  1.00  0.00    -0.308 C  
HETATM   28  N   UNL     1      -9.543  13.664  68.349  1.00  0.00    -0.218 NA 
ENDBRANCH  20  22
ENDBRANCH  19  20
ENDBRANCH  11  19
BRANCH  13  29
HETATM   29  C   UNL     1      -9.480   9.856  64.595  1.00  0.00    -0.343 C  
HETATM   30  C   UNL     1      -9.152  11.272  62.538  1.00  0.00    -0.288 C  
HETATM   31  C   UNL     1      -7.262   9.842  63.339  1.00  0.00    -0.123 C  
HETATM   32  C   UNL     1      -8.470  10.673  63.772  1.00  0.00    -0.068 C  
ENDBRANCH  13  29
ENDBRANCH   2   3
TORSDOF 6
ENDMDL
MODEL       69
REMARK 921   NORMALIZED FREE ENERGY PREDICTED BY IDOCK:   -4.75 KCAL/MOL
REMARK 922        TOTAL FREE ENERGY PREDICTED BY IDOCK:   -7.24 KCAL/MOL
REMARK 923 INTER-LIGAND FREE ENERGY PREDICTED BY IDOCK:   -6.21 KCAL/MOL
REMARK 924 INTRA-LIGAND FREE ENERGY PREDICTED BY IDOCK:   -1.03 KCAL/MOL
REMARK 927      BINDING AFFINITY PREDICTED BY RF-SCORE:    0.00 PKD
ROOT
HETATM    1  C   UNL     1     -10.658  19.365  66.481  1.00  0.00    -0.458 C  
HETATM    2  O   UNL     1     -10.468  18.321  65.532  1.00  0.00    -0.616 OA 
ENDROOT
BRANCH   2   3
HETATM    3  C   UNL     1     -10.062  17.106  66.022  1.00  0.00    -0.288 A  
HETATM    4  C   UNL     1     -10.463  15.837  65.582  1.00  0.00    -0.383 A  
HETATM    5  C   UNL     1      -9.908  14.711  66.193  1.00  0.00    -0.334 A  
HETATM    6  N   UNL     1      -7.186  13.767  68.683  1.00  0.00    -0.105 NA 
HETATM    7  C   UNL     1      -8.944  14.804  67.212  1.00  0.00    -0.210 A  
HETATM    8  C   UNL     1      -7.427  14.878  69.614  1.00  0.00    -0.126 C  
HETATM    9  C   UNL     1      -8.351  13.532  67.805  1.00  0.00    -0.181 C  
HETATM   10  C   UNL     1      -7.871  12.556  66.714  1.00  0.00     0.119 C  
HETATM   11  C   UNL     1      -7.453  11.209  67.303  1.00  0.00    -0.118 C  
HETATM   12  C   UNL     1      -7.702  16.209  68.893  1.00  0.00    -0.207 C  
HETATM   13  C   UNL     1      -6.454  11.382  68.467  1.00  0.00    -0.056 C  
HETATM   14  C   UNL     1      -6.877  12.528  69.414  1.00  0.00     0.033 C  
HETATM   15  C   UNL     1      -9.175  17.208  67.104  1.00  0.00    -0.242 A  
HETATM   16  C   UNL     1      -8.629  16.067  67.715  1.00  0.00    -0.168 A  
BRANCH   4  17
HETATM   17  O   UNL     1     -11.436  15.736  64.621  1.00  0.00    -0.393 OA 
HETATM   18  C   UNL     1     -12.151  14.506  64.569  1.00  0.00    -0.484 C  
ENDBRANCH   4  17
BRANCH  11  19
HETATM   19  O   UNL     1      -6.816  10.440  66.250  1.00  0.00    -0.102 OA 
BRANCH  19  20
HETATM   20  C   UNL     1      -7.604   9.656  65.460  1.00  0.00    -0.109 C  
HETATM   21  O   UNL     1      -7.279   9.253  64.347  1.00  0.00    -0.094 OA 
BRANCH  20  22
HETATM   22  C   UNL     1      -8.968   9.321  66.125  1.00  0.00    -0.165 C  
HETATM   23  C   UNL     1      -8.082   7.173  67.198  1.00  0.00    -0.114 C  
HETATM   24  C   UNL     1     -10.537   7.467  66.963  1.00  0.00    -0.409 C  
HETATM   25  H2  UNL     1     -10.056   9.616  64.365  1.00  0.00     0.000 HD 
HETATM   26  H1  UNL     1     -10.980   9.686  65.778  1.00  0.00     0.000 HD 
HETATM   27  C   UNL     1      -9.178   7.796  66.323  1.00  0.00    -0.217 C  
HETATM   28  N   UNL     1     -10.084   9.907  65.342  1.00  0.00    -0.281 NA 
ENDBRANCH  20  22
ENDBRANCH  19  20
ENDBRANCH  11  19
BRANCH  13  29
HETATM   29  C   UNL     1      -6.298  10.088  69.308  1.00  0.00    -0.045 C  
HETATM   30  C   UNL     1      -7.011   8.568  71.185  1.00  0.00    -0.070 C  
HETATM   31  C   UNL     1      -8.766   9.732  69.835  1.00  0.00    -0.238 C  
HETATM   32  C   UNL     1      -7.350   9.839  70.402  1.00  0.00    -0.151 C  
ENDBRANCH  13  29
ENDBRANCH   2   3
TORSDOF 6
ENDMDL
MODEL       70
REMARK 921   NORMALIZED FREE ENERGY PREDICTED BY IDOCK:   -4.74 KCAL/MOL
REMARK 922        TOTAL FREE ENERGY PREDICTED BY IDOCK:   -7.23 KCAL/MOL
REMARK 923 INTER-LIGAND FREE ENERGY PREDICTED BY IDOCK:   -6.92 KCAL/MOL
REMARK 924 INTRA-LIGAND FREE ENERGY PREDICTED BY IDOCK:   -0.31 KCAL/MOL
REMARK 927      BINDING AFFINITY PREDICTED BY RF-SCORE:    0.00 PKD
ROOT
HETATM    1  C   UNL     1      -8.010  19.716  68.847  1.00  0.00    -0.250 C  
HETATM    2  O   UNL     1      -8.950  19.415  67.822  1.00  0.00    -0.299 OA 
ENDROOT
BRANCH   2   3
HETATM    3  C   UNL     1      -9.172  18.089  67.556  1.00  0.00    -0.253 A  
HETATM    4  C   UNL     1      -8.544  17.303  66.578  1.00  0.00    -0.264 A  
HETATM    5  C   UNL     1      -8.887  15.953  66.484  1.00  0.00    -0.340 A  
HETATM    6  N   UNL     1     -10.907  13.303  68.329  1.00  0.00    -0.248 NA 
HETATM    7  C   UNL     1      -9.814  15.349  67.350  1.00  0.00    -0.216 A  
HETATM    8  C   UNL     1     -12.043  14.173  68.664  1.00  0.00    -0.285 C  
HETATM    9  C   UNL     1     -10.109  13.859  67.216  1.00  0.00    -0.242 C  
HETATM   10  C   UNL     1      -8.819  13.020  67.156  1.00  0.00    -0.218 C  
HETATM   11  C   UNL     1      -9.112  11.554  66.833  1.00  0.00    -0.179 C  
HETATM   12  C   UNL     1     -11.606  15.580  69.105  1.00  0.00    -0.374 C  
HETATM   13  C   UNL     1     -10.193  10.970  67.767  1.00  0.00    -0.210 C  
HETATM   14  C   UNL     1     -11.368  11.955  67.963  1.00  0.00    -0.288 C  
HETATM   15  C   UNL     1     -10.170  17.517  68.359  1.00  0.00    -0.372 A  
HETATM   16  C   UNL     1     -10.510  16.158  68.250  1.00  0.00    -0.276 A  
BRANCH   4  17
HETATM   17  O   UNL     1      -7.672  17.894  65.701  1.00  0.00    -0.541 OA 
HETATM   18  C   UNL     1      -6.295  17.865  66.060  1.00  0.00    -0.253 C  
ENDBRANCH   4  17
BRANCH  11  19
HETATM   19  O   UNL     1      -7.883  10.804  67.013  1.00  0.00    -0.113 OA 
BRANCH  19  20
HETATM   20  C   UNL     1      -7.071  11.141  68.056  1.00  0.00    -0.073 C  
HETATM   21  O   UNL     1      -6.587  12.258  68.219  1.00  0.00    -0.051 OA 
BRANCH  20  22
HETATM   22  C   UNL     1      -6.825   9.954  69.028  1.00  0.00    -0.054 C  
HETATM   23  C   UNL     1      -6.188   8.350  67.138  1.00  0.00    -0.056 C  
HETATM   24  C   UNL     1      -6.857   7.403  69.335  1.00  0.00    -0.053 C  
HETATM   25  H2  UNL     1      -8.637  10.221  70.035  1.00  0.00     0.000 HD 
HETATM   26  H1  UNL     1      -7.485   9.328  70.891  1.00  0.00     0.000 HD 
HETATM   27  C   UNL     1      -7.082   8.575  68.364  1.00  0.00    -0.084 C  
HETATM   28  N   UNL     1      -7.647  10.108  70.253  1.00  0.00    -0.226 NA 
ENDBRANCH  20  22
ENDBRANCH  19  20
ENDBRANCH  11  19
BRANCH  13  29
HETATM   29  C   UNL     1     -10.766   9.628  67.240  1.00  0.00    -0.284 C  
HETATM   30  C   UNL     1     -10.893   7.113  67.266  1.00  0.00    -0.382 C  
HETATM   31  C   UNL     1     -10.664   8.338  69.435  1.00  0.00    -0.160 C  
HETATM   32  C   UNL     1     -10.298   8.346  67.951  1.00  0.00    -0.279 C  
ENDBRANCH  13  29
ENDBRANCH   2   3
TORSDOF 6
ENDMDL
MODEL       71
REMARK 921   NORMALIZED FREE ENERGY PREDICTED BY IDOCK:   -4.74 KCAL/MOL
REMARK 922        TOTAL FREE ENERGY PREDICTED BY IDOCK:   -7.22 KCAL/MOL
REMARK 923 INTER-LIGAND FREE ENERGY PREDICTED BY IDOCK:   -6.61 KCAL/MOL
REMARK 924 INTRA-LIGAND FREE ENERGY PREDICTED BY IDOCK:   -0.60 KCAL/MOL
REMARK 927      BINDING AFFINITY PREDICTED BY RF-SCORE:    0.00 PKD
ROOT
HETATM    1  C   UNL     1     -14.373   8.808  72.221  1.00  0.00    -0.380 C  
HETATM    2  O   UNL     1     -13.189   9.585  72.367  1.00  0.00    -0.431 OA 
ENDROOT
BRANCH   2   3
HETATM    3  C   UNL     1     -12.284   9.530  71.339  1.00  0.00    -0.371 A  
HETATM    4  C   UNL     1     -11.253   8.596  71.165  1.00  0.00    -0.272 A  
HETATM    5  C   UNL     1     -10.450   8.689  70.027  1.00  0.00    -0.229 A  
HETATM    6  N   UNL     1     -10.235  10.596  66.737  1.00  0.00    -0.224 NA 
HETATM    7  C   UNL     1     -10.655   9.667  69.038  1.00  0.00    -0.237 A  
HETATM    8  C   UNL     1     -10.632  11.902  67.283  1.00  0.00    -0.228 C  
HETATM    9  C   UNL     1      -9.765   9.684  67.801  1.00  0.00    -0.146 C  
HETATM   10  C   UNL     1      -9.655   8.292  67.151  1.00  0.00    -0.234 C  
HETATM   11  C   UNL     1      -8.618   8.272  66.027  1.00  0.00    -0.149 C  
HETATM   12  C   UNL     1     -11.778  11.797  68.302  1.00  0.00    -0.377 C  
HETATM   13  C   UNL     1      -8.850   9.415  65.017  1.00  0.00    -0.234 C  
HETATM   14  C   UNL     1      -9.173  10.748  65.731  1.00  0.00    -0.189 C  
HETATM   15  C   UNL     1     -12.432  10.568  70.407  1.00  0.00    -0.392 A  
HETATM   16  C   UNL     1     -11.614  10.655  69.269  1.00  0.00    -0.346 A  
BRANCH   4  17
HETATM   17  O   UNL     1     -11.017   7.667  72.146  1.00  0.00    -0.231 OA 
HETATM   18  C   UNL     1     -11.533   6.360  71.918  1.00  0.00    -0.304 C  
ENDBRANCH   4  17
BRANCH  11  19
HETATM   19  O   UNL     1      -8.736   7.003  65.334  1.00  0.00    -0.094 OA 
BRANCH  19  20
HETATM   20  C   UNL     1      -8.329   5.875  65.983  1.00  0.00    -0.128 C  
HETATM   21  O   UNL     1      -7.352   5.823  66.727  1.00  0.00    -0.077 OA 
BRANCH  20  22
HETATM   22  C   UNL     1      -9.240   4.653  65.684  1.00  0.00    -0.151 C  
HETATM   23  C   UNL     1      -7.912   3.988  63.600  1.00  0.00    -0.088 C  
HETATM   24  C   UNL     1     -10.218   3.109  63.879  1.00  0.00    -0.194 C  
HETATM   25  H2  UNL     1     -11.009   5.748  65.880  1.00  0.00     0.000 HD 
HETATM   26  H1  UNL     1     -11.202   4.075  66.028  1.00  0.00     0.000 HD 
HETATM   27  C   UNL     1      -9.299   4.306  64.173  1.00  0.00    -0.145 C  
HETATM   28  N   UNL     1     -10.603   4.878  66.225  1.00  0.00    -0.305 NA 
ENDBRANCH  20  22
ENDBRANCH  19  20
ENDBRANCH  11  19
BRANCH  13  29
HETATM   29  C   UNL     1      -7.626   9.643  64.092  1.00  0.00    -0.128 C  
HETATM   30  C   UNL     1      -5.316  10.548  63.657  1.00  0.00    -0.161 C  
HETATM   31  C   UNL     1      -5.823   9.539  65.890  1.00  0.00    -0.054 C  
HETATM   32  C   UNL     1      -6.401  10.332  64.716  1.00  0.00    -0.114 C  
ENDBRANCH  13  29
ENDBRANCH   2   3
TORSDOF 6
ENDMDL
MODEL       72
REMARK 921   NORMALIZED FREE ENERGY PREDICTED BY IDOCK:   -4.74 KCAL/MOL
REMARK 922        TOTAL FREE ENERGY PREDICTED BY IDOCK:   -7.22 KCAL/MOL
REMARK 923 INTER-LIGAND FREE ENERGY PREDICTED BY IDOCK:   -8.77 KCAL/MOL
REMARK 924 INTRA-LIGAND FREE ENERGY PREDICTED BY IDOCK:    1.56 KCAL/MOL
REMARK 927      BINDING AFFINITY PREDICTED BY RF-SCORE:    0.00 PKD
ROOT
HETATM    1  C   UNL     1      -7.296  20.533  67.551  1.00  0.00    -0.323 C  
HETATM    2  O   UNL     1      -7.925  19.767  66.528  1.00  0.00    -0.288 OA 
ENDROOT
BRANCH   2   3
HETATM    3  C   UNL     1      -8.481  18.572  66.906  1.00  0.00    -0.273 A  
HETATM    4  C   UNL     1      -9.846  18.267  67.009  1.00  0.00    -0.326 A  
HETATM    5  C   UNL     1     -10.215  16.973  67.382  1.00  0.00    -0.314 A  
HETATM    6  N   UNL     1      -8.677  13.542  67.986  1.00  0.00    -0.172 NA 
HETATM    7  C   UNL     1      -9.272  15.962  67.629  1.00  0.00    -0.208 A  
HETATM    8  C   UNL     1      -7.470  14.026  68.671  1.00  0.00    -0.125 C  
HETATM    9  C   UNL     1      -9.749  14.560  67.991  1.00  0.00    -0.218 C  
HETATM   10  C   UNL     1     -10.827  14.049  67.018  1.00  0.00    -0.291 C  
HETATM   11  C   UNL     1     -11.436  12.728  67.491  1.00  0.00    -0.336 C  
HETATM   12  C   UNL     1      -6.877  15.284  68.014  1.00  0.00    -0.152 C  
HETATM   13  C   UNL     1     -10.348  11.685  67.820  1.00  0.00    -0.202 C  
HETATM   14  C   UNL     1      -9.180  12.312  68.616  1.00  0.00     0.001 C  
HETATM   15  C   UNL     1      -7.533  17.597  67.246  1.00  0.00    -0.210 A  
HETATM   16  C   UNL     1      -7.918  16.300  67.626  1.00  0.00    -0.160 A  
BRANCH   4  17
HETATM   17  O   UNL     1     -10.772  19.259  66.814  1.00  0.00    -0.442 OA 
HETATM   18  C   UNL     1     -10.894  19.759  65.487  1.00  0.00    -0.151 C  
ENDBRANCH   4  17
BRANCH  11  19
HETATM   19  O   UNL     1     -12.270  12.214  66.421  1.00  0.00    -0.592 OA 
BRANCH  19  20
HETATM   20  C   UNL     1     -12.622  13.065  65.415  1.00  0.00    -0.422 C  
HETATM   21  O   UNL     1     -13.226  14.121  65.586  1.00  0.00    -0.615 OA 
BRANCH  20  22
HETATM   22  C   UNL     1     -12.173  12.555  64.018  1.00  0.00    -0.480 C  
HETATM   23  C   UNL     1     -10.534  10.855  65.003  1.00  0.00    -0.331 C  
HETATM   24  C   UNL     1     -10.271  11.531  62.628  1.00  0.00     0.216 C  
HETATM   25  H2  UNL     1     -11.853  14.478  63.265  1.00  0.00     0.000 HD 
HETATM   26  H1  UNL     1     -12.043  13.287  62.082  1.00  0.00     0.000 HD 
HETATM   27  C   UNL     1     -10.719  12.015  64.017  1.00  0.00    -0.426 C  
HETATM   28  N   UNL     1     -12.338  13.621  62.999  1.00  0.00    -0.550 NA 
ENDBRANCH  20  22
ENDBRANCH  19  20
ENDBRANCH  11  19
BRANCH  13  29
HETATM   29  C   UNL     1     -10.905  10.488  68.635  1.00  0.00    -0.276 C  
HETATM   30  C   UNL     1     -11.662   9.443  70.798  1.00  0.00    -0.349 C  
HETATM   31  C   UNL     1     -12.234  11.835  70.342  1.00  0.00    -0.416 C  
HETATM   32  C   UNL     1     -11.193  10.736  70.125  1.00  0.00    -0.345 C  
ENDBRANCH  13  29
ENDBRANCH   2   3
TORSDOF 6
ENDMDL
MODEL       73
REMARK 921   NORMALIZED FREE ENERGY PREDICTED BY IDOCK:   -4.73 KCAL/MOL
REMARK 922        TOTAL FREE ENERGY PREDICTED BY IDOCK:   -7.21 KCAL/MOL
REMARK 923 INTER-LIGAND FREE ENERGY PREDICTED BY IDOCK:   -6.19 KCAL/MOL
REMARK 924 INTRA-LIGAND FREE ENERGY PREDICTED BY IDOCK:   -1.02 KCAL/MOL
REMARK 927      BINDING AFFINITY PREDICTED BY RF-SCORE:    0.00 PKD
ROOT
HETATM    1  C   UNL     1     -10.193   3.328  74.483  1.00  0.00    -0.178 C  
HETATM    2  O   UNL     1     -11.070   3.584  73.391  1.00  0.00    -0.211 OA 
ENDROOT
BRANCH   2   3
HETATM    3  C   UNL     1     -10.716   4.597  72.538  1.00  0.00    -0.149 A  
HETATM    4  C   UNL     1      -9.768   4.545  71.506  1.00  0.00    -0.175 A  
HETATM    5  C   UNL     1      -9.572   5.683  70.721  1.00  0.00    -0.213 A  
HETATM    6  N   UNL     1     -11.063   9.138  70.137  1.00  0.00    -0.240 NA 
HETATM    7  C   UNL     1     -10.306   6.866  70.910  1.00  0.00    -0.218 A  
HETATM    8  C   UNL     1     -11.325   9.441  71.551  1.00  0.00    -0.394 C  
HETATM    9  C   UNL     1     -10.067   8.056  69.989  1.00  0.00    -0.196 C  
HETATM   10  C   UNL     1     -10.097   7.650  68.504  1.00  0.00    -0.205 C  
HETATM   11  C   UNL     1      -9.672   8.802  67.593  1.00  0.00    -0.169 C  
HETATM   12  C   UNL     1     -11.879   8.233  72.325  1.00  0.00    -0.451 C  
HETATM   13  C   UNL     1     -10.459  10.093  67.902  1.00  0.00    -0.265 C  
HETATM   14  C   UNL     1     -10.584  10.332  69.424  1.00  0.00    -0.237 C  
HETATM   15  C   UNL     1     -11.382   5.804  72.797  1.00  0.00    -0.328 A  
HETATM   16  C   UNL     1     -11.170   6.944  72.004  1.00  0.00    -0.292 A  
BRANCH   4  17
HETATM   17  O   UNL     1      -9.016   3.411  71.342  1.00  0.00    -0.087 OA 
HETATM   18  C   UNL     1      -9.090   2.780  70.068  1.00  0.00    -0.119 C  
ENDBRANCH   4  17
BRANCH  11  19
HETATM   19  O   UNL     1      -9.938   8.408  66.222  1.00  0.00    -0.245 OA 
BRANCH  19  20
HETATM   20  C   UNL     1      -8.941   7.791  65.526  1.00  0.00     0.062 C  
HETATM   21  O   UNL     1      -8.747   6.579  65.529  1.00  0.00    -0.136 OA 
BRANCH  20  22
HETATM   22  C   UNL     1      -8.071   8.793  64.717  1.00  0.00    -0.151 C  
HETATM   23  C   UNL     1      -6.030   8.464  66.226  1.00  0.00    -0.045 C  
HETATM   24  C   UNL     1      -6.139  10.485  64.787  1.00  0.00    -0.057 C  
HETATM   25  H2  UNL     1      -9.538  10.281  64.715  1.00  0.00     0.000 HD 
HETATM   26  H1  UNL     1      -8.356  10.462  63.520  1.00  0.00     0.000 HD 
HETATM   27  C   UNL     1      -6.985   9.480  65.587  1.00  0.00    -0.092 C  
HETATM   28  N   UNL     1      -8.928   9.804  64.051  1.00  0.00    -0.232 NA 
ENDBRANCH  20  22
ENDBRANCH  19  20
ENDBRANCH  11  19
BRANCH  13  29
HETATM   29  C   UNL     1      -9.810  11.348  67.263  1.00  0.00    -0.209 C  
HETATM   30  C   UNL     1      -9.922  13.404  65.813  1.00  0.00    -0.264 C  
HETATM   31  C   UNL     1     -11.883  12.830  67.255  1.00  0.00    -0.414 C  
HETATM   32  C   UNL     1     -10.728  12.259  66.431  1.00  0.00    -0.284 C  
ENDBRANCH  13  29
ENDBRANCH   2   3
TORSDOF 6
ENDMDL
MODEL       74
REMARK 921   NORMALIZED FREE ENERGY PREDICTED BY IDOCK:   -4.70 KCAL/MOL
REMARK 922        TOTAL FREE ENERGY PREDICTED BY IDOCK:   -7.16 KCAL/MOL
REMARK 923 INTER-LIGAND FREE ENERGY PREDICTED BY IDOCK:   -6.83 KCAL/MOL
REMARK 924 INTRA-LIGAND FREE ENERGY PREDICTED BY IDOCK:   -0.33 KCAL/MOL
REMARK 927      BINDING AFFINITY PREDICTED BY RF-SCORE:    0.00 PKD
ROOT
HETATM    1  C   UNL     1     -11.926  14.137  64.039  1.00  0.00    -0.327 C  
HETATM    2  O   UNL     1     -10.804  13.855  64.869  1.00  0.00    -0.358 OA 
ENDROOT
BRANCH   2   3
HETATM    3  C   UNL     1     -10.889  12.743  65.666  1.00  0.00    -0.273 A  
HETATM    4  C   UNL     1     -10.664  11.411  65.291  1.00  0.00    -0.265 A  
HETATM    5  C   UNL     1     -10.769  10.415  66.264  1.00  0.00    -0.107 A  
HETATM    6  N   UNL     1     -11.202  10.025  70.027  1.00  0.00    -0.271 NA 
HETATM    7  C   UNL     1     -11.066  10.702  67.607  1.00  0.00    -0.385 A  
HETATM    8  C   UNL     1     -12.183  11.108  70.189  1.00  0.00    -0.337 C  
HETATM    9  C   UNL     1     -11.125   9.568  68.624  1.00  0.00     0.012 C  
HETATM   10  C   UNL     1      -9.887   8.655  68.541  1.00  0.00    -0.183 C  
HETATM   11  C   UNL     1     -10.036   7.417  69.426  1.00  0.00    -0.185 C  
HETATM   12  C   UNL     1     -11.843  12.349  69.347  1.00  0.00    -0.365 C  
HETATM   13  C   UNL     1     -10.438   7.793  70.868  1.00  0.00    -0.214 C  
HETATM   14  C   UNL     1     -11.538   8.880  70.887  1.00  0.00    -0.283 C  
HETATM   15  C   UNL     1     -11.282  13.028  66.982  1.00  0.00    -0.325 A  
HETATM   16  C   UNL     1     -11.391  12.016  67.950  1.00  0.00    -0.369 A  
BRANCH   4  17
HETATM   17  O   UNL     1     -10.418  11.117  63.974  1.00  0.00    -0.339 OA 
HETATM   18  C   UNL     1      -9.411  10.144  63.719  1.00  0.00    -0.288 C  
ENDBRANCH   4  17
BRANCH  11  19
HETATM   19  O   UNL     1      -8.756   6.736  69.459  1.00  0.00    -0.132 OA 
BRANCH  19  20
HETATM   20  C   UNL     1      -7.765   7.268  70.231  1.00  0.00    -0.094 C  
HETATM   21  O   UNL     1      -7.280   6.710  71.211  1.00  0.00    -0.075 OA 
BRANCH  20  22
HETATM   22  C   UNL     1      -7.307   8.667  69.732  1.00  0.00    -0.052 C  
HETATM   23  C   UNL     1      -5.941   7.691  67.800  1.00  0.00    -0.040 C  
HETATM   24  C   UNL     1      -5.472  10.014  68.542  1.00  0.00    -0.039 C  
HETATM   25  H2  UNL     1      -6.716   9.305  71.631  1.00  0.00     0.000 HD 
HETATM   26  H1  UNL     1      -6.985  10.555  70.526  1.00  0.00     0.000 HD 
HETATM   27  C   UNL     1      -5.931   8.625  69.016  1.00  0.00    -0.043 C  
HETATM   28  N   UNL     1      -7.286   9.637  70.854  1.00  0.00    -0.322 NA 
ENDBRANCH  20  22
ENDBRANCH  19  20
ENDBRANCH  11  19
BRANCH  13  29
HETATM   29  C   UNL     1     -10.947   6.572  71.677  1.00  0.00    -0.291 C  
HETATM   30  C   UNL     1     -10.670   4.846  73.490  1.00  0.00    -0.341 C  
HETATM   31  C   UNL     1      -9.881   7.183  73.909  1.00  0.00    -0.346 C  
HETATM   32  C   UNL     1     -10.068   6.099  72.847  1.00  0.00    -0.196 C  
ENDBRANCH  13  29
ENDBRANCH   2   3
TORSDOF 6
ENDMDL
MODEL       75
REMARK 921   NORMALIZED FREE ENERGY PREDICTED BY IDOCK:   -4.69 KCAL/MOL
REMARK 922        TOTAL FREE ENERGY PREDICTED BY IDOCK:   -7.16 KCAL/MOL
REMARK 923 INTER-LIGAND FREE ENERGY PREDICTED BY IDOCK:   -6.77 KCAL/MOL
REMARK 924 INTRA-LIGAND FREE ENERGY PREDICTED BY IDOCK:   -0.39 KCAL/MOL
REMARK 927      BINDING AFFINITY PREDICTED BY RF-SCORE:    0.00 PKD
ROOT
HETATM    1  C   UNL     1      -7.567  19.885  66.100  1.00  0.00    -0.324 C  
HETATM    2  O   UNL     1      -7.559  18.661  65.373  1.00  0.00    -0.433 OA 
ENDROOT
BRANCH   2   3
HETATM    3  C   UNL     1      -7.771  17.513  66.092  1.00  0.00    -0.268 A  
HETATM    4  C   UNL     1      -8.999  16.886  66.347  1.00  0.00    -0.283 A  
HETATM    5  C   UNL     1      -9.003  15.697  67.079  1.00  0.00    -0.244 A  
HETATM    6  N   UNL     1      -6.586  13.132  68.523  1.00  0.00    -0.080 NA 
HETATM    7  C   UNL     1      -7.822  15.095  67.546  1.00  0.00    -0.203 A  
HETATM    8  C   UNL     1      -5.582  14.101  68.984  1.00  0.00    -0.087 C  
HETATM    9  C   UNL     1      -7.899  13.775  68.304  1.00  0.00    -0.144 C  
HETATM   10  C   UNL     1      -8.764  12.736  67.567  1.00  0.00    -0.185 C  
HETATM   11  C   UNL     1      -8.994  11.485  68.415  1.00  0.00    -0.173 C  
HETATM   12  C   UNL     1      -5.344  15.238  67.977  1.00  0.00    -0.133 C  
HETATM   13  C   UNL     1      -7.667  10.917  68.961  1.00  0.00    -0.135 C  
HETATM   14  C   UNL     1      -6.743  12.037  69.492  1.00  0.00    -0.035 C  
HETATM   15  C   UNL     1      -6.598  16.972  66.638  1.00  0.00    -0.272 A  
HETATM   16  C   UNL     1      -6.616  15.779  67.379  1.00  0.00    -0.215 A  
BRANCH   4  17
HETATM   17  O   UNL     1     -10.159  17.489  65.935  1.00  0.00    -0.505 OA 
HETATM   18  C   UNL     1     -10.600  18.605  66.701  1.00  0.00    -0.359 C  
ENDBRANCH   4  17
BRANCH  11  19
HETATM   19  O   UNL     1      -9.621  10.484  67.573  1.00  0.00    -0.158 OA 
BRANCH  19  20
HETATM   20  C   UNL     1     -10.770  10.822  66.921  1.00  0.00    -0.252 C  
HETATM   21  O   UNL     1     -11.787  11.223  67.480  1.00  0.00    -0.613 OA 
BRANCH  20  22
HETATM   22  C   UNL     1     -10.655  10.647  65.381  1.00  0.00    -0.115 C  
HETATM   23  C   UNL     1      -9.022   8.687  65.578  1.00  0.00    -0.209 C  
HETATM   24  C   UNL     1      -9.169   9.907  63.420  1.00  0.00    -0.278 C  
HETATM   25  H2  UNL     1     -10.309  12.679  65.037  1.00  0.00     0.000 HD 
HETATM   26  H1  UNL     1     -10.840  11.821  63.681  1.00  0.00     0.000 HD 
HETATM   27  C   UNL     1      -9.287  10.060  64.946  1.00  0.00    -0.324 C  
HETATM   28  N   UNL     1     -10.916  11.935  64.692  1.00  0.00    -0.305 NA 
ENDBRANCH  20  22
ENDBRANCH  19  20
ENDBRANCH  11  19
BRANCH  13  29
HETATM   29  C   UNL     1      -7.891   9.889  70.102  1.00  0.00    -0.186 C  
HETATM   30  C   UNL     1      -8.179   7.528  70.930  1.00  0.00    -0.112 C  
HETATM   31  C   UNL     1      -6.533   7.979  69.101  1.00  0.00    -0.036 C  
HETATM   32  C   UNL     1      -7.870   8.402  69.711  1.00  0.00    -0.099 C  
ENDBRANCH  13  29
ENDBRANCH   2   3
TORSDOF 6
ENDMDL
MODEL       76
REMARK 921   NORMALIZED FREE ENERGY PREDICTED BY IDOCK:   -4.64 KCAL/MOL
REMARK 922        TOTAL FREE ENERGY PREDICTED BY IDOCK:   -7.09 KCAL/MOL
REMARK 923 INTER-LIGAND FREE ENERGY PREDICTED BY IDOCK:   -6.45 KCAL/MOL
REMARK 924 INTRA-LIGAND FREE ENERGY PREDICTED BY IDOCK:   -0.64 KCAL/MOL
REMARK 927      BINDING AFFINITY PREDICTED BY RF-SCORE:    0.00 PKD
ROOT
HETATM    1  C   UNL     1      -7.929  19.596  66.001  1.00  0.00    -0.328 C  
HETATM    2  O   UNL     1      -7.632  18.376  65.331  1.00  0.00    -0.442 OA 
ENDROOT
BRANCH   2   3
HETATM    3  C   UNL     1      -7.732  17.225  66.070  1.00  0.00    -0.188 A  
HETATM    4  C   UNL     1      -8.867  16.419  66.236  1.00  0.00    -0.332 A  
HETATM    5  C   UNL     1      -8.758  15.261  67.008  1.00  0.00    -0.260 A  
HETATM    6  N   UNL     1      -6.124  13.137  68.756  1.00  0.00    -0.074 NA 
HETATM    7  C   UNL     1      -7.548  14.861  67.601  1.00  0.00    -0.201 A  
HETATM    8  C   UNL     1      -5.328  14.261  69.270  1.00  0.00    -0.081 C  
HETATM    9  C   UNL     1      -7.493  13.562  68.397  1.00  0.00    -0.124 C  
HETATM   10  C   UNL     1      -8.115  12.385  67.623  1.00  0.00    -0.168 C  
HETATM   11  C   UNL     1      -8.229  11.133  68.492  1.00  0.00    -0.149 C  
HETATM   12  C   UNL     1      -5.174  15.399  68.247  1.00  0.00    -0.110 C  
HETATM   13  C   UNL     1      -6.889  10.790  69.176  1.00  0.00    -0.084 C  
HETATM   14  C   UNL     1      -6.202  12.053  69.746  1.00  0.00    -0.136 C  
HETATM   15  C   UNL     1      -6.546  16.885  66.739  1.00  0.00    -0.260 A  
HETATM   16  C   UNL     1      -6.451  15.721  67.518  1.00  0.00    -0.203 A  
BRANCH   4  17
HETATM   17  O   UNL     1     -10.062  16.825  65.700  1.00  0.00    -0.534 OA 
HETATM   18  C   UNL     1     -10.852  15.817  65.079  1.00  0.00    -0.443 C  
ENDBRANCH   4  17
BRANCH  11  19
HETATM   19  O   UNL     1      -8.612  10.028  67.634  1.00  0.00    -0.118 OA 
BRANCH  19  20
HETATM   20  C   UNL     1      -9.929   9.899  67.302  1.00  0.00    -0.196 C  
HETATM   21  O   UNL     1     -10.360   9.962  66.154  1.00  0.00    -0.230 OA 
BRANCH  20  22
HETATM   22  C   UNL     1     -10.835   9.657  68.541  1.00  0.00    -0.161 C  
HETATM   23  C   UNL     1     -11.888  11.986  68.408  1.00  0.00    -0.360 C  
HETATM   24  C   UNL     1     -12.050  10.721  70.539  1.00  0.00    -0.459 C  
HETATM   25  H2  UNL     1      -9.268   8.936  69.720  1.00  0.00     0.000 HD 
HETATM   26  H1  UNL     1     -10.808   8.506  70.266  1.00  0.00     0.000 HD 
HETATM   27  C   UNL     1     -11.170  10.967  69.302  1.00  0.00    -0.327 C  
HETATM   28  N   UNL     1     -10.213   8.664  69.452  1.00  0.00    -0.206 NA 
ENDBRANCH  20  22
ENDBRANCH  19  20
ENDBRANCH  11  19
BRANCH  13  29
HETATM   29  C   UNL     1      -7.058   9.766  70.329  1.00  0.00    -0.145 C  
HETATM   30  C   UNL     1      -7.115   7.404  71.201  1.00  0.00    -0.059 C  
HETATM   31  C   UNL     1      -5.425   8.013  69.460  1.00  0.00    -0.026 C  
HETATM   32  C   UNL     1      -6.837   8.284  69.980  1.00  0.00    -0.043 C  
ENDBRANCH  13  29
ENDBRANCH   2   3
TORSDOF 6
ENDMDL
MODEL       77
REMARK 921   NORMALIZED FREE ENERGY PREDICTED BY IDOCK:   -4.56 KCAL/MOL
REMARK 922        TOTAL FREE ENERGY PREDICTED BY IDOCK:   -6.98 KCAL/MOL
REMARK 923 INTER-LIGAND FREE ENERGY PREDICTED BY IDOCK:   -7.29 KCAL/MOL
REMARK 924 INTRA-LIGAND FREE ENERGY PREDICTED BY IDOCK:    0.31 KCAL/MOL
REMARK 927      BINDING AFFINITY PREDICTED BY RF-SCORE:    0.00 PKD
ROOT
HETATM    1  C   UNL     1      -6.525   7.525  67.133  1.00  0.00    -0.061 C  
HETATM    2  O   UNL     1      -7.329   8.083  68.167  1.00  0.00    -0.091 OA 
ENDROOT
BRANCH   2   3
HETATM    3  C   UNL     1      -7.857   9.327  67.936  1.00  0.00    -0.092 A  
HETATM    4  C   UNL     1      -9.188   9.639  67.625  1.00  0.00    -0.130 A  
HETATM    5  C   UNL     1      -9.539  10.980  67.455  1.00  0.00    -0.178 A  
HETATM    6  N   UNL     1      -8.076  14.471  67.877  1.00  0.00    -0.136 NA 
HETATM    7  C   UNL     1      -8.614  12.026  67.612  1.00  0.00    -0.163 A  
HETATM    8  C   UNL     1      -6.738  14.146  67.365  1.00  0.00     0.038 C  
HETATM    9  C   UNL     1      -9.077  13.469  67.452  1.00  0.00    -0.219 C  
HETATM   10  C   UNL     1     -10.347  13.762  68.273  1.00  0.00    -0.247 C  
HETATM   11  C   UNL     1     -10.914  15.148  67.964  1.00  0.00    -0.295 C  
HETATM   12  C   UNL     1      -6.225  12.783  67.859  1.00  0.00    -0.115 C  
HETATM   13  C   UNL     1      -9.833  16.243  68.077  1.00  0.00    -0.236 C  
HETATM   14  C   UNL     1      -8.505  15.802  67.422  1.00  0.00    -0.171 C  
HETATM   15  C   UNL     1      -6.907  10.358  67.997  1.00  0.00    -0.069 A  
HETATM   16  C   UNL     1      -7.272  11.702  67.817  1.00  0.00    -0.101 A  
BRANCH   4  17
HETATM   17  O   UNL     1     -10.087   8.622  67.426  1.00  0.00    -0.191 OA 
HETATM   18  C   UNL     1     -10.503   7.909  68.586  1.00  0.00    -0.167 C  
ENDBRANCH   4  17
BRANCH  11  19
HETATM   19  O   UNL     1     -11.963  15.424  68.927  1.00  0.00    -0.336 OA 
BRANCH  19  20
HETATM   20  C   UNL     1     -12.179  14.516  69.921  1.00  0.00    -0.328 C  
HETATM   21  O   UNL     1     -12.631  13.388  69.738  1.00  0.00    -0.129 OA 
BRANCH  20  22
HETATM   22  C   UNL     1     -11.786  15.060  71.322  1.00  0.00    -0.347 C  
HETATM   23  C   UNL     1     -13.466  13.561  72.538  1.00  0.00    -0.660 C  
HETATM   24  C   UNL     1     -12.568  15.552  73.719  1.00  0.00    -0.750 C  
HETATM   25  H2  UNL     1     -11.921  17.061  70.736  1.00  0.00     0.000 HD 
HETATM   26  H1  UNL     1     -11.006  16.802  72.133  1.00  0.00     0.000 HD 
HETATM   27  C   UNL     1     -12.955  14.993  72.340  1.00  0.00    -0.444 C  
HETATM   28  N   UNL     1     -11.264  16.445  71.213  1.00  0.00    -0.143 NA 
ENDBRANCH  20  22
ENDBRANCH  19  20
ENDBRANCH  11  19
BRANCH  13  29
HETATM   29  C   UNL     1     -10.276  17.580  67.426  1.00  0.00    -0.337 C  
HETATM   30  C   UNL     1     -10.674  20.065  67.523  1.00  0.00    -0.345 C  
HETATM   31  C   UNL     1      -8.674  19.111  68.684  1.00  0.00    -0.394 C  
HETATM   32  C   UNL     1     -10.125  18.852  68.278  1.00  0.00    -0.446 C  
ENDBRANCH  13  29
ENDBRANCH   2   3
TORSDOF 6
ENDMDL
MODEL       78
REMARK 921   NORMALIZED FREE ENERGY PREDICTED BY IDOCK:   -4.54 KCAL/MOL
REMARK 922        TOTAL FREE ENERGY PREDICTED BY IDOCK:   -6.95 KCAL/MOL
REMARK 923 INTER-LIGAND FREE ENERGY PREDICTED BY IDOCK:   -7.87 KCAL/MOL
REMARK 924 INTRA-LIGAND FREE ENERGY PREDICTED BY IDOCK:    0.92 KCAL/MOL
REMARK 927      BINDING AFFINITY PREDICTED BY RF-SCORE:    0.00 PKD
ROOT
HETATM    1  C   UNL     1      -6.005  20.264  70.581  1.00  0.00    -0.313 C  
HETATM    2  O   UNL     1      -5.637  19.758  69.302  1.00  0.00    -0.199 OA 
ENDROOT
BRANCH   2   3
HETATM    3  C   UNL     1      -6.435  18.777  68.773  1.00  0.00    -0.252 A  
HETATM    4  C   UNL     1      -6.325  17.393  68.973  1.00  0.00    -0.220 A  
HETATM    5  C   UNL     1      -7.262  16.553  68.368  1.00  0.00    -0.169 A  
HETATM    6  N   UNL     1     -10.524  16.726  66.409  1.00  0.00    -0.300 NA 
HETATM    7  C   UNL     1      -8.324  17.045  67.590  1.00  0.00    -0.196 A  
HETATM    8  C   UNL     1     -10.152  17.882  65.581  1.00  0.00     0.110 C  
HETATM    9  C   UNL     1      -9.334  16.072  66.993  1.00  0.00    -0.218 C  
HETATM   10  C   UNL     1      -9.866  15.079  68.042  1.00  0.00    -0.218 C  
HETATM   11  C   UNL     1     -10.730  13.990  67.405  1.00  0.00    -0.283 C  
HETATM   12  C   UNL     1      -9.406  18.968  66.374  1.00  0.00    -0.358 C  
HETATM   13  C   UNL     1     -11.828  14.590  66.502  1.00  0.00    -0.367 C  
HETATM   14  C   UNL     1     -11.278  15.737  65.623  1.00  0.00    -0.055 C  
HETATM   15  C   UNL     1      -7.433  19.269  67.918  1.00  0.00    -0.293 A  
HETATM   16  C   UNL     1      -8.366  18.412  67.310  1.00  0.00    -0.251 A  
BRANCH   4  17
HETATM   17  O   UNL     1      -5.267  16.902  69.693  1.00  0.00    -0.143 OA 
HETATM   18  C   UNL     1      -5.492  15.687  70.400  1.00  0.00    -0.153 C  
ENDBRANCH   4  17
BRANCH  11  19
HETATM   19  O   UNL     1     -11.361  13.239  68.473  1.00  0.00    -0.247 OA 
BRANCH  19  20
HETATM   20  C   UNL     1     -12.089  13.927  69.399  1.00  0.00    -0.337 C  
HETATM   21  O   UNL     1     -12.145  15.152  69.459  1.00  0.00    -0.310 OA 
BRANCH  20  22
HETATM   22  C   UNL     1     -12.848  12.989  70.378  1.00  0.00     0.154 C  
HETATM   23  C   UNL     1     -14.175  14.911  71.422  1.00  0.00    -0.558 C  
HETATM   24  C   UNL     1     -14.000  12.767  72.663  1.00  0.00     0.094 C  
HETATM   25  H2  UNL     1     -11.109  12.025  71.023  1.00  0.00     0.000 HD 
HETATM   26  H1  UNL     1     -12.535  11.166  71.317  1.00  0.00     0.000 HD 
HETATM   27  C   UNL     1     -13.266  13.704  71.689  1.00  0.00    -0.447 C  
HETATM   28  N   UNL     1     -12.036  11.782  70.674  1.00  0.00    -0.361 NA 
ENDBRANCH  20  22
ENDBRANCH  19  20
ENDBRANCH  11  19
BRANCH  13  29
HETATM   29  C   UNL     1     -12.472  13.530  65.570  1.00  0.00    -0.538 C  
HETATM   30  C   UNL     1     -12.602  12.293  63.380  1.00  0.00    -0.545 C  
HETATM   31  C   UNL     1     -10.354  12.844  64.330  1.00  0.00    -0.396 C  
HETATM   32  C   UNL     1     -11.805  13.310  64.202  1.00  0.00    -0.497 C  
ENDBRANCH  13  29
ENDBRANCH   2   3
TORSDOF 6
ENDMDL
MODEL       79
REMARK 921   NORMALIZED FREE ENERGY PREDICTED BY IDOCK:   -4.53 KCAL/MOL
REMARK 922        TOTAL FREE ENERGY PREDICTED BY IDOCK:   -6.94 KCAL/MOL
REMARK 923 INTER-LIGAND FREE ENERGY PREDICTED BY IDOCK:   -6.12 KCAL/MOL
REMARK 924 INTRA-LIGAND FREE ENERGY PREDICTED BY IDOCK:   -0.82 KCAL/MOL
REMARK 927      BINDING AFFINITY PREDICTED BY RF-SCORE:    0.00 PKD
ROOT
HETATM    1  C   UNL     1      -8.010  19.522  66.163  1.00  0.00    -0.330 C  
HETATM    2  O   UNL     1      -7.542  18.330  65.542  1.00  0.00    -0.518 OA 
ENDROOT
BRANCH   2   3
HETATM    3  C   UNL     1      -7.745  17.157  66.222  1.00  0.00    -0.315 A  
HETATM    4  C   UNL     1      -8.891  16.349  66.197  1.00  0.00    -0.314 A  
HETATM    5  C   UNL     1      -8.892  15.167  66.940  1.00  0.00    -0.284 A  
HETATM    6  N   UNL     1      -6.533  12.984  68.983  1.00  0.00    -0.098 NA 
HETATM    7  C   UNL     1      -7.779  14.746  67.688  1.00  0.00    -0.199 A  
HETATM    8  C   UNL     1      -5.822  14.089  69.642  1.00  0.00    -0.109 C  
HETATM    9  C   UNL     1      -7.837  13.423  68.443  1.00  0.00    -0.138 C  
HETATM   10  C   UNL     1      -8.337  12.272  67.551  1.00  0.00    -0.170 C  
HETATM   11  C   UNL     1      -8.573  10.993  68.355  1.00  0.00    -0.149 C  
HETATM   12  C   UNL     1      -5.525  15.258  68.688  1.00  0.00    -0.091 C  
HETATM   13  C   UNL     1      -7.345  10.627  69.215  1.00  0.00    -0.119 C  
HETATM   14  C   UNL     1      -6.751  11.869  69.917  1.00  0.00     0.123 C  
HETATM   15  C   UNL     1      -6.668  16.794  67.044  1.00  0.00    -0.241 A  
HETATM   16  C   UNL     1      -6.684  15.605  67.792  1.00  0.00    -0.180 A  
BRANCH   4  17
HETATM   17  O   UNL     1      -9.996  16.773  65.506  1.00  0.00    -0.567 OA 
HETATM   18  C   UNL     1     -10.939  15.771  65.142  1.00  0.00    -0.382 C  
ENDBRANCH   4  17
BRANCH  11  19
HETATM   19  O   UNL     1      -8.826   9.916  67.417  1.00  0.00    -0.131 OA 
BRANCH  19  20
HETATM   20  C   UNL     1      -9.982   9.205  67.550  1.00  0.00    -0.205 C  
HETATM   21  O   UNL     1     -10.906   9.525  68.293  1.00  0.00    -0.213 OA 
BRANCH  20  22
HETATM   22  C   UNL     1     -10.009   7.937  66.653  1.00  0.00    -0.246 C  
HETATM   23  C   UNL     1     -10.981   6.466  68.507  1.00  0.00    -0.396 C  
HETATM   24  C   UNL     1      -9.872   5.373  66.573  1.00  0.00    -0.195 C  
HETATM   25  H2  UNL     1      -8.038   8.185  66.003  1.00  0.00     0.000 HD 
HETATM   26  H1  UNL     1      -8.980   7.189  65.014  1.00  0.00     0.000 HD 
HETATM   27  C   UNL     1      -9.865   6.625  67.467  1.00  0.00    -0.158 C  
HETATM   28  N   UNL     1      -8.962   8.022  65.604  1.00  0.00    -0.108 NA 
ENDBRANCH  20  22
ENDBRANCH  19  20
ENDBRANCH  11  19
BRANCH  13  29
HETATM   29  C   UNL     1      -7.677   9.567  70.298  1.00  0.00    -0.170 C  
HETATM   30  C   UNL     1      -7.961   7.179  71.047  1.00  0.00    -0.103 C  
HETATM   31  C   UNL     1      -6.094   7.745  69.480  1.00  0.00    -0.033 C  
HETATM   32  C   UNL     1      -7.524   8.090  69.896  1.00  0.00    -0.078 C  
ENDBRANCH  13  29
ENDBRANCH   2   3
TORSDOF 6
ENDMDL
MODEL       80
REMARK 921   NORMALIZED FREE ENERGY PREDICTED BY IDOCK:   -4.53 KCAL/MOL
REMARK 922        TOTAL FREE ENERGY PREDICTED BY IDOCK:   -6.94 KCAL/MOL
REMARK 923 INTER-LIGAND FREE ENERGY PREDICTED BY IDOCK:   -6.07 KCAL/MOL
REMARK 924 INTRA-LIGAND FREE ENERGY PREDICTED BY IDOCK:   -0.87 KCAL/MOL
REMARK 927      BINDING AFFINITY PREDICTED BY RF-SCORE:    0.00 PKD
ROOT
HETATM    1  C   UNL     1      -6.131   6.133  66.185  1.00  0.00    -0.029 C  
HETATM    2  O   UNL     1      -7.176   6.564  67.051  1.00  0.00    -0.074 OA 
ENDROOT
BRANCH   2   3
HETATM    3  C   UNL     1      -7.483   7.900  67.031  1.00  0.00    -0.092 A  
HETATM    4  C   UNL     1      -8.739   8.479  66.800  1.00  0.00    -0.122 A  
HETATM    5  C   UNL     1      -8.855   9.869  66.854  1.00  0.00    -0.146 A  
HETATM    6  N   UNL     1      -6.823  12.948  67.799  1.00  0.00    -0.121 NA 
HETATM    7  C   UNL     1      -7.767  10.705  67.157  1.00  0.00    -0.110 A  
HETATM    8  C   UNL     1      -5.555  12.488  67.215  1.00  0.00    -0.066 C  
HETATM    9  C   UNL     1      -7.976  12.213  67.238  1.00  0.00    -0.176 C  
HETATM   10  C   UNL     1      -9.184  12.580  68.120  1.00  0.00    -0.209 C  
HETATM   11  C   UNL     1      -9.504  14.074  68.048  1.00  0.00    -0.206 C  
HETATM   12  C   UNL     1      -5.286  10.997  67.475  1.00  0.00    -0.038 C  
HETATM   13  C   UNL     1      -8.254  14.937  68.313  1.00  0.00    -0.145 C  
HETATM   14  C   UNL     1      -7.014  14.388  67.570  1.00  0.00    -0.159 C  
HETATM   15  C   UNL     1      -6.373   8.732  67.237  1.00  0.00    -0.057 A  
HETATM   16  C   UNL     1      -6.501  10.130  67.282  1.00  0.00    -0.068 A  
BRANCH   4  17
HETATM   17  O   UNL     1      -9.796   7.675  66.459  1.00  0.00    -0.216 OA 
HETATM   18  C   UNL     1     -10.677   7.305  67.515  1.00  0.00    -0.256 C  
ENDBRANCH   4  17
BRANCH  11  19
HETATM   19  O   UNL     1     -10.499  14.365  69.063  1.00  0.00    -0.239 OA 
BRANCH  19  20
HETATM   20  C   UNL     1     -11.801  14.063  68.793  1.00  0.00    -0.361 C  
HETATM   21  O   UNL     1     -12.358  14.309  67.727  1.00  0.00    -0.247 OA 
BRANCH  20  22
HETATM   22  C   UNL     1     -12.511  13.365  69.986  1.00  0.00    -0.137 C  
HETATM   23  C   UNL     1     -13.072  15.580  71.138  1.00  0.00    -0.573 C  
HETATM   24  C   UNL     1     -13.121  13.490  72.478  1.00  0.00    -0.458 C  
HETATM   25  H2  UNL     1     -10.946  12.019  70.310  1.00  0.00     0.000 HD 
HETATM   26  H1  UNL     1     -12.425  11.545  70.977  1.00  0.00     0.000 HD 
HETATM   27  C   UNL     1     -12.435  14.194  71.295  1.00  0.00    -0.446 C  
HETATM   28  N   UNL     1     -11.958  12.004  70.193  1.00  0.00    -0.345 NA 
ENDBRANCH  20  22
ENDBRANCH  19  20
ENDBRANCH  11  19
BRANCH  13  29
HETATM   29  C   UNL     1      -8.458  16.417  67.893  1.00  0.00    -0.171 C  
HETATM   30  C   UNL     1      -8.367  18.888  68.372  1.00  0.00    -0.382 C  
HETATM   31  C   UNL     1      -6.543  17.415  69.246  1.00  0.00    -0.240 C  
HETATM   32  C   UNL     1      -8.032  17.492  68.906  1.00  0.00    -0.180 C  
ENDBRANCH  13  29
ENDBRANCH   2   3
TORSDOF 6
ENDMDL
MODEL       81
REMARK 921   NORMALIZED FREE ENERGY PREDICTED BY IDOCK:   -4.50 KCAL/MOL
REMARK 922        TOTAL FREE ENERGY PREDICTED BY IDOCK:   -6.90 KCAL/MOL
REMARK 923 INTER-LIGAND FREE ENERGY PREDICTED BY IDOCK:   -5.76 KCAL/MOL
REMARK 924 INTRA-LIGAND FREE ENERGY PREDICTED BY IDOCK:   -1.14 KCAL/MOL
REMARK 927      BINDING AFFINITY PREDICTED BY RF-SCORE:    0.00 PKD
ROOT
HETATM    1  C   UNL     1     -10.352  15.879  64.868  1.00  0.00    -0.014 C  
HETATM    2  O   UNL     1     -11.275  14.799  64.783  1.00  0.00    -0.381 OA 
ENDROOT
BRANCH   2   3
HETATM    3  C   UNL     1     -10.955  13.656  65.470  1.00  0.00    -0.293 A  
HETATM    4  C   UNL     1     -11.679  12.456  65.504  1.00  0.00    -0.407 A  
HETATM    5  C   UNL     1     -11.168  11.388  66.243  1.00  0.00    -0.228 A  
HETATM    6  N   UNL     1      -8.030  10.375  68.150  1.00  0.00    -0.108 NA 
HETATM    7  C   UNL     1      -9.944  11.463  66.929  1.00  0.00    -0.235 A  
HETATM    8  C   UNL     1      -7.792  11.684  68.772  1.00  0.00    -0.096 C  
HETATM    9  C   UNL     1      -9.426  10.243  67.682  1.00  0.00    -0.151 C  
HETATM   10  C   UNL     1      -9.466   8.971  66.815  1.00  0.00    -0.238 C  
HETATM   11  C   UNL     1      -9.127   7.721  67.627  1.00  0.00    -0.133 C  
HETATM   12  C   UNL     1      -8.038  12.856  67.807  1.00  0.00    -0.166 C  
HETATM   13  C   UNL     1      -7.814   7.895  68.418  1.00  0.00    -0.120 C  
HETATM   14  C   UNL     1      -7.735   9.284  69.091  1.00  0.00    -0.078 C  
HETATM   15  C   UNL     1      -9.783  13.772  66.232  1.00  0.00    -0.297 A  
HETATM   16  C   UNL     1      -9.282  12.692  66.976  1.00  0.00    -0.212 A  
BRANCH   4  17
HETATM   17  O   UNL     1     -12.896  12.388  64.875  1.00  0.00    -0.711 OA 
HETATM   18  C   UNL     1     -12.886  11.936  63.525  1.00  0.00    -0.305 C  
ENDBRANCH   4  17
BRANCH  11  19
HETATM   19  O   UNL     1      -8.973   6.615  66.700  1.00  0.00    -0.132 OA 
BRANCH  19  20
HETATM   20  C   UNL     1      -9.990   5.712  66.603  1.00  0.00    -0.181 C  
HETATM   21  O   UNL     1     -11.118   5.892  67.054  1.00  0.00    -0.260 OA 
BRANCH  20  22
HETATM   22  C   UNL     1      -9.569   4.419  65.850  1.00  0.00    -0.188 C  
HETATM   23  C   UNL     1      -9.379   3.051  68.004  1.00  0.00    -0.255 C  
HETATM   24  C   UNL     1      -8.245   2.220  65.957  1.00  0.00    -0.089 C  
HETATM   25  H2  UNL     1      -8.103   5.389  64.719  1.00  0.00     0.000 HD 
HETATM   26  H1  UNL     1      -8.616   3.911  64.079  1.00  0.00     0.000 HD 
HETATM   27  C   UNL     1      -8.676   3.489  66.713  1.00  0.00    -0.124 C  
HETATM   28  N   UNL     1      -8.892   4.760  64.574  1.00  0.00    -0.153 NA 
ENDBRANCH  20  22
ENDBRANCH  19  20
ENDBRANCH  11  19
BRANCH  13  29
HETATM   29  C   UNL     1      -7.637   6.812  69.515  1.00  0.00    -0.099 C  
HETATM   30  C   UNL     1      -6.883   4.532  70.274  1.00  0.00    -0.037 C  
HETATM   31  C   UNL     1      -5.479   5.787  68.628  1.00  0.00    -0.011 C  
HETATM   32  C   UNL     1      -6.907   5.521  69.106  1.00  0.00    -0.058 C  
ENDBRANCH  13  29
ENDBRANCH   2   3
TORSDOF 6
ENDMDL
MODEL       82
REMARK 921   NORMALIZED FREE ENERGY PREDICTED BY IDOCK:   -4.49 KCAL/MOL
REMARK 922        TOTAL FREE ENERGY PREDICTED BY IDOCK:   -6.89 KCAL/MOL
REMARK 923 INTER-LIGAND FREE ENERGY PREDICTED BY IDOCK:   -6.77 KCAL/MOL
REMARK 924 INTRA-LIGAND FREE ENERGY PREDICTED BY IDOCK:   -0.12 KCAL/MOL
REMARK 927      BINDING AFFINITY PREDICTED BY RF-SCORE:    0.00 PKD
ROOT
HETATM    1  C   UNL     1      -8.253   7.215  69.455  1.00  0.00    -0.132 C  
HETATM    2  O   UNL     1      -7.415   7.641  68.387  1.00  0.00    -0.099 OA 
ENDROOT
BRANCH   2   3
HETATM    3  C   UNL     1      -7.547   8.943  67.979  1.00  0.00    -0.093 A  
HETATM    4  C   UNL     1      -8.165   9.407  66.809  1.00  0.00    -0.112 A  
HETATM    5  C   UNL     1      -8.226  10.784  66.586  1.00  0.00    -0.140 A  
HETATM    6  N   UNL     1      -7.501  14.078  68.356  1.00  0.00    -0.110 NA 
HETATM    7  C   UNL     1      -7.716  11.720  67.502  1.00  0.00    -0.143 A  
HETATM    8  C   UNL     1      -6.252  13.643  68.997  1.00  0.00    -0.097 C  
HETATM    9  C   UNL     1      -7.854  13.210  67.213  1.00  0.00    -0.117 C  
HETATM   10  C   UNL     1      -9.294  13.589  66.820  1.00  0.00    -0.262 C  
HETATM   11  C   UNL     1      -9.389  15.041  66.349  1.00  0.00    -0.303 C  
HETATM   12  C   UNL     1      -6.333  12.211  69.550  1.00  0.00    -0.122 C  
HETATM   13  C   UNL     1      -8.743  16.011  67.360  1.00  0.00    -0.195 C  
HETATM   14  C   UNL     1      -7.395  15.468  67.888  1.00  0.00    -0.140 C  
HETATM   15  C   UNL     1      -6.948   9.865  68.850  1.00  0.00    -0.062 A  
HETATM   16  C   UNL     1      -7.011  11.248  68.611  1.00  0.00    -0.084 A  
BRANCH   4  17
HETATM   17  O   UNL     1      -8.625   8.501  65.888  1.00  0.00    -0.144 OA 
HETATM   18  C   UNL     1      -8.400   8.820  64.519  1.00  0.00    -0.162 C  
ENDBRANCH   4  17
BRANCH  11  19
HETATM   19  O   UNL     1     -10.794  15.374  66.212  1.00  0.00    -0.313 OA 
BRANCH  19  20
HETATM   20  C   UNL     1     -11.708  14.569  66.826  1.00  0.00    -0.377 C  
HETATM   21  O   UNL     1     -12.570  13.926  66.231  1.00  0.00    -0.435 OA 
BRANCH  20  22
HETATM   22  C   UNL     1     -11.542  14.548  68.370  1.00  0.00    -0.326 C  
HETATM   23  C   UNL     1     -11.774  12.003  68.506  1.00  0.00    -0.387 C  
HETATM   24  C   UNL     1     -12.125  13.347  70.565  1.00  0.00    -0.399 C  
HETATM   25  H2  UNL     1     -12.947  16.062  68.682  1.00  0.00     0.000 HD 
HETATM   26  H1  UNL     1     -11.883  15.819  69.973  1.00  0.00     0.000 HD 
HETATM   27  C   UNL     1     -12.275  13.353  69.035  1.00  0.00    -0.187 C  
HETATM   28  N   UNL     1     -11.993  15.833  68.958  1.00  0.00    -0.352 NA 
ENDBRANCH  20  22
ENDBRANCH  19  20
ENDBRANCH  11  19
BRANCH  13  29
HETATM   29  C   UNL     1      -8.498  17.418  66.755  1.00  0.00    -0.280 C  
HETATM   30  C   UNL     1      -9.252  19.762  66.225  1.00  0.00    -0.461 C  
HETATM   31  C   UNL     1      -9.907  18.744  68.414  1.00  0.00    -0.429 C  
HETATM   32  C   UNL     1      -9.616  18.458  66.941  1.00  0.00    -0.305 C  
ENDBRANCH  13  29
ENDBRANCH   2   3
TORSDOF 6
ENDMDL
MODEL       83
REMARK 921   NORMALIZED FREE ENERGY PREDICTED BY IDOCK:   -4.49 KCAL/MOL
REMARK 922        TOTAL FREE ENERGY PREDICTED BY IDOCK:   -6.88 KCAL/MOL
REMARK 923 INTER-LIGAND FREE ENERGY PREDICTED BY IDOCK:   -5.82 KCAL/MOL
REMARK 924 INTRA-LIGAND FREE ENERGY PREDICTED BY IDOCK:   -1.06 KCAL/MOL
REMARK 927      BINDING AFFINITY PREDICTED BY RF-SCORE:    0.00 PKD
ROOT
HETATM    1  C   UNL     1     -12.391  13.969  67.147  1.00  0.00    -0.199 C  
HETATM    2  O   UNL     1     -11.094  13.390  67.060  1.00  0.00    -0.282 OA 
ENDROOT
BRANCH   2   3
HETATM    3  C   UNL     1     -10.975  12.078  67.442  1.00  0.00    -0.261 A  
HETATM    4  C   UNL     1     -10.580  10.995  66.645  1.00  0.00    -0.262 A  
HETATM    5  C   UNL     1     -10.489   9.731  67.232  1.00  0.00    -0.324 A  
HETATM    6  N   UNL     1     -10.664   8.065  70.652  1.00  0.00    -0.224 NA 
HETATM    7  C   UNL     1     -10.754   9.512  68.594  1.00  0.00    -0.218 A  
HETATM    8  C   UNL     1     -11.781   8.870  71.165  1.00  0.00    -0.298 C  
HETATM    9  C   UNL     1     -10.595   8.112  69.176  1.00  0.00    -0.166 C  
HETATM   10  C   UNL     1      -9.245   7.478  68.793  1.00  0.00    -0.145 C  
HETATM   11  C   UNL     1      -9.167   6.011  69.216  1.00  0.00    -0.127 C  
HETATM   12  C   UNL     1     -11.668  10.356  70.784  1.00  0.00    -0.464 C  
HETATM   13  C   UNL     1      -9.543   5.826  70.701  1.00  0.00    -0.214 C  
HETATM   14  C   UNL     1     -10.785   6.664  71.082  1.00  0.00    -0.234 C  
HETATM   15  C   UNL     1     -11.335  11.851  68.779  1.00  0.00    -0.330 A  
HETATM   16  C   UNL     1     -11.247  10.573  69.356  1.00  0.00    -0.327 A  
BRANCH   4  17
HETATM   17  O   UNL     1     -10.364  11.191  65.305  1.00  0.00    -0.258 OA 
HETATM   18  C   UNL     1      -9.218  10.556  64.749  1.00  0.00    -0.227 C  
ENDBRANCH   4  17
BRANCH  11  19
HETATM   19  O   UNL     1      -7.802   5.562  69.019  1.00  0.00    -0.089 OA 
BRANCH  19  20
HETATM   20  C   UNL     1      -7.565   4.629  68.053  1.00  0.00    -0.077 C  
HETATM   21  O   UNL     1      -7.584   3.416  68.247  1.00  0.00    -0.056 OA 
BRANCH  20  22
HETATM   22  C   UNL     1      -7.269   5.267  66.668  1.00  0.00    -0.077 C  
HETATM   23  C   UNL     1      -9.493   4.486  65.670  1.00  0.00    -0.174 C  
HETATM   24  C   UNL     1      -7.656   5.141  64.131  1.00  0.00    -0.069 C  
HETATM   25  H2  UNL     1      -5.354   4.441  66.540  1.00  0.00     0.000 HD 
HETATM   26  H1  UNL     1      -5.611   5.768  65.526  1.00  0.00     0.000 HD 
HETATM   27  C   UNL     1      -7.968   4.518  65.502  1.00  0.00    -0.095 C  
HETATM   28  N   UNL     1      -5.806   5.349  66.436  1.00  0.00    -0.018 NA 
ENDBRANCH  20  22
ENDBRANCH  19  20
ENDBRANCH  11  19
BRANCH  13  29
HETATM   29  C   UNL     1      -9.827   4.344  71.059  1.00  0.00    -0.260 C  
HETATM   30  C   UNL     1      -9.082   2.083  71.882  1.00  0.00    -0.135 C  
HETATM   31  C   UNL     1      -8.154   4.135  72.970  1.00  0.00    -0.090 C  
HETATM   32  C   UNL     1      -8.661   3.538  71.657  1.00  0.00    -0.124 C  
ENDBRANCH  13  29
ENDBRANCH   2   3
TORSDOF 6
ENDMDL
MODEL       84
REMARK 921   NORMALIZED FREE ENERGY PREDICTED BY IDOCK:   -4.48 KCAL/MOL
REMARK 922        TOTAL FREE ENERGY PREDICTED BY IDOCK:   -6.87 KCAL/MOL
REMARK 923 INTER-LIGAND FREE ENERGY PREDICTED BY IDOCK:   -6.04 KCAL/MOL
REMARK 924 INTRA-LIGAND FREE ENERGY PREDICTED BY IDOCK:   -0.83 KCAL/MOL
REMARK 927      BINDING AFFINITY PREDICTED BY RF-SCORE:    0.00 PKD
ROOT
HETATM    1  C   UNL     1      -8.337  17.497  66.505  1.00  0.00    -0.270 C  
HETATM    2  O   UNL     1      -7.639  16.747  67.493  1.00  0.00    -0.150 OA 
ENDROOT
BRANCH   2   3
HETATM    3  C   UNL     1      -7.887  15.399  67.535  1.00  0.00    -0.170 A  
HETATM    4  C   UNL     1      -7.215  14.436  68.301  1.00  0.00    -0.122 A  
HETATM    5  C   UNL     1      -7.640  13.108  68.230  1.00  0.00    -0.139 A  
HETATM    6  N   UNL     1     -10.461  11.005  66.771  1.00  0.00    -0.241 NA 
HETATM    7  C   UNL     1      -8.731  12.708  67.441  1.00  0.00    -0.191 A  
HETATM    8  C   UNL     1     -10.543  11.717  65.488  1.00  0.00    -0.279 C  
HETATM    9  C   UNL     1      -9.166  11.247  67.443  1.00  0.00    -0.162 C  
HETATM   10  C   UNL     1      -9.318  10.693  68.871  1.00  0.00    -0.191 C  
HETATM   11  C   UNL     1      -9.568   9.184  68.870  1.00  0.00    -0.152 C  
HETATM   12  C   UNL     1     -10.413  13.241  65.642  1.00  0.00    -0.286 C  
HETATM   13  C   UNL     1     -10.727   8.800  67.927  1.00  0.00    -0.171 C  
HETATM   14  C   UNL     1     -10.641   9.558  66.582  1.00  0.00    -0.104 C  
HETATM   15  C   UNL     1      -8.914  14.992  66.670  1.00  0.00    -0.313 A  
HETATM   16  C   UNL     1      -9.328  13.651  66.602  1.00  0.00    -0.265 A  
BRANCH   4  17
HETATM   17  O   UNL     1      -6.121  14.810  69.039  1.00  0.00    -0.090 OA 
HETATM   18  C   UNL     1      -6.308  14.900  70.448  1.00  0.00    -0.105 C  
ENDBRANCH   4  17
BRANCH  11  19
HETATM   19  O   UNL     1      -9.915   8.789  70.222  1.00  0.00    -0.177 OA 
BRANCH  19  20
HETATM   20  C   UNL     1      -9.077   7.936  70.878  1.00  0.00    -0.151 C  
HETATM   21  O   UNL     1      -7.888   7.792  70.604  1.00  0.00    -0.092 OA 
BRANCH  20  22
HETATM   22  C   UNL     1      -9.790   7.160  72.019  1.00  0.00    -0.158 C  
HETATM   23  C   UNL     1      -9.977   5.012  70.641  1.00  0.00    -0.300 C  
HETATM   24  C   UNL     1     -11.448   5.292  72.622  1.00  0.00    -0.270 C  
HETATM   25  H2  UNL     1     -11.181   8.678  72.371  1.00  0.00     0.000 HD 
HETATM   26  H1  UNL     1     -10.999   7.587  73.649  1.00  0.00     0.000 HD 
HETATM   27  C   UNL     1     -10.729   6.045  71.489  1.00  0.00    -0.309 C  
HETATM   28  N   UNL     1     -10.531   8.097  72.899  1.00  0.00    -0.328 NA 
ENDBRANCH  20  22
ENDBRANCH  19  20
ENDBRANCH  11  19
BRANCH  13  29
HETATM   29  C   UNL     1     -10.764   7.278  67.626  1.00  0.00    -0.294 C  
HETATM   30  C   UNL     1      -9.969   5.251  66.361  1.00  0.00    -0.227 C  
HETATM   31  C   UNL     1      -8.304   6.997  67.024  1.00  0.00    -0.121 C  
HETATM   32  C   UNL     1      -9.751   6.748  66.597  1.00  0.00    -0.213 C  
ENDBRANCH  13  29
ENDBRANCH   2   3
TORSDOF 6
ENDMDL
MODEL       85
REMARK 921   NORMALIZED FREE ENERGY PREDICTED BY IDOCK:   -4.44 KCAL/MOL
REMARK 922        TOTAL FREE ENERGY PREDICTED BY IDOCK:   -6.82 KCAL/MOL
REMARK 923 INTER-LIGAND FREE ENERGY PREDICTED BY IDOCK:   -6.63 KCAL/MOL
REMARK 924 INTRA-LIGAND FREE ENERGY PREDICTED BY IDOCK:   -0.18 KCAL/MOL
REMARK 927      BINDING AFFINITY PREDICTED BY RF-SCORE:    0.00 PKD
ROOT
HETATM    1  C   UNL     1     -12.258  13.914  66.999  1.00  0.00    -0.355 C  
HETATM    2  O   UNL     1     -10.934  13.454  67.247  1.00  0.00    -0.266 OA 
ENDROOT
BRANCH   2   3
HETATM    3  C   UNL     1     -10.807  12.303  67.982  1.00  0.00    -0.220 A  
HETATM    4  C   UNL     1      -9.923  11.240  67.749  1.00  0.00    -0.176 A  
HETATM    5  C   UNL     1      -9.923  10.162  68.636  1.00  0.00    -0.181 A  
HETATM    6  N   UNL     1     -11.419   9.115  71.978  1.00  0.00    -0.344 NA 
HETATM    7  C   UNL     1     -10.757  10.117  69.766  1.00  0.00    -0.317 A  
HETATM    8  C   UNL     1     -12.756   9.677  71.739  1.00  0.00    -0.420 C  
HETATM    9  C   UNL     1     -10.675   8.927  70.715  1.00  0.00    -0.233 C  
HETATM   10  C   UNL     1      -9.224   8.611  71.119  1.00  0.00    -0.269 C  
HETATM   11  C   UNL     1      -9.127   7.308  71.914  1.00  0.00    -0.133 C  
HETATM   12  C   UNL     1     -12.709  11.054  71.054  1.00  0.00    -0.485 C  
HETATM   13  C   UNL     1     -10.121   7.288  73.094  1.00  0.00    -0.319 C  
HETATM   14  C   UNL     1     -11.510   7.825  72.679  1.00  0.00    -0.375 C  
HETATM   15  C   UNL     1     -11.711  12.220  69.051  1.00  0.00    -0.376 A  
HETATM   16  C   UNL     1     -11.707  11.127  69.933  1.00  0.00    -0.433 A  
BRANCH   4  17
HETATM   17  O   UNL     1      -9.138  11.255  66.624  1.00  0.00    -0.169 OA 
HETATM   18  C   UNL     1      -7.730  11.269  66.835  1.00  0.00    -0.152 C  
ENDBRANCH   4  17
BRANCH  11  19
HETATM   19  O   UNL     1      -7.778   7.203  72.436  1.00  0.00    -0.091 OA 
BRANCH  19  20
HETATM   20  C   UNL     1      -6.871   6.469  71.730  1.00  0.00    -0.064 C  
HETATM   21  O   UNL     1      -6.718   5.257  71.856  1.00  0.00    -0.052 OA 
BRANCH  20  22
HETATM   22  C   UNL     1      -6.046   7.335  70.738  1.00  0.00    -0.035 C  
HETATM   23  C   UNL     1      -5.263   8.945  72.566  1.00  0.00    -0.057 C  
HETATM   24  C   UNL     1      -5.128   9.672  70.195  1.00  0.00    -0.032 C  
HETATM   25  H2  UNL     1      -7.610   7.495  69.361  1.00  0.00     0.000 HD 
HETATM   26  H1  UNL     1      -6.079   7.816  68.721  1.00  0.00     0.000 HD 
HETATM   27  C   UNL     1      -5.928   8.814  71.190  1.00  0.00    -0.045 C  
HETATM   28  N   UNL     1      -6.621   7.247  69.373  1.00  0.00    -0.040 NA 
ENDBRANCH  20  22
ENDBRANCH  19  20
ENDBRANCH  11  19
BRANCH  13  29
HETATM   29  C   UNL     1     -10.307   5.866  73.686  1.00  0.00    -0.257 C  
HETATM   30  C   UNL     1     -11.185   3.509  73.551  1.00  0.00    -0.279 C  
HETATM   31  C   UNL     1     -10.271   4.582  71.484  1.00  0.00    -0.195 C  
HETATM   32  C   UNL     1     -11.016   4.830  72.796  1.00  0.00    -0.268 C  
ENDBRANCH  13  29
ENDBRANCH   2   3
TORSDOF 6
ENDMDL
MODEL       86
REMARK 921   NORMALIZED FREE ENERGY PREDICTED BY IDOCK:   -4.40 KCAL/MOL
REMARK 922        TOTAL FREE ENERGY PREDICTED BY IDOCK:   -6.76 KCAL/MOL
REMARK 923 INTER-LIGAND FREE ENERGY PREDICTED BY IDOCK:   -6.01 KCAL/MOL
REMARK 924 INTRA-LIGAND FREE ENERGY PREDICTED BY IDOCK:   -0.75 KCAL/MOL
REMARK 927      BINDING AFFINITY PREDICTED BY RF-SCORE:    0.00 PKD
ROOT
HETATM    1  C   UNL     1      -9.967   6.118  74.433  1.00  0.00    -0.311 C  
HETATM    2  O   UNL     1     -10.852   7.079  73.869  1.00  0.00    -0.237 OA 
ENDROOT
BRANCH   2   3
HETATM    3  C   UNL     1     -10.507   7.594  72.646  1.00  0.00    -0.287 A  
HETATM    4  C   UNL     1     -11.142   8.636  71.954  1.00  0.00    -0.346 A  
HETATM    5  C   UNL     1     -10.616   9.041  70.726  1.00  0.00    -0.300 A  
HETATM    6  N   UNL     1      -7.580   8.463  68.500  1.00  0.00    -0.094 NA 
HETATM    7  C   UNL     1      -9.462   8.462  70.173  1.00  0.00    -0.165 A  
HETATM    8  C   UNL     1      -7.490   7.014  68.727  1.00  0.00    -0.099 C  
HETATM    9  C   UNL     1      -8.920   8.983  68.846  1.00  0.00    -0.140 C  
HETATM   10  C   UNL     1      -8.796  10.518  68.837  1.00  0.00    -0.166 C  
HETATM   11  C   UNL     1      -8.435  11.049  67.449  1.00  0.00    -0.132 C  
HETATM   12  C   UNL     1      -7.740   6.623  70.193  1.00  0.00    -0.102 C  
HETATM   13  C   UNL     1      -7.207  10.321  66.864  1.00  0.00    -0.093 C  
HETATM   14  C   UNL     1      -7.284   8.795  67.098  1.00  0.00    -0.080 C  
HETATM   15  C   UNL     1      -9.413   6.946  72.055  1.00  0.00    -0.147 A  
HETATM   16  C   UNL     1      -8.897   7.359  70.815  1.00  0.00    -0.149 A  
BRANCH   4  17
HETATM   17  O   UNL     1     -12.295   9.175  72.464  1.00  0.00    -0.290 OA 
HETATM   18  C   UNL     1     -12.796  10.335  71.808  1.00  0.00    -0.460 C  
ENDBRANCH   4  17
BRANCH  11  19
HETATM   19  O   UNL     1      -8.125  12.460  67.579  1.00  0.00    -0.151 OA 
BRANCH  19  20
HETATM   20  C   UNL     1      -9.012  13.362  67.069  1.00  0.00    -0.224 C  
HETATM   21  O   UNL     1      -9.675  13.178  66.052  1.00  0.00    -0.279 OA 
BRANCH  20  22
HETATM   22  C   UNL     1      -9.099  14.659  67.921  1.00  0.00    -0.189 C  
HETATM   23  C   UNL     1     -10.976  13.738  69.397  1.00  0.00    -0.142 C  
HETATM   24  C   UNL     1     -10.604  16.192  69.329  1.00  0.00    -0.280 C  
HETATM   25  H2  UNL     1      -9.170  15.916  66.253  1.00  0.00     0.000 HD 
HETATM   26  H1  UNL     1      -8.711  16.683  67.687  1.00  0.00     0.000 HD 
HETATM   27  C   UNL     1     -10.517  14.898  68.504  1.00  0.00    -0.242 C  
HETATM   28  N   UNL     1      -8.654  15.831  67.128  1.00  0.00    -0.186 NA 
ENDBRANCH  20  22
ENDBRANCH  19  20
ENDBRANCH  11  19
BRANCH  13  29
HETATM   29  C   UNL     1      -7.042  10.572  65.342  1.00  0.00    -0.072 C  
HETATM   30  C   UNL     1      -7.600  10.059  62.940  1.00  0.00    -0.135 C  
HETATM   31  C   UNL     1      -9.426   9.997  64.649  1.00  0.00    -0.367 C  
HETATM   32  C   UNL     1      -7.938   9.748  64.401  1.00  0.00    -0.145 C  
ENDBRANCH  13  29
ENDBRANCH   2   3
TORSDOF 6
ENDMDL
MODEL       87
REMARK 921   NORMALIZED FREE ENERGY PREDICTED BY IDOCK:   -4.37 KCAL/MOL
REMARK 922        TOTAL FREE ENERGY PREDICTED BY IDOCK:   -6.72 KCAL/MOL
REMARK 923 INTER-LIGAND FREE ENERGY PREDICTED BY IDOCK:   -6.11 KCAL/MOL
REMARK 924 INTRA-LIGAND FREE ENERGY PREDICTED BY IDOCK:   -0.61 KCAL/MOL
REMARK 927      BINDING AFFINITY PREDICTED BY RF-SCORE:    0.00 PKD
ROOT
HETATM    1  C   UNL     1      -6.580  20.217  71.540  1.00  0.00     0.268 C  
HETATM    2  O   UNL     1      -6.348  20.431  70.152  1.00  0.00    -0.367 OA 
ENDROOT
BRANCH   2   3
HETATM    3  C   UNL     1      -6.869  19.502  69.288  1.00  0.00    -0.346 A  
HETATM    4  C   UNL     1      -6.365  18.223  69.014  1.00  0.00    -0.242 A  
HETATM    5  C   UNL     1      -7.062  17.407  68.120  1.00  0.00    -0.196 A  
HETATM    6  N   UNL     1     -10.346  17.303  66.193  1.00  0.00    -0.350 NA 
HETATM    7  C   UNL     1      -8.260  17.812  67.508  1.00  0.00    -0.228 A  
HETATM    8  C   UNL     1     -10.358  18.725  65.821  1.00  0.00    -0.213 C  
HETATM    9  C   UNL     1      -8.990  16.854  66.573  1.00  0.00    -0.272 C  
HETATM   10  C   UNL     1      -9.164  15.459  67.201  1.00  0.00    -0.226 C  
HETATM   11  C   UNL     1      -9.723  14.451  66.195  1.00  0.00    -0.312 C  
HETATM   12  C   UNL     1      -9.902  19.644  66.966  1.00  0.00    -0.491 C  
HETATM   13  C   UNL     1     -10.994  14.985  65.501  1.00  0.00    -0.364 C  
HETATM   14  C   UNL     1     -10.836  16.466  65.087  1.00  0.00    -0.275 C  
HETATM   15  C   UNL     1      -8.010  19.951  68.607  1.00  0.00    -0.185 A  
HETATM   16  C   UNL     1      -8.698  19.123  67.704  1.00  0.00    -0.329 A  
BRANCH   4  17
HETATM   17  O   UNL     1      -5.174  17.836  69.571  1.00  0.00    -0.170 OA 
HETATM   18  C   UNL     1      -5.191  16.634  70.334  1.00  0.00    -0.213 C  
ENDBRANCH   4  17
BRANCH  11  19
HETATM   19  O   UNL     1     -10.060  13.239  66.919  1.00  0.00    -0.242 OA 
BRANCH  19  20
HETATM   20  C   UNL     1      -9.366  12.102  66.625  1.00  0.00    -0.226 C  
HETATM   21  O   UNL     1      -8.734  11.930  65.586  1.00  0.00     0.078 OA 
BRANCH  20  22
HETATM   22  C   UNL     1      -9.458  11.040  67.754  1.00  0.00    -0.162 C  
HETATM   23  C   UNL     1      -7.101  11.539  68.616  1.00  0.00    -0.098 C  
HETATM   24  C   UNL     1      -8.172   9.388  69.243  1.00  0.00    -0.111 C  
HETATM   25  H2  UNL     1     -10.151   9.538  66.477  1.00  0.00     0.000 HD 
HETATM   26  H1  UNL     1     -10.459   9.259  68.115  1.00  0.00     0.000 HD 
HETATM   27  C   UNL     1      -8.074  10.454  68.139  1.00  0.00    -0.111 C  
HETATM   28  N   UNL     1     -10.399   9.957  67.373  1.00  0.00    -0.229 NA 
ENDBRANCH  20  22
ENDBRANCH  19  20
ENDBRANCH  11  19
BRANCH  13  29
HETATM   29  C   UNL     1     -11.367  14.164  64.239  1.00  0.00    -0.241 C  
HETATM   30  C   UNL     1     -12.120  12.034  63.126  1.00  0.00    -0.347 C  
HETATM   31  C   UNL     1     -13.141  12.685  65.315  1.00  0.00     0.526 C  
HETATM   32  C   UNL     1     -11.869  12.728  64.467  1.00  0.00    -0.436 C  
ENDBRANCH  13  29
ENDBRANCH   2   3
TORSDOF 6
ENDMDL
MODEL       88
REMARK 921   NORMALIZED FREE ENERGY PREDICTED BY IDOCK:   -4.35 KCAL/MOL
REMARK 922        TOTAL FREE ENERGY PREDICTED BY IDOCK:   -6.70 KCAL/MOL
REMARK 923 INTER-LIGAND FREE ENERGY PREDICTED BY IDOCK:   -5.51 KCAL/MOL
REMARK 924 INTRA-LIGAND FREE ENERGY PREDICTED BY IDOCK:   -1.20 KCAL/MOL
REMARK 927      BINDING AFFINITY PREDICTED BY RF-SCORE:    0.00 PKD
ROOT
HETATM    1  C   UNL     1      -9.301   2.737  68.493  1.00  0.00    -0.186 C  
HETATM    2  O   UNL     1      -8.712   3.246  67.301  1.00  0.00    -0.104 OA 
ENDROOT
BRANCH   2   3
HETATM    3  C   UNL     1      -8.694   4.609  67.155  1.00  0.00    -0.104 A  
HETATM    4  C   UNL     1      -9.707   5.418  66.619  1.00  0.00    -0.161 A  
HETATM    5  C   UNL     1      -9.511   6.800  66.585  1.00  0.00    -0.205 A  
HETATM    6  N   UNL     1      -7.077   9.450  67.833  1.00  0.00    -0.080 NA 
HETATM    7  C   UNL     1      -8.350   7.409  67.091  1.00  0.00    -0.118 A  
HETATM    8  C   UNL     1      -5.853   8.678  67.573  1.00  0.00    -0.043 C  
HETATM    9  C   UNL     1      -8.222   8.928  67.057  1.00  0.00    -0.106 C  
HETATM   10  C   UNL     1      -9.473   9.624  67.625  1.00  0.00    -0.155 C  
HETATM   11  C   UNL     1      -9.421  11.139  67.417  1.00  0.00    -0.164 C  
HETATM   12  C   UNL     1      -5.993   7.195  67.952  1.00  0.00    -0.030 C  
HETATM   13  C   UNL     1      -8.092  11.737  67.922  1.00  0.00    -0.144 C  
HETATM   14  C   UNL     1      -6.882  10.870  67.504  1.00  0.00    -0.079 C  
HETATM   15  C   UNL     1      -7.493   5.201  67.571  1.00  0.00    -0.083 A  
HETATM   16  C   UNL     1      -7.305   6.592  67.525  1.00  0.00    -0.095 A  
BRANCH   4  17
HETATM   17  O   UNL     1     -10.823   4.829  66.082  1.00  0.00    -0.258 OA 
HETATM   18  C   UNL     1     -10.661   4.204  64.813  1.00  0.00    -0.125 C  
ENDBRANCH   4  17
BRANCH  11  19
HETATM   19  O   UNL     1     -10.515  11.729  68.166  1.00  0.00    -0.188 OA 
BRANCH  19  20
HETATM   20  C   UNL     1     -11.507  12.353  67.469  1.00  0.00    -0.346 C  
HETATM   21  O   UNL     1     -11.980  11.933  66.417  1.00  0.00    -0.572 OA 
BRANCH  20  22
HETATM   22  C   UNL     1     -11.984  13.663  68.156  1.00  0.00    -0.355 C  
HETATM   23  C   UNL     1     -11.032  15.152  66.306  1.00  0.00    -0.335 C  
HETATM   24  C   UNL     1     -11.548  16.169  68.512  1.00  0.00    -0.265 C  
HETATM   25  H2  UNL     1     -11.200  13.136  70.020  1.00  0.00     0.000 HD 
HETATM   26  H1  UNL     1     -12.390  14.334  70.076  1.00  0.00     0.000 HD 
HETATM   27  C   UNL     1     -11.084  14.879  67.815  1.00  0.00    -0.313 C  
HETATM   28  N   UNL     1     -12.077  13.474  69.625  1.00  0.00    -0.321 NA 
ENDBRANCH  20  22
ENDBRANCH  19  20
ENDBRANCH  11  19
BRANCH  13  29
HETATM   29  C   UNL     1      -7.859  13.180  67.402  1.00  0.00    -0.169 C  
HETATM   30  C   UNL     1      -7.465  15.637  67.792  1.00  0.00    -0.163 C  
HETATM   31  C   UNL     1      -6.350  13.977  69.295  1.00  0.00    -0.110 C  
HETATM   32  C   UNL     1      -7.598  14.266  68.460  1.00  0.00    -0.127 C  
ENDBRANCH  13  29
ENDBRANCH   2   3
TORSDOF 6
ENDMDL
MODEL       89
REMARK 921   NORMALIZED FREE ENERGY PREDICTED BY IDOCK:   -4.33 KCAL/MOL
REMARK 922        TOTAL FREE ENERGY PREDICTED BY IDOCK:   -6.67 KCAL/MOL
REMARK 923 INTER-LIGAND FREE ENERGY PREDICTED BY IDOCK:   -5.77 KCAL/MOL
REMARK 924 INTRA-LIGAND FREE ENERGY PREDICTED BY IDOCK:   -0.90 KCAL/MOL
REMARK 927      BINDING AFFINITY PREDICTED BY RF-SCORE:    0.00 PKD
ROOT
HETATM    1  C   UNL     1      -7.711  18.694  67.482  1.00  0.00    -0.229 C  
HETATM    2  O   UNL     1      -7.679  17.847  66.339  1.00  0.00    -0.242 OA 
ENDROOT
BRANCH   2   3
HETATM    3  C   UNL     1      -8.114  16.558  66.512  1.00  0.00    -0.306 A  
HETATM    4  C   UNL     1      -9.324  16.004  66.068  1.00  0.00    -0.345 A  
HETATM    5  C   UNL     1      -9.571  14.653  66.317  1.00  0.00    -0.333 A  
HETATM    6  N   UNL     1      -7.816  11.545  67.645  1.00  0.00    -0.119 NA 
HETATM    7  C   UNL     1      -8.643  13.824  66.970  1.00  0.00    -0.182 A  
HETATM    8  C   UNL     1      -7.101  12.220  68.737  1.00  0.00    -0.107 C  
HETATM    9  C   UNL     1      -8.963  12.348  67.171  1.00  0.00    -0.195 C  
HETATM   10  C   UNL     1      -9.441  11.679  65.869  1.00  0.00    -0.246 C  
HETATM   11  C   UNL     1      -9.940  10.254  66.113  1.00  0.00    -0.238 C  
HETATM   12  C   UNL     1      -6.531  13.586  68.321  1.00  0.00    -0.104 C  
HETATM   13  C   UNL     1      -8.910   9.418  66.901  1.00  0.00    -0.141 C  
HETATM   14  C   UNL     1      -8.300  10.223  68.072  1.00  0.00    -0.114 C  
HETATM   15  C   UNL     1      -7.226  15.763  67.250  1.00  0.00    -0.254 A  
HETATM   16  C   UNL     1      -7.490  14.406  67.500  1.00  0.00    -0.206 A  
BRANCH   4  17
HETATM   17  O   UNL     1     -10.254  16.815  65.470  1.00  0.00    -0.567 OA 
HETATM   18  C   UNL     1     -11.164  16.183  64.577  1.00  0.00    -0.264 C  
ENDBRANCH   4  17
BRANCH  11  19
HETATM   19  O   UNL     1     -10.159   9.631  64.822  1.00  0.00    -0.007 OA 
BRANCH  19  20
HETATM   20  C   UNL     1      -9.271   9.896  63.821  1.00  0.00    -0.243 C  
HETATM   21  O   UNL     1      -9.277  10.924  63.149  1.00  0.00    -0.245 OA 
BRANCH  20  22
HETATM   22  C   UNL     1      -8.239   8.752  63.621  1.00  0.00    -0.163 C  
HETATM   23  C   UNL     1      -6.321  10.108  64.637  1.00  0.00    -0.130 C  
HETATM   24  C   UNL     1      -5.776   8.144  63.218  1.00  0.00    -0.067 C  
HETATM   25  H2  UNL     1      -8.773   8.431  61.627  1.00  0.00     0.000 HD 
HETATM   26  H1  UNL     1      -7.957   7.139  62.349  1.00  0.00     0.000 HD 
HETATM   27  C   UNL     1      -6.791   9.278  63.435  1.00  0.00    -0.091 C  
HETATM   28  N   UNL     1      -8.635   7.890  62.480  1.00  0.00     0.005 NA 
ENDBRANCH  20  22
ENDBRANCH  19  20
ENDBRANCH  11  19
BRANCH  13  29
HETATM   29  C   UNL     1      -9.522   8.113  67.474  1.00  0.00    -0.184 C  
HETATM   30  C   UNL     1      -9.964   5.637  67.356  1.00  0.00    -0.180 C  
HETATM   31  C   UNL     1      -7.734   6.506  66.629  1.00  0.00    -0.099 C  
HETATM   32  C   UNL     1      -9.230   6.813  66.706  1.00  0.00    -0.172 C  
ENDBRANCH  13  29
ENDBRANCH   2   3
TORSDOF 6
ENDMDL
MODEL       90
REMARK 921   NORMALIZED FREE ENERGY PREDICTED BY IDOCK:   -4.22 KCAL/MOL
REMARK 922        TOTAL FREE ENERGY PREDICTED BY IDOCK:   -6.53 KCAL/MOL
REMARK 923 INTER-LIGAND FREE ENERGY PREDICTED BY IDOCK:   -6.13 KCAL/MOL
REMARK 924 INTRA-LIGAND FREE ENERGY PREDICTED BY IDOCK:   -0.40 KCAL/MOL
REMARK 927      BINDING AFFINITY PREDICTED BY RF-SCORE:    0.00 PKD
ROOT
HETATM    1  C   UNL     1     -14.126   9.024  72.385  1.00  0.00    -0.404 C  
HETATM    2  O   UNL     1     -13.143  10.044  72.255  1.00  0.00    -0.413 OA 
ENDROOT
BRANCH   2   3
HETATM    3  C   UNL     1     -12.267   9.928  71.207  1.00  0.00    -0.387 A  
HETATM    4  C   UNL     1     -11.235   8.989  71.063  1.00  0.00    -0.295 A  
HETATM    5  C   UNL     1     -10.466   9.014  69.898  1.00  0.00    -0.226 A  
HETATM    6  N   UNL     1     -10.357  10.711  66.490  1.00  0.00    -0.240 NA 
HETATM    7  C   UNL     1     -10.705   9.927  68.857  1.00  0.00    -0.244 A  
HETATM    8  C   UNL     1     -10.746  12.047  66.964  1.00  0.00    -0.242 C  
HETATM    9  C   UNL     1      -9.851   9.869  67.595  1.00  0.00    -0.163 C  
HETATM   10  C   UNL     1      -9.752   8.440  67.031  1.00  0.00    -0.268 C  
HETATM   11  C   UNL     1      -8.746   8.354  65.882  1.00  0.00    -0.169 C  
HETATM   12  C   UNL     1     -11.862  12.002  68.021  1.00  0.00    -0.338 C  
HETATM   13  C   UNL     1      -9.014   9.430  64.809  1.00  0.00    -0.241 C  
HETATM   14  C   UNL     1      -9.325  10.804  65.446  1.00  0.00    -0.207 C  
HETATM   15  C   UNL     1     -12.448  10.905  70.216  1.00  0.00    -0.383 A  
HETATM   16  C   UNL     1     -11.663  10.923  69.052  1.00  0.00    -0.391 A  
BRANCH   4  17
HETATM   17  O   UNL     1     -10.966   8.125  72.093  1.00  0.00    -0.260 OA 
HETATM   18  C   UNL     1     -10.624   6.792  71.728  1.00  0.00    -0.213 C  
ENDBRANCH   4  17
BRANCH  11  19
HETATM   19  O   UNL     1      -8.877   7.043  65.273  1.00  0.00     0.005 OA 
BRANCH  19  20
HETATM   20  C   UNL     1      -8.878   5.952  66.091  1.00  0.00    -0.147 C  
HETATM   21  O   UNL     1      -9.894   5.377  66.473  1.00  0.00    -0.151 OA 
BRANCH  20  22
HETATM   22  C   UNL     1      -7.444   5.506  66.491  1.00  0.00    -0.087 C  
HETATM   23  C   UNL     1      -7.798   6.075  68.961  1.00  0.00    -0.096 C  
HETATM   24  C   UNL     1      -5.477   5.839  68.109  1.00  0.00    -0.008 C  
HETATM   25  H2  UNL     1      -6.528   6.595  64.960  1.00  0.00     0.000 HD 
HETATM   26  H1  UNL     1      -5.575   5.356  65.604  1.00  0.00     0.000 HD 
HETATM   27  C   UNL     1      -6.904   6.268  67.729  1.00  0.00    -0.066 C  
HETATM   28  N   UNL     1      -6.517   5.649  65.341  1.00  0.00    -0.038 NA 
ENDBRANCH  20  22
ENDBRANCH  19  20
ENDBRANCH  11  19
BRANCH  13  29
HETATM   29  C   UNL     1      -7.819   9.604  63.836  1.00  0.00    -0.136 C  
HETATM   30  C   UNL     1      -5.459  10.327  63.334  1.00  0.00    -0.139 C  
HETATM   31  C   UNL     1      -5.952   9.235  65.531  1.00  0.00    -0.059 C  
HETATM   32  C   UNL     1      -6.509  10.143  64.434  1.00  0.00    -0.122 C  
ENDBRANCH  13  29
ENDBRANCH   2   3
TORSDOF 6
ENDMDL
MODEL       91
REMARK 921   NORMALIZED FREE ENERGY PREDICTED BY IDOCK:   -4.18 KCAL/MOL
REMARK 922        TOTAL FREE ENERGY PREDICTED BY IDOCK:   -6.46 KCAL/MOL
REMARK 923 INTER-LIGAND FREE ENERGY PREDICTED BY IDOCK:   -5.62 KCAL/MOL
REMARK 924 INTRA-LIGAND FREE ENERGY PREDICTED BY IDOCK:   -0.84 KCAL/MOL
REMARK 927      BINDING AFFINITY PREDICTED BY RF-SCORE:    0.00 PKD
ROOT
HETATM    1  C   UNL     1      -7.441   1.765  63.364  1.00  0.00    -0.053 C  
HETATM    2  O   UNL     1      -8.635   2.510  63.576  1.00  0.00    -0.085 OA 
ENDROOT
BRANCH   2   3
HETATM    3  C   UNL     1      -8.695   3.272  64.714  1.00  0.00    -0.105 A  
HETATM    4  C   UNL     1      -8.423   4.643  64.832  1.00  0.00    -0.135 A  
HETATM    5  C   UNL     1      -8.572   5.249  66.081  1.00  0.00    -0.120 A  
HETATM    6  N   UNL     1      -9.881   4.484  69.575  1.00  0.00    -0.215 NA 
HETATM    7  C   UNL     1      -9.010   4.542  67.214  1.00  0.00    -0.125 A  
HETATM    8  C   UNL     1      -9.352   3.115  69.648  1.00  0.00    -0.151 C  
HETATM    9  C   UNL     1      -9.190   5.278  68.537  1.00  0.00    -0.113 C  
HETATM   10  C   UNL     1     -10.012   6.569  68.371  1.00  0.00    -0.145 C  
HETATM   11  C   UNL     1     -10.031   7.398  69.656  1.00  0.00    -0.182 C  
HETATM   12  C   UNL     1      -9.518   2.342  68.330  1.00  0.00    -0.227 C  
HETATM   13  C   UNL     1     -10.444   6.549  70.875  1.00  0.00    -0.263 C  
HETATM   14  C   UNL     1      -9.748   5.169  70.870  1.00  0.00    -0.188 C  
HETATM   15  C   UNL     1      -9.037   2.540  65.860  1.00  0.00    -0.099 A  
HETATM   16  C   UNL     1      -9.178   3.160  67.112  1.00  0.00    -0.209 A  
BRANCH   4  17
HETATM   17  O   UNL     1      -7.952   5.330  63.743  1.00  0.00    -0.091 OA 
HETATM   18  C   UNL     1      -7.589   6.689  63.960  1.00  0.00    -0.108 C  
ENDBRANCH   4  17
BRANCH  11  19
HETATM   19  O   UNL     1     -10.995   8.468  69.482  1.00  0.00    -0.173 OA 
BRANCH  19  20
HETATM   20  C   UNL     1     -10.529   9.703  69.138  1.00  0.00    -0.214 C  
HETATM   21  O   UNL     1      -9.709  10.338  69.796  1.00  0.00    -0.220 OA 
BRANCH  20  22
HETATM   22  C   UNL     1     -11.149  10.227  67.813  1.00  0.00    -0.269 C  
HETATM   23  C   UNL     1      -9.176   9.415  66.399  1.00  0.00    -0.215 C  
HETATM   24  C   UNL     1     -10.693  11.141  65.456  1.00  0.00    -0.251 C  
HETATM   25  H2  UNL     1     -11.578  12.116  68.597  1.00  0.00     0.000 HD 
HETATM   26  H1  UNL     1     -12.457  11.718  67.209  1.00  0.00     0.000 HD 
HETATM   27  C   UNL     1     -10.076  10.605  66.759  1.00  0.00    -0.272 C  
HETATM   28  N   UNL     1     -12.050  11.375  68.080  1.00  0.00    -0.615 NA 
ENDBRANCH  20  22
ENDBRANCH  19  20
ENDBRANCH  11  19
BRANCH  13  29
HETATM   29  C   UNL     1     -10.122   7.251  72.221  1.00  0.00    -0.219 C  
HETATM   30  C   UNL     1      -8.530   7.867  74.072  1.00  0.00    -0.321 C  
HETATM   31  C   UNL     1      -7.699   7.853  71.712  1.00  0.00    -0.103 C  
HETATM   32  C   UNL     1      -8.662   7.197  72.702  1.00  0.00    -0.138 C  
ENDBRANCH  13  29
ENDBRANCH   2   3
TORSDOF 6
ENDMDL
MODEL       92
REMARK 921   NORMALIZED FREE ENERGY PREDICTED BY IDOCK:   -4.18 KCAL/MOL
REMARK 922        TOTAL FREE ENERGY PREDICTED BY IDOCK:   -6.46 KCAL/MOL
REMARK 923 INTER-LIGAND FREE ENERGY PREDICTED BY IDOCK:   -6.44 KCAL/MOL
REMARK 924 INTRA-LIGAND FREE ENERGY PREDICTED BY IDOCK:   -0.02 KCAL/MOL
REMARK 927      BINDING AFFINITY PREDICTED BY RF-SCORE:    0.00 PKD
ROOT
HETATM    1  C   UNL     1      -9.874   3.036  71.205  1.00  0.00    -0.075 C  
HETATM    2  O   UNL     1      -9.638   3.733  69.986  1.00  0.00    -0.186 OA 
ENDROOT
BRANCH   2   3
HETATM    3  C   UNL     1      -9.782   5.096  70.016  1.00  0.00    -0.205 A  
HETATM    4  C   UNL     1      -8.864   6.056  69.566  1.00  0.00    -0.125 A  
HETATM    5  C   UNL     1      -9.211   7.406  69.654  1.00  0.00    -0.146 A  
HETATM    6  N   UNL     1     -12.193   9.620  70.493  1.00  0.00    -0.151 NA 
HETATM    7  C   UNL     1     -10.453   7.834  70.151  1.00  0.00    -0.231 A  
HETATM    8  C   UNL     1     -12.675   8.817  71.625  1.00  0.00    -0.348 C  
HETATM    9  C   UNL     1     -10.779   9.323  70.180  1.00  0.00    -0.235 C  
HETATM   10  C   UNL     1     -10.491  10.002  68.829  1.00  0.00    -0.229 C  
HETATM   11  C   UNL     1     -10.639  11.522  68.915  1.00  0.00    -0.204 C  
HETATM   12  C   UNL     1     -12.600   7.305  71.357  1.00  0.00    -0.423 C  
HETATM   13  C   UNL     1     -11.990  11.927  69.541  1.00  0.00    -0.355 C  
HETATM   14  C   UNL     1     -12.330  11.058  70.773  1.00  0.00    -0.398 C  
HETATM   15  C   UNL     1     -10.983   5.519  70.605  1.00  0.00    -0.190 A  
HETATM   16  C   UNL     1     -11.317   6.881  70.694  1.00  0.00    -0.366 A  
BRANCH   4  17
HETATM   17  O   UNL     1      -7.632   5.650  69.120  1.00  0.00    -0.084 OA 
HETATM   18  C   UNL     1      -6.737   6.677  68.710  1.00  0.00    -0.057 C  
ENDBRANCH   4  17
BRANCH  11  19
HETATM   19  O   UNL     1     -10.568  12.054  67.568  1.00  0.00    -0.213 OA 
BRANCH  19  20
HETATM   20  C   UNL     1      -9.537  11.651  66.771  1.00  0.00    -0.192 C  
HETATM   21  O   UNL     1      -9.616  10.741  65.950  1.00  0.00    -0.190 OA 
BRANCH  20  22
HETATM   22  C   UNL     1      -8.241  12.474  67.011  1.00  0.00    -0.125 C  
HETATM   23  C   UNL     1      -6.961  10.463  67.942  1.00  0.00    -0.082 C  
HETATM   24  C   UNL     1      -6.116  12.747  68.427  1.00  0.00    -0.069 C  
HETATM   25  H2  UNL     1      -9.242  14.025  67.991  1.00  0.00     0.000 HD 
HETATM   26  H1  UNL     1      -7.718  14.445  67.392  1.00  0.00     0.000 HD 
HETATM   27  C   UNL     1      -7.387  11.918  68.180  1.00  0.00    -0.092 C  
HETATM   28  N   UNL     1      -8.569  13.904  67.234  1.00  0.00    -0.203 NA 
ENDBRANCH  20  22
ENDBRANCH  19  20
ENDBRANCH  11  19
BRANCH  13  29
HETATM   29  C   UNL     1     -12.017  13.416  69.974  1.00  0.00    -0.407 C  
HETATM   30  C   UNL     1     -11.493  15.848  69.576  1.00  0.00    -0.342 C  
HETATM   31  C   UNL     1     -12.234  14.436  67.648  1.00  0.00    -0.200 C  
HETATM   32  C   UNL     1     -11.464  14.442  68.970  1.00  0.00    -0.314 C  
ENDBRANCH  13  29
ENDBRANCH   2   3
TORSDOF 6
ENDMDL
MODEL       93
REMARK 921   NORMALIZED FREE ENERGY PREDICTED BY IDOCK:   -4.18 KCAL/MOL
REMARK 922        TOTAL FREE ENERGY PREDICTED BY IDOCK:   -6.46 KCAL/MOL
REMARK 923 INTER-LIGAND FREE ENERGY PREDICTED BY IDOCK:   -6.86 KCAL/MOL
REMARK 924 INTRA-LIGAND FREE ENERGY PREDICTED BY IDOCK:    0.40 KCAL/MOL
REMARK 927      BINDING AFFINITY PREDICTED BY RF-SCORE:    0.00 PKD
ROOT
HETATM    1  C   UNL     1     -14.371  14.826  71.645  1.00  0.00    -0.557 C  
HETATM    2  O   UNL     1     -12.996  14.682  71.303  1.00  0.00    -0.305 OA 
ENDROOT
BRANCH   2   3
HETATM    3  C   UNL     1     -12.563  13.417  71.001  1.00  0.00    -0.343 A  
HETATM    4  C   UNL     1     -11.634  13.051  70.017  1.00  0.00    -0.124 A  
HETATM    5  C   UNL     1     -11.297  11.702  69.884  1.00  0.00    -0.230 A  
HETATM    6  N   UNL     1     -11.841   8.357  71.621  1.00  0.00    -0.287 NA 
HETATM    7  C   UNL     1     -11.836  10.706  70.715  1.00  0.00    -0.459 A  
HETATM    8  C   UNL     1     -13.255   8.578  71.955  1.00  0.00    -0.369 C  
HETATM    9  C   UNL     1     -11.392   9.258  70.539  1.00  0.00    -0.258 C  
HETATM   10  C   UNL     1      -9.859   9.128  70.485  1.00  0.00    -0.285 C  
HETATM   11  C   UNL     1      -9.423   7.708  70.121  1.00  0.00    -0.161 C  
HETATM   12  C   UNL     1     -13.536  10.011  72.438  1.00  0.00    -0.182 C  
HETATM   13  C   UNL     1     -10.107   6.655  71.018  1.00  0.00    -0.207 C  
HETATM   14  C   UNL     1     -11.609   6.963  71.213  1.00  0.00    -0.310 C  
HETATM   15  C   UNL     1     -13.179  12.417  71.769  1.00  0.00    -0.435 A  
HETATM   16  C   UNL     1     -12.837  11.063  71.620  1.00  0.00    -0.540 A  
BRANCH   4  17
HETATM   17  O   UNL     1     -11.137  14.010  69.172  1.00  0.00    -0.253 OA 
HETATM   18  C   UNL     1      -9.773  13.874  68.791  1.00  0.00    -0.093 C  
ENDBRANCH   4  17
BRANCH  11  19
HETATM   19  O   UNL     1      -7.987   7.621  70.308  1.00  0.00    -0.098 OA 
BRANCH  19  20
HETATM   20  C   UNL     1      -7.521   6.974  71.415  1.00  0.00    -0.081 C  
HETATM   21  O   UNL     1      -7.009   5.858  71.397  1.00  0.00    -0.067 OA 
BRANCH  20  22
HETATM   22  C   UNL     1      -7.705   7.808  72.713  1.00  0.00    -0.106 C  
HETATM   23  C   UNL     1      -5.705   9.320  72.200  1.00  0.00    -0.043 C  
HETATM   24  C   UNL     1      -6.554   9.212  74.531  1.00  0.00     0.065 C  
HETATM   25  H2  UNL     1      -7.859   6.122  73.939  1.00  0.00     0.000 HD 
HETATM   26  H1  UNL     1      -8.483   7.540  74.617  1.00  0.00     0.000 HD 
HETATM   27  C   UNL     1      -6.371   8.404  73.235  1.00  0.00    -0.115 C  
HETATM   28  N   UNL     1      -8.362   6.992  73.764  1.00  0.00    -0.128 NA 
ENDBRANCH  20  22
ENDBRANCH  19  20
ENDBRANCH  11  19
BRANCH  13  29
HETATM   29  C   UNL     1      -9.975   5.218  70.447  1.00  0.00    -0.303 C  
HETATM   30  C   UNL     1      -9.437   2.772  70.710  1.00  0.00    -0.219 C  
HETATM   31  C   UNL     1     -10.628   3.958  72.564  1.00  0.00    -0.125 C  
HETATM   32  C   UNL     1      -9.599   4.107  71.442  1.00  0.00    -0.238 C  
ENDBRANCH  13  29
ENDBRANCH   2   3
TORSDOF 6
ENDMDL
MODEL       94
REMARK 921   NORMALIZED FREE ENERGY PREDICTED BY IDOCK:   -4.17 KCAL/MOL
REMARK 922        TOTAL FREE ENERGY PREDICTED BY IDOCK:   -6.45 KCAL/MOL
REMARK 923 INTER-LIGAND FREE ENERGY PREDICTED BY IDOCK:   -6.72 KCAL/MOL
REMARK 924 INTRA-LIGAND FREE ENERGY PREDICTED BY IDOCK:    0.26 KCAL/MOL
REMARK 927      BINDING AFFINITY PREDICTED BY RF-SCORE:    0.00 PKD
ROOT
HETATM    1  C   UNL     1      -6.103   3.722  65.181  1.00  0.00    -0.023 C  
HETATM    2  O   UNL     1      -6.368   4.407  66.401  1.00  0.00    -0.034 OA 
ENDROOT
BRANCH   2   3
HETATM    3  C   UNL     1      -7.173   5.514  66.326  1.00  0.00    -0.077 A  
HETATM    4  C   UNL     1      -8.575   5.543  66.296  1.00  0.00    -0.125 A  
HETATM    5  C   UNL     1      -9.217   6.783  66.250  1.00  0.00    -0.161 A  
HETATM    6  N   UNL     1      -8.438  10.502  66.506  1.00  0.00    -0.136 NA 
HETATM    7  C   UNL     1      -8.511   7.998  66.260  1.00  0.00    -0.138 A  
HETATM    8  C   UNL     1      -7.192  10.458  65.728  1.00  0.00    -0.143 C  
HETATM    9  C   UNL     1      -9.280   9.314  66.249  1.00  0.00    -0.186 C  
HETATM   10  C   UNL     1     -10.391   9.341  67.315  1.00  0.00    -0.332 C  
HETATM   11  C   UNL     1     -11.277  10.580  67.178  1.00  0.00    -0.056 C  
HETATM   12  C   UNL     1      -6.325   9.232  66.059  1.00  0.00    -0.068 C  
HETATM   13  C   UNL     1     -10.441  11.875  67.116  1.00  0.00    -0.249 C  
HETATM   14  C   UNL     1      -9.210  11.714  66.195  1.00  0.00    -0.219 C  
HETATM   15  C   UNL     1      -6.460   6.719  66.237  1.00  0.00    -0.047 A  
HETATM   16  C   UNL     1      -7.118   7.959  66.184  1.00  0.00    -0.062 A  
BRANCH   4  17
HETATM   17  O   UNL     1      -9.270   4.363  66.240  1.00  0.00    -0.126 OA 
HETATM   18  C   UNL     1      -9.938   4.078  65.016  1.00  0.00    -0.201 C  
ENDBRANCH   4  17
BRANCH  11  19
HETATM   19  O   UNL     1     -12.145  10.637  68.339  1.00  0.00    -0.423 OA 
BRANCH  19  20
HETATM   20  C   UNL     1     -11.616  11.079  69.516  1.00  0.00    -0.313 C  
HETATM   21  O   UNL     1     -10.412  11.163  69.741  1.00  0.00    -0.061 OA 
BRANCH  20  22
HETATM   22  C   UNL     1     -12.707  11.472  70.549  1.00  0.00    -0.110 C  
HETATM   23  C   UNL     1     -12.374  13.980  70.166  1.00  0.00    -0.409 C  
HETATM   24  C   UNL     1     -13.512  13.230  72.241  1.00  0.00    -0.679 C  
HETATM   25  H2  UNL     1     -11.953  10.210  72.034  1.00  0.00     0.000 HD 
HETATM   26  H1  UNL     1     -13.561  10.677  72.264  1.00  0.00     0.000 HD 
HETATM   27  C   UNL     1     -12.441  12.853  71.204  1.00  0.00    -0.344 C  
HETATM   28  N   UNL     1     -12.844  10.418  71.585  1.00  0.00    -0.440 NA 
ENDBRANCH  20  22
ENDBRANCH  19  20
ENDBRANCH  11  19
BRANCH  13  29
HETATM   29  C   UNL     1     -11.267  13.089  66.617  1.00  0.00    -0.341 C  
HETATM   30  C   UNL     1     -12.019  14.657  64.795  1.00  0.00    -0.439 C  
HETATM   31  C   UNL     1     -11.735  12.229  64.264  1.00  0.00    -0.456 C  
HETATM   32  C   UNL     1     -11.216  13.392  65.110  1.00  0.00    -0.321 C  
ENDBRANCH  13  29
ENDBRANCH   2   3
TORSDOF 6
ENDMDL
MODEL       95
REMARK 921   NORMALIZED FREE ENERGY PREDICTED BY IDOCK:   -4.17 KCAL/MOL
REMARK 922        TOTAL FREE ENERGY PREDICTED BY IDOCK:   -6.45 KCAL/MOL
REMARK 923 INTER-LIGAND FREE ENERGY PREDICTED BY IDOCK:   -5.34 KCAL/MOL
REMARK 924 INTRA-LIGAND FREE ENERGY PREDICTED BY IDOCK:   -1.11 KCAL/MOL
REMARK 927      BINDING AFFINITY PREDICTED BY RF-SCORE:    0.00 PKD
ROOT
HETATM    1  C   UNL     1     -10.318  17.527  66.894  1.00  0.00    -0.315 C  
HETATM    2  O   UNL     1     -10.876  16.290  66.464  1.00  0.00    -0.240 OA 
ENDROOT
BRANCH   2   3
HETATM    3  C   UNL     1     -10.496  15.167  67.154  1.00  0.00    -0.280 A  
HETATM    4  C   UNL     1     -11.134  14.598  68.265  1.00  0.00    -0.271 A  
HETATM    5  C   UNL     1     -10.606  13.426  68.811  1.00  0.00    -0.230 A  
HETATM    6  N   UNL     1      -7.951  10.791  68.094  1.00  0.00    -0.110 NA 
HETATM    7  C   UNL     1      -9.478  12.784  68.272  1.00  0.00    -0.203 A  
HETATM    8  C   UNL     1      -6.925  11.726  67.611  1.00  0.00    -0.103 C  
HETATM    9  C   UNL     1      -8.982  11.485  68.895  1.00  0.00     0.039 C  
HETATM   10  C   UNL     1     -10.122  10.469  69.093  1.00  0.00    -0.240 C  
HETATM   11  C   UNL     1      -9.659   9.246  69.887  1.00  0.00    -0.199 C  
HETATM   12  C   UNL     1      -7.502  12.831  66.711  1.00  0.00     0.379 C  
HETATM   13  C   UNL     1      -8.375   8.634  69.292  1.00  0.00    -0.118 C  
HETATM   14  C   UNL     1      -7.349   9.724  68.907  1.00  0.00    -0.073 C  
HETATM   15  C   UNL     1      -9.313  14.588  66.670  1.00  0.00    -0.301 A  
HETATM   16  C   UNL     1      -8.789  13.412  67.233  1.00  0.00    -0.220 A  
BRANCH   4  17
HETATM   17  O   UNL     1     -12.207  15.241  68.825  1.00  0.00    -0.202 OA 
HETATM   18  C   UNL     1     -12.306  15.191  70.244  1.00  0.00    -0.352 C  
ENDBRANCH   4  17
BRANCH  11  19
HETATM   19  O   UNL     1     -10.718   8.256  69.837  1.00  0.00    -0.238 OA 
BRANCH  19  20
HETATM   20  C   UNL     1     -11.398   7.983  70.988  1.00  0.00    -0.273 C  
HETATM   21  O   UNL     1     -12.527   8.397  71.236  1.00  0.00    -0.302 OA 
BRANCH  20  22
HETATM   22  C   UNL     1     -10.587   7.080  71.959  1.00  0.00    -0.211 C  
HETATM   23  C   UNL     1     -10.658   5.067  70.380  1.00  0.00    -0.142 C  
HETATM   24  C   UNL     1     -10.140   4.688  72.779  1.00  0.00    -0.220 C  
HETATM   25  H2  UNL     1     -11.773   7.557  73.612  1.00  0.00     0.000 HD 
HETATM   26  H1  UNL     1     -10.253   6.928  74.000  1.00  0.00     0.000 HD 
HETATM   27  C   UNL     1     -10.929   5.575  71.802  1.00  0.00    -0.249 C  
HETATM   28  N   UNL     1     -10.785   7.520  73.362  1.00  0.00    -0.382 NA 
ENDBRANCH  20  22
ENDBRANCH  19  20
ENDBRANCH  11  19
BRANCH  13  29
HETATM   29  C   UNL     1      -7.687   7.641  70.266  1.00  0.00    -0.091 C  
HETATM   30  C   UNL     1      -6.844   5.341  70.853  1.00  0.00    -0.048 C  
HETATM   31  C   UNL     1      -6.569   6.171  68.509  1.00  0.00    -0.059 C  
HETATM   32  C   UNL     1      -7.459   6.209  69.752  1.00  0.00    -0.081 C  
ENDBRANCH  13  29
ENDBRANCH   2   3
TORSDOF 6
ENDMDL
MODEL       96
REMARK 921   NORMALIZED FREE ENERGY PREDICTED BY IDOCK:   -4.16 KCAL/MOL
REMARK 922        TOTAL FREE ENERGY PREDICTED BY IDOCK:   -6.44 KCAL/MOL
REMARK 923 INTER-LIGAND FREE ENERGY PREDICTED BY IDOCK:   -6.91 KCAL/MOL
REMARK 924 INTRA-LIGAND FREE ENERGY PREDICTED BY IDOCK:    0.48 KCAL/MOL
REMARK 927      BINDING AFFINITY PREDICTED BY RF-SCORE:    0.00 PKD
ROOT
HETATM    1  C   UNL     1      -9.629  17.832  66.854  1.00  0.00    -0.288 C  
HETATM    2  O   UNL     1     -10.969  17.398  67.064  1.00  0.00    -0.117 OA 
ENDROOT
BRANCH   2   3
HETATM    3  C   UNL     1     -11.149  16.073  67.367  1.00  0.00    -0.167 A  
HETATM    4  C   UNL     1     -11.015  14.978  66.500  1.00  0.00    -0.327 A  
HETATM    5  C   UNL     1     -11.210  13.694  67.010  1.00  0.00    -0.328 A  
HETATM    6  N   UNL     1     -11.735  11.904  70.331  1.00  0.00    -0.227 NA 
HETATM    7  C   UNL     1     -11.508  13.457  68.363  1.00  0.00    -0.351 A  
HETATM    8  C   UNL     1     -12.636  12.909  70.913  1.00  0.00    -0.270 C  
HETATM    9  C   UNL     1     -11.667  12.025  68.859  1.00  0.00    -0.326 C  
HETATM   10  C   UNL     1     -10.499  11.126  68.412  1.00  0.00    -0.211 C  
HETATM   11  C   UNL     1     -10.754   9.656  68.748  1.00  0.00    -0.206 C  
HETATM   12  C   UNL     1     -12.192  14.350  70.617  1.00  0.00    -0.414 C  
HETATM   13  C   UNL     1     -11.152   9.471  70.227  1.00  0.00    -0.317 C  
HETATM   14  C   UNL     1     -12.169  10.543  70.682  1.00  0.00    -0.352 C  
HETATM   15  C   UNL     1     -11.542  15.851  68.695  1.00  0.00    -0.383 A  
HETATM   16  C   UNL     1     -11.742  14.554  69.194  1.00  0.00    -0.349 A  
BRANCH   4  17
HETATM   17  O   UNL     1     -10.770  15.202  65.170  1.00  0.00    -0.362 OA 
HETATM   18  C   UNL     1     -11.675  14.603  64.249  1.00  0.00    -0.275 C  
ENDBRANCH   4  17
BRANCH  11  19
HETATM   19  O   UNL     1      -9.528   8.923  68.497  1.00  0.00    -0.146 OA 
BRANCH  19  20
HETATM   20  C   UNL     1      -8.422   9.251  69.225  1.00  0.00    -0.137 C  
HETATM   21  O   UNL     1      -8.459   9.746  70.349  1.00  0.00    -0.188 OA 
BRANCH  20  22
HETATM   22  C   UNL     1      -7.099   8.927  68.478  1.00  0.00    -0.072 C  
HETATM   23  C   UNL     1      -6.817  11.326  67.633  1.00  0.00    -0.077 C  
HETATM   24  C   UNL     1      -5.566   9.504  66.499  1.00  0.00    -0.049 C  
HETATM   25  H2  UNL     1      -7.883   7.234  67.537  1.00  0.00     0.000 HD 
HETATM   26  H1  UNL     1      -6.194   7.284  67.593  1.00  0.00     0.000 HD 
HETATM   27  C   UNL     1      -6.867   9.842  67.247  1.00  0.00    -0.083 C  
HETATM   28  N   UNL     1      -7.063   7.497  68.084  1.00  0.00    -0.082 NA 
ENDBRANCH  20  22
ENDBRANCH  19  20
ENDBRANCH  11  19
BRANCH  13  29
HETATM   29  C   UNL     1     -11.762   8.072  70.504  1.00  0.00    -0.080 C  
HETATM   30  C   UNL     1     -12.512   6.256  72.079  1.00  0.00    -0.127 C  
HETATM   31  C   UNL     1     -12.926   8.644  72.698  1.00  0.00    -0.261 C  
HETATM   32  C   UNL     1     -11.976   7.687  71.978  1.00  0.00    -0.341 C  
ENDBRANCH  13  29
ENDBRANCH   2   3
TORSDOF 6
ENDMDL
MODEL       97
REMARK 921   NORMALIZED FREE ENERGY PREDICTED BY IDOCK:   -4.08 KCAL/MOL
REMARK 922        TOTAL FREE ENERGY PREDICTED BY IDOCK:   -6.33 KCAL/MOL
REMARK 923 INTER-LIGAND FREE ENERGY PREDICTED BY IDOCK:   -5.83 KCAL/MOL
REMARK 924 INTRA-LIGAND FREE ENERGY PREDICTED BY IDOCK:   -0.50 KCAL/MOL
REMARK 927      BINDING AFFINITY PREDICTED BY RF-SCORE:    0.00 PKD
ROOT
HETATM    1  C   UNL     1      -8.211   4.389  62.331  1.00  0.00    -0.071 C  
HETATM    2  O   UNL     1      -7.628   5.523  62.964  1.00  0.00    -0.060 OA 
ENDROOT
BRANCH   2   3
HETATM    3  C   UNL     1      -7.967   5.742  64.275  1.00  0.00    -0.125 A  
HETATM    4  C   UNL     1      -7.920   6.958  64.972  1.00  0.00    -0.125 A  
HETATM    5  C   UNL     1      -8.340   6.982  66.303  1.00  0.00    -0.129 A  
HETATM    6  N   UNL     1     -10.026   4.751  68.888  1.00  0.00    -0.157 NA 
HETATM    7  C   UNL     1      -8.833   5.841  66.959  1.00  0.00    -0.112 A  
HETATM    8  C   UNL     1      -9.319   3.517  68.520  1.00  0.00    -0.166 C  
HETATM    9  C   UNL     1      -9.313   5.951  68.401  1.00  0.00    -0.120 C  
HETATM   10  C   UNL     1     -10.283   7.131  68.598  1.00  0.00    -0.186 C  
HETATM   11  C   UNL     1     -10.613   7.353  70.074  1.00  0.00    -0.232 C  
HETATM   12  C   UNL     1      -9.172   3.346  66.999  1.00  0.00    -0.208 C  
HETATM   13  C   UNL     1     -11.074   6.049  70.757  1.00  0.00    -0.355 C  
HETATM   14  C   UNL     1     -10.189   4.849  70.347  1.00  0.00    -0.222 C  
HETATM   15  C   UNL     1      -8.365   4.579  64.951  1.00  0.00    -0.121 A  
HETATM   16  C   UNL     1      -8.779   4.616  66.292  1.00  0.00    -0.113 A  
BRANCH   4  17
HETATM   17  O   UNL     1      -7.399   8.066  64.354  1.00  0.00    -0.080 OA 
HETATM   18  C   UNL     1      -8.332   8.943  63.733  1.00  0.00    -0.161 C  
ENDBRANCH   4  17
BRANCH  11  19
HETATM   19  O   UNL     1     -11.687   8.326  70.149  1.00  0.00    -0.008 OA 
BRANCH  19  20
HETATM   20  C   UNL     1     -11.504   9.427  70.933  1.00  0.00    -0.316 C  
HETATM   21  O   UNL     1     -10.809   9.444  71.945  1.00  0.00    -0.310 OA 
BRANCH  20  22
HETATM   22  C   UNL     1     -12.271  10.670  70.403  1.00  0.00    -0.345 C  
HETATM   23  C   UNL     1     -10.870  10.804  68.265  1.00  0.00    -0.276 C  
HETATM   24  C   UNL     1     -12.152  12.807  68.982  1.00  0.00    -0.188 C  
HETATM   25  H2  UNL     1     -12.108  11.713  72.206  1.00  0.00     0.000 HD 
HETATM   26  H1  UNL     1     -13.331  12.272  71.183  1.00  0.00     0.000 HD 
HETATM   27  C   UNL     1     -11.396  11.567  69.488  1.00  0.00    -0.342 C  
HETATM   28  N   UNL     1     -12.827  11.456  71.531  1.00  0.00    -0.423 NA 
ENDBRANCH  20  22
ENDBRANCH  19  20
ENDBRANCH  11  19
BRANCH  13  29
HETATM   29  C   UNL     1     -11.062   6.156  72.304  1.00  0.00    -0.320 C  
HETATM   30  C   UNL     1      -9.910   5.921  74.531  1.00  0.00    -0.273 C  
HETATM   31  C   UNL     1      -8.607   6.782  72.577  1.00  0.00    -0.127 C  
HETATM   32  C   UNL     1      -9.733   5.844  73.012  1.00  0.00    -0.162 C  
ENDBRANCH  13  29
ENDBRANCH   2   3
TORSDOF 6
ENDMDL
MODEL       98
REMARK 921   NORMALIZED FREE ENERGY PREDICTED BY IDOCK:   -4.04 KCAL/MOL
REMARK 922        TOTAL FREE ENERGY PREDICTED BY IDOCK:   -6.28 KCAL/MOL
REMARK 923 INTER-LIGAND FREE ENERGY PREDICTED BY IDOCK:   -5.59 KCAL/MOL
REMARK 924 INTRA-LIGAND FREE ENERGY PREDICTED BY IDOCK:   -0.69 KCAL/MOL
REMARK 927      BINDING AFFINITY PREDICTED BY RF-SCORE:    0.00 PKD
ROOT
HETATM    1  C   UNL     1      -6.531   9.988  62.831  1.00  0.00    -0.128 C  
HETATM    2  O   UNL     1      -7.816  10.026  63.442  1.00  0.00    -0.142 OA 
ENDROOT
BRANCH   2   3
HETATM    3  C   UNL     1      -7.981   9.283  64.582  1.00  0.00    -0.125 A  
HETATM    4  C   UNL     1      -8.011   9.752  65.903  1.00  0.00    -0.111 A  
HETATM    5  C   UNL     1      -8.224   8.835  66.934  1.00  0.00    -0.108 A  
HETATM    6  N   UNL     1      -9.143   5.177  67.462  1.00  0.00    -0.113 NA 
HETATM    7  C   UNL     1      -8.434   7.466  66.693  1.00  0.00    -0.124 A  
HETATM    8  C   UNL     1      -8.322   4.646  66.365  1.00  0.00    -0.106 C  
HETATM    9  C   UNL     1      -8.700   6.528  67.865  1.00  0.00    -0.116 C  
HETATM   10  C   UNL     1      -9.795   7.073  68.802  1.00  0.00    -0.152 C  
HETATM   11  C   UNL     1      -9.926   6.228  70.070  1.00  0.00    -0.171 C  
HETATM   12  C   UNL     1      -8.384   5.517  65.099  1.00  0.00    -0.146 C  
HETATM   13  C   UNL     1     -10.076   4.728  69.742  1.00  0.00    -0.289 C  
HETATM   14  C   UNL     1      -9.094   4.287  68.632  1.00  0.00    -0.129 C  
HETATM   15  C   UNL     1      -8.092   7.906  64.341  1.00  0.00    -0.103 A  
HETATM   16  C   UNL     1      -8.298   6.992  65.387  1.00  0.00    -0.121 A  
BRANCH   4  17
HETATM   17  O   UNL     1      -7.763  11.078  66.151  1.00  0.00    -0.155 OA 
HETATM   18  C   UNL     1      -6.547  11.379  66.829  1.00  0.00    -0.136 C  
ENDBRANCH   4  17
BRANCH  11  19
HETATM   19  O   UNL     1     -11.110   6.673  70.780  1.00  0.00    -0.252 OA 
BRANCH  19  20
HETATM   20  C   UNL     1     -10.954   7.172  72.040  1.00  0.00    -0.235 C  
HETATM   21  O   UNL     1     -10.786   6.479  73.040  1.00  0.00    -0.236 OA 
BRANCH  20  22
HETATM   22  C   UNL     1     -11.009   8.724  72.078  1.00  0.00    -0.368 C  
HETATM   23  C   UNL     1     -13.549   8.787  71.772  1.00  0.00    -0.453 C  
HETATM   24  C   UNL     1     -12.236  10.838  71.285  1.00  0.00    -0.426 C  
HETATM   25  H2  UNL     1      -9.464   8.951  70.689  1.00  0.00     0.000 HD 
HETATM   26  H1  UNL     1      -9.760  10.320  71.636  1.00  0.00     0.000 HD 
HETATM   27  C   UNL     1     -12.197   9.300  71.262  1.00  0.00    -0.410 C  
HETATM   28  N   UNL     1      -9.724   9.300  71.611  1.00  0.00    -0.269 NA 
ENDBRANCH  20  22
ENDBRANCH  19  20
ENDBRANCH  11  19
BRANCH  13  29
HETATM   29  C   UNL     1      -9.846   3.826  70.983  1.00  0.00    -0.204 C  
HETATM   30  C   UNL     1      -8.330   2.659  72.620  1.00  0.00    -0.070 C  
HETATM   31  C   UNL     1      -7.716   4.948  71.820  1.00  0.00    -0.102 C  
HETATM   32  C   UNL     1      -8.390   3.629  71.438  1.00  0.00    -0.086 C  
ENDBRANCH  13  29
ENDBRANCH   2   3
TORSDOF 6
ENDMDL
MODEL       99
REMARK 921   NORMALIZED FREE ENERGY PREDICTED BY IDOCK:   -4.02 KCAL/MOL
REMARK 922        TOTAL FREE ENERGY PREDICTED BY IDOCK:   -6.25 KCAL/MOL
REMARK 923 INTER-LIGAND FREE ENERGY PREDICTED BY IDOCK:   -5.33 KCAL/MOL
REMARK 924 INTRA-LIGAND FREE ENERGY PREDICTED BY IDOCK:   -0.92 KCAL/MOL
REMARK 927      BINDING AFFINITY PREDICTED BY RF-SCORE:    0.00 PKD
ROOT
HETATM    1  C   UNL     1     -10.655  16.665  66.610  1.00  0.00    -0.203 C  
HETATM    2  O   UNL     1     -11.259  15.500  67.163  1.00  0.00    -0.299 OA 
ENDROOT
BRANCH   2   3
HETATM    3  C   UNL     1     -10.573  14.322  67.021  1.00  0.00    -0.280 A  
HETATM    4  C   UNL     1      -9.746  13.702  67.969  1.00  0.00    -0.226 A  
HETATM    5  C   UNL     1      -9.157  12.478  67.644  1.00  0.00    -0.187 A  
HETATM    6  N   UNL     1      -9.250   9.806  64.933  1.00  0.00    -0.242 NA 
HETATM    7  C   UNL     1      -9.385  11.835  66.416  1.00  0.00    -0.229 A  
HETATM    8  C   UNL     1      -9.336  10.734  63.796  1.00  0.00    -0.266 C  
HETATM    9  C   UNL     1      -8.741  10.480  66.146  1.00  0.00    -0.158 C  
HETATM   10  C   UNL     1      -8.965   9.494  67.307  1.00  0.00    -0.143 C  
HETATM   11  C   UNL     1      -8.163   8.205  67.119  1.00  0.00    -0.120 C  
HETATM   12  C   UNL     1     -10.282  11.916  64.064  1.00  0.00    -0.394 C  
HETATM   13  C   UNL     1      -8.395   7.589  65.723  1.00  0.00    -0.144 C  
HETATM   14  C   UNL     1      -8.376   8.666  64.615  1.00  0.00    -0.155 C  
HETATM   15  C   UNL     1     -10.727  13.734  65.756  1.00  0.00    -0.281 A  
HETATM   16  C   UNL     1     -10.123  12.506  65.440  1.00  0.00    -0.284 A  
BRANCH   4  17
HETATM   17  O   UNL     1      -9.483  14.344  69.151  1.00  0.00    -0.098 OA 
HETATM   18  C   UNL     1      -8.319  15.163  69.183  1.00  0.00    -0.221 C  
ENDBRANCH   4  17
BRANCH  11  19
HETATM   19  O   UNL     1      -8.598   7.258  68.127  1.00  0.00    -0.123 OA 
BRANCH  19  20
HETATM   20  C   UNL     1      -8.167   7.441  69.409  1.00  0.00    -0.131 C  
HETATM   21  O   UNL     1      -7.166   8.082  69.714  1.00  0.00    -0.062 OA 
BRANCH  20  22
HETATM   22  C   UNL     1      -9.088   6.748  70.451  1.00  0.00    -0.153 C  
HETATM   23  C   UNL     1      -7.879   4.502  70.244  1.00  0.00    -0.060 C  
HETATM   24  C   UNL     1     -10.160   4.546  71.225  1.00  0.00    -0.225 C  
HETATM   25  H2  UNL     1     -10.849   7.435  69.559  1.00  0.00     0.000 HD 
HETATM   26  H1  UNL     1     -11.024   6.948  71.168  1.00  0.00     0.000 HD 
HETATM   27  C   UNL     1      -9.232   5.224  70.203  1.00  0.00    -0.181 C  
HETATM   28  N   UNL     1     -10.419   7.403  70.483  1.00  0.00    -0.215 NA 
ENDBRANCH  20  22
ENDBRANCH  19  20
ENDBRANCH  11  19
BRANCH  13  29
HETATM   29  C   UNL     1      -7.338   6.509  65.371  1.00  0.00    -0.076 C  
HETATM   30  C   UNL     1      -6.683   4.125  64.890  1.00  0.00    -0.048 C  
HETATM   31  C   UNL     1      -8.858   4.988  64.003  1.00  0.00    -0.039 C  
HETATM   32  C   UNL     1      -7.854   5.077  65.153  1.00  0.00    -0.089 C  
ENDBRANCH  13  29
ENDBRANCH   2   3
TORSDOF 6
ENDMDL
MODEL      100
REMARK 921   NORMALIZED FREE ENERGY PREDICTED BY IDOCK:   -4.01 KCAL/MOL
REMARK 922        TOTAL FREE ENERGY PREDICTED BY IDOCK:   -6.24 KCAL/MOL
REMARK 923 INTER-LIGAND FREE ENERGY PREDICTED BY IDOCK:   -5.56 KCAL/MOL
REMARK 924 INTRA-LIGAND FREE ENERGY PREDICTED BY IDOCK:   -0.69 KCAL/MOL
REMARK 927      BINDING AFFINITY PREDICTED BY RF-SCORE:    0.00 PKD
ROOT
HETATM    1  C   UNL     1      -9.188   3.142  69.631  1.00  0.00    -0.151 C  
HETATM    2  O   UNL     1      -8.366   3.463  68.514  1.00  0.00    -0.074 OA 
ENDROOT
BRANCH   2   3
HETATM    3  C   UNL     1      -8.260   4.790  68.187  1.00  0.00    -0.088 A  
HETATM    4  C   UNL     1      -9.124   5.534  67.370  1.00  0.00    -0.110 A  
HETATM    5  C   UNL     1      -8.861   6.893  67.182  1.00  0.00    -0.120 A  
HETATM    6  N   UNL     1      -6.566   9.644  68.473  1.00  0.00    -0.052 NA 
HETATM    7  C   UNL     1      -7.781   7.544  67.801  1.00  0.00    -0.115 A  
HETATM    8  C   UNL     1      -5.353   8.818  68.548  1.00  0.00    -0.037 C  
HETATM    9  C   UNL     1      -7.579   9.039  67.583  1.00  0.00    -0.093 C  
HETATM   10  C   UNL     1      -8.877   9.836  67.812  1.00  0.00    -0.129 C  
HETATM   11  C   UNL     1      -8.719  11.303  67.411  1.00  0.00    -0.139 C  
HETATM   12  C   UNL     1      -5.625   7.407  69.097  1.00  0.00    -0.019 C  
HETATM   13  C   UNL     1      -7.474  11.940  68.061  1.00  0.00    -0.107 C  
HETATM   14  C   UNL     1      -6.250  10.997  67.993  1.00  0.00    -0.053 C  
HETATM   15  C   UNL     1      -7.125   5.411  68.729  1.00  0.00    -0.061 A  
HETATM   16  C   UNL     1      -6.868   6.777  68.526  1.00  0.00    -0.074 A  
BRANCH   4  17
HETATM   17  O   UNL     1     -10.153   4.897  66.727  1.00  0.00    -0.199 OA 
HETATM   18  C   UNL     1      -9.812   4.167  65.554  1.00  0.00    -0.207 C  
ENDBRANCH   4  17
BRANCH  11  19
HETATM   19  O   UNL     1      -9.899  12.017  67.860  1.00  0.00    -0.185 OA 
BRANCH  19  20
HETATM   20  C   UNL     1     -11.065  11.826  67.178  1.00  0.00    -0.296 C  
HETATM   21  O   UNL     1     -12.108  11.433  67.693  1.00  0.00    -0.630 OA 
BRANCH  20  22
HETATM   22  C   UNL     1     -10.934  12.165  65.667  1.00  0.00    -0.295 C  
HETATM   23  C   UNL     1     -12.284  14.328  65.885  1.00  0.00    -0.422 C  
HETATM   24  C   UNL     1     -12.005  13.314  63.635  1.00  0.00    -0.547 C  
HETATM   25  H2  UNL     1     -11.511  10.255  65.047  1.00  0.00     0.000 HD 
HETATM   26  H1  UNL     1     -10.677  11.147  63.879  1.00  0.00     0.000 HD 
HETATM   27  C   UNL     1     -12.129  12.999  65.135  1.00  0.00    -0.476 C  
HETATM   28  N   UNL     1     -10.763  10.924  64.871  1.00  0.00    -0.234 NA 
ENDBRANCH  20  22
ENDBRANCH  19  20
ENDBRANCH  11  19
BRANCH  13  29
HETATM   29  C   UNL     1      -7.086  13.289  67.398  1.00  0.00    -0.111 C  
HETATM   30  C   UNL     1      -7.461  15.746  66.995  1.00  0.00    -0.242 C  
HETATM   31  C   UNL     1      -7.850  14.820  69.287  1.00  0.00    -0.122 C  
HETATM   32  C   UNL     1      -7.921  14.520  67.789  1.00  0.00    -0.168 C  
ENDBRANCH  13  29
ENDBRANCH   2   3
TORSDOF 6
ENDMDL
MODEL      101
REMARK 921   NORMALIZED FREE ENERGY PREDICTED BY IDOCK:   -3.99 KCAL/MOL
REMARK 922        TOTAL FREE ENERGY PREDICTED BY IDOCK:   -6.21 KCAL/MOL
REMARK 923 INTER-LIGAND FREE ENERGY PREDICTED BY IDOCK:   -5.49 KCAL/MOL
REMARK 924 INTRA-LIGAND FREE ENERGY PREDICTED BY IDOCK:   -0.71 KCAL/MOL
REMARK 927      BINDING AFFINITY PREDICTED BY RF-SCORE:    0.00 PKD
ROOT
HETATM    1  C   UNL     1     -11.733  16.389  64.231  1.00  0.00     0.271 C  
HETATM    2  O   UNL     1     -12.234  15.061  64.339  1.00  0.00    -0.469 OA 
ENDROOT
BRANCH   2   3
HETATM    3  C   UNL     1     -11.493  14.180  65.084  1.00  0.00    -0.336 A  
HETATM    4  C   UNL     1     -11.718  12.805  65.242  1.00  0.00    -0.368 A  
HETATM    5  C   UNL     1     -10.825  12.067  66.022  1.00  0.00    -0.329 A  
HETATM    6  N   UNL     1      -7.483  12.447  67.808  1.00  0.00    -0.114 NA 
HETATM    7  C   UNL     1      -9.698  12.646  66.629  1.00  0.00    -0.249 A  
HETATM    8  C   UNL     1      -7.731  13.800  68.325  1.00  0.00    -0.138 C  
HETATM    9  C   UNL     1      -8.743  11.771  67.432  1.00  0.00    -0.162 C  
HETATM   10  C   UNL     1      -8.331  10.505  66.658  1.00  0.00    -0.131 C  
HETATM   11  C   UNL     1      -7.529   9.541  67.534  1.00  0.00    -0.091 C  
HETATM   12  C   UNL     1      -8.422  14.712  67.297  1.00  0.00    -0.234 C  
HETATM   13  C   UNL     1      -6.353  10.253  68.233  1.00  0.00    -0.048 C  
HETATM   14  C   UNL     1      -6.776  11.626  68.804  1.00  0.00    -0.077 C  
HETATM   15  C   UNL     1     -10.427  14.783  65.766  1.00  0.00    -0.348 A  
HETATM   16  C   UNL     1      -9.539  14.031  66.553  1.00  0.00    -0.307 A  
BRANCH   4  17
HETATM   17  O   UNL     1     -12.839  12.240  64.691  1.00  0.00    -0.665 OA 
HETATM   18  C   UNL     1     -12.727  11.796  63.343  1.00  0.00    -0.267 C  
ENDBRANCH   4  17
BRANCH  11  19
HETATM   19  O   UNL     1      -7.001   8.496  66.677  1.00  0.00    -0.073 OA 
BRANCH  19  20
HETATM   20  C   UNL     1      -7.277   7.200  67.001  1.00  0.00    -0.091 C  
HETATM   21  O   UNL     1      -6.642   6.545  67.823  1.00  0.00    -0.056 OA 
BRANCH  20  22
HETATM   22  C   UNL     1      -8.493   6.635  66.215  1.00  0.00    -0.130 C  
HETATM   23  C   UNL     1     -10.108   6.997  68.167  1.00  0.00    -0.193 C  
HETATM   24  C   UNL     1     -10.751   5.420  66.360  1.00  0.00    -0.284 C  
HETATM   25  H2  UNL     1      -7.472   4.922  65.592  1.00  0.00     0.000 HD 
HETATM   26  H1  UNL     1      -8.840   5.294  64.672  1.00  0.00     0.000 HD 
HETATM   27  C   UNL     1      -9.559   5.995  67.143  1.00  0.00    -0.134 C  
HETATM   28  N   UNL     1      -8.041   5.665  65.188  1.00  0.00    -0.120 NA 
ENDBRANCH  20  22
ENDBRANCH  19  20
ENDBRANCH  11  19
BRANCH  13  29
HETATM   29  C   UNL     1      -5.755   9.409  69.390  1.00  0.00    -0.034 C  
HETATM   30  C   UNL     1      -5.656   8.729  71.812  1.00  0.00    -0.051 C  
HETATM   31  C   UNL     1      -7.885   9.176  70.769  1.00  0.00    -0.173 C  
HETATM   32  C   UNL     1      -6.407   9.566  70.774  1.00  0.00    -0.091 C  
ENDBRANCH  13  29
ENDBRANCH   2   3
TORSDOF 6
ENDMDL
MODEL      102
REMARK 921   NORMALIZED FREE ENERGY PREDICTED BY IDOCK:   -3.91 KCAL/MOL
REMARK 922        TOTAL FREE ENERGY PREDICTED BY IDOCK:   -6.09 KCAL/MOL
REMARK 923 INTER-LIGAND FREE ENERGY PREDICTED BY IDOCK:   -5.39 KCAL/MOL
REMARK 924 INTRA-LIGAND FREE ENERGY PREDICTED BY IDOCK:   -0.70 KCAL/MOL
REMARK 927      BINDING AFFINITY PREDICTED BY RF-SCORE:    0.00 PKD
ROOT
HETATM    1  C   UNL     1      -6.924   2.996  66.778  1.00  0.00    -0.053 C  
HETATM    2  O   UNL     1      -7.236   3.967  67.770  1.00  0.00    -0.062 OA 
ENDROOT
BRANCH   2   3
HETATM    3  C   UNL     1      -7.943   5.067  67.357  1.00  0.00    -0.096 A  
HETATM    4  C   UNL     1      -9.182   5.510  67.842  1.00  0.00    -0.108 A  
HETATM    5  C   UNL     1      -9.729   6.680  67.310  1.00  0.00    -0.166 A  
HETATM    6  N   UNL     1      -8.811   9.554  64.985  1.00  0.00    -0.183 NA 
HETATM    7  C   UNL     1      -9.070   7.441  66.330  1.00  0.00    -0.195 A  
HETATM    8  C   UNL     1      -8.100   8.735  63.993  1.00  0.00    -0.164 C  
HETATM    9  C   UNL     1      -9.707   8.731  65.825  1.00  0.00    -0.052 C  
HETATM   10  C   UNL     1     -10.162   9.641  66.981  1.00  0.00    -0.308 C  
HETATM   11  C   UNL     1     -10.966  10.839  66.476  1.00  0.00    -0.075 C  
HETATM   12  C   UNL     1      -7.219   7.652  64.635  1.00  0.00    -0.075 C  
HETATM   13  C   UNL     1     -10.226  11.588  65.348  1.00  0.00    -0.311 C  
HETATM   14  C   UNL     1      -9.600  10.607  64.329  1.00  0.00    -0.296 C  
HETATM   15  C   UNL     1      -7.326   5.767  66.310  1.00  0.00    -0.078 A  
HETATM   16  C   UNL     1      -7.890   6.939  65.779  1.00  0.00    -0.106 A  
BRANCH   4  17
HETATM   17  O   UNL     1      -9.852   4.750  68.765  1.00  0.00    -0.165 OA 
HETATM   18  C   UNL     1      -9.699   5.130  70.129  1.00  0.00    -0.204 C  
ENDBRANCH   4  17
BRANCH  11  19
HETATM   19  O   UNL     1     -11.161  11.746  67.591  1.00  0.00    -0.243 OA 
BRANCH  19  20
HETATM   20  C   UNL     1     -10.119  11.943  68.449  1.00  0.00    -0.206 C  
HETATM   21  O   UNL     1      -9.839  11.189  69.377  1.00  0.00    -0.055 OA 
BRANCH  20  22
HETATM   22  C   UNL     1      -9.315  13.232  68.124  1.00  0.00    -0.220 C  
HETATM   23  C   UNL     1      -7.251  11.925  67.360  1.00  0.00    -0.142 C  
HETATM   24  C   UNL     1      -6.991  14.318  67.973  1.00  0.00    -0.149 C  
HETATM   25  H2  UNL     1      -9.754  14.136  69.956  1.00  0.00     0.000 HD 
HETATM   26  H1  UNL     1      -9.256  15.209  68.748  1.00  0.00     0.000 HD 
HETATM   27  C   UNL     1      -7.783  13.035  68.276  1.00  0.00    -0.141 C  
HETATM   28  N   UNL     1      -9.784  14.362  68.962  1.00  0.00    -0.136 NA 
ENDBRANCH  20  22
ENDBRANCH  19  20
ENDBRANCH  11  19
BRANCH  13  29
HETATM   29  C   UNL     1     -11.154  12.563  64.578  1.00  0.00    -0.357 C  
HETATM   30  C   UNL     1     -12.322  14.781  64.336  1.00  0.00    -0.389 C  
HETATM   31  C   UNL     1      -9.996  14.730  65.256  1.00  0.00    -0.331 C  
HETATM   32  C   UNL     1     -11.322  13.974  65.168  1.00  0.00    -0.328 C  
ENDBRANCH  13  29
ENDBRANCH   2   3
TORSDOF 6
ENDMDL
MODEL      103
REMARK 921   NORMALIZED FREE ENERGY PREDICTED BY IDOCK:   -3.90 KCAL/MOL
REMARK 922        TOTAL FREE ENERGY PREDICTED BY IDOCK:   -6.08 KCAL/MOL
REMARK 923 INTER-LIGAND FREE ENERGY PREDICTED BY IDOCK:   -7.14 KCAL/MOL
REMARK 924 INTRA-LIGAND FREE ENERGY PREDICTED BY IDOCK:    1.06 KCAL/MOL
REMARK 927      BINDING AFFINITY PREDICTED BY RF-SCORE:    0.00 PKD
ROOT
HETATM    1  C   UNL     1     -11.707   8.827  70.636  1.00  0.00    -0.166 C  
HETATM    2  O   UNL     1     -12.727   9.819  70.577  1.00  0.00    -0.147 OA 
ENDROOT
BRANCH   2   3
HETATM    3  C   UNL     1     -12.372  11.040  70.065  1.00  0.00    -0.305 A  
HETATM    4  C   UNL     1     -12.227  12.245  70.769  1.00  0.00    -0.260 A  
HETATM    5  C   UNL     1     -11.824  13.384  70.068  1.00  0.00    -0.364 A  
HETATM    6  N   UNL     1     -10.557  14.417  66.629  1.00  0.00    -0.279 NA 
HETATM    7  C   UNL     1     -11.533  13.359  68.694  1.00  0.00    -0.345 A  
HETATM    8  C   UNL     1     -11.454  13.543  65.859  1.00  0.00    -0.320 C  
HETATM    9  C   UNL     1     -11.058  14.632  68.003  1.00  0.00    -0.281 C  
HETATM   10  C   UNL     1      -9.911  15.312  68.772  1.00  0.00    -0.217 C  
HETATM   11  C   UNL     1      -9.566  16.681  68.183  1.00  0.00    -0.228 C  
HETATM   12  C   UNL     1     -11.609  12.148  66.487  1.00  0.00    -0.425 C  
HETATM   13  C   UNL     1      -9.334  16.602  66.659  1.00  0.00    -0.272 C  
HETATM   14  C   UNL     1     -10.398  15.721  65.966  1.00  0.00    -0.340 C  
HETATM   15  C   UNL     1     -12.178  11.030  68.676  1.00  0.00     0.041 A  
HETATM   16  C   UNL     1     -11.780  12.184  67.982  1.00  0.00    -0.409 A  
BRANCH   4  17
HETATM   17  O   UNL     1     -12.552  12.288  72.100  1.00  0.00     0.014 OA 
HETATM   18  C   UNL     1     -13.747  12.985  72.438  1.00  0.00    -0.494 C  
ENDBRANCH   4  17
BRANCH  11  19
HETATM   19  O   UNL     1      -8.348  17.146  68.819  1.00  0.00    -0.262 OA 
BRANCH  19  20
HETATM   20  C   UNL     1      -7.155  16.772  68.273  1.00  0.00    -0.167 C  
HETATM   21  O   UNL     1      -6.942  16.700  67.066  1.00  0.00    -0.166 OA 
BRANCH  20  22
HETATM   22  C   UNL     1      -6.082  16.449  69.349  1.00  0.00    -0.177 C  
HETATM   23  C   UNL     1      -6.495  13.927  69.213  1.00  0.00    -0.115 C  
HETATM   24  C   UNL     1      -5.343  14.843  71.213  1.00  0.00    -0.108 C  
HETATM   25  H2  UNL     1      -6.802  17.876  70.696  1.00  0.00     0.000 HD 
HETATM   26  H1  UNL     1      -5.212  17.383  70.983  1.00  0.00     0.000 HD 
HETATM   27  C   UNL     1      -6.396  15.149  70.135  1.00  0.00    -0.130 C  
HETATM   28  N   UNL     1      -5.916  17.596  70.276  1.00  0.00    -0.133 NA 
ENDBRANCH  20  22
ENDBRANCH  19  20
ENDBRANCH  11  19
BRANCH  13  29
HETATM   29  C   UNL     1      -9.346  18.000  65.987  1.00  0.00    -0.033 C  
HETATM   30  C   UNL     1     -10.495  20.160  65.390  1.00  0.00    -0.110 C  
HETATM   31  C   UNL     1     -10.899  19.154  67.645  1.00  0.00    -0.467 C  
HETATM   32  C   UNL     1     -10.614  18.850  66.174  1.00  0.00    -0.476 C  
ENDBRANCH  13  29
ENDBRANCH   2   3
TORSDOF 6
ENDMDL
MODEL      104
REMARK 921   NORMALIZED FREE ENERGY PREDICTED BY IDOCK:   -3.89 KCAL/MOL
REMARK 922        TOTAL FREE ENERGY PREDICTED BY IDOCK:   -6.07 KCAL/MOL
REMARK 923 INTER-LIGAND FREE ENERGY PREDICTED BY IDOCK:   -5.92 KCAL/MOL
REMARK 924 INTRA-LIGAND FREE ENERGY PREDICTED BY IDOCK:   -0.16 KCAL/MOL
REMARK 927      BINDING AFFINITY PREDICTED BY RF-SCORE:    0.00 PKD
ROOT
HETATM    1  C   UNL     1      -8.541   6.915  67.704  1.00  0.00    -0.121 C  
HETATM    2  O   UNL     1      -8.897   7.834  68.732  1.00  0.00    -0.134 OA 
ENDROOT
BRANCH   2   3
HETATM    3  C   UNL     1      -8.533   9.142  68.545  1.00  0.00    -0.128 A  
HETATM    4  C   UNL     1      -9.117  10.069  67.670  1.00  0.00    -0.134 A  
HETATM    5  C   UNL     1      -8.619  11.373  67.648  1.00  0.00    -0.130 A  
HETATM    6  N   UNL     1      -6.185  13.617  69.531  1.00  0.00    -0.113 NA 
HETATM    7  C   UNL     1      -7.575  11.796  68.488  1.00  0.00    -0.131 A  
HETATM    8  C   UNL     1      -5.145  12.596  69.726  1.00  0.00    -0.076 C  
HETATM    9  C   UNL     1      -7.110  13.247  68.439  1.00  0.00    -0.107 C  
HETATM   10  C   UNL     1      -8.289  14.233  68.527  1.00  0.00    -0.156 C  
HETATM   11  C   UNL     1      -7.840  15.675  68.288  1.00  0.00    -0.128 C  
HETATM   12  C   UNL     1      -5.723  11.220  70.096  1.00  0.00    -0.120 C  
HETATM   13  C   UNL     1      -6.642  16.054  69.184  1.00  0.00    -0.164 C  
HETATM   14  C   UNL     1      -5.586  14.926  69.230  1.00  0.00    -0.093 C  
HETATM   15  C   UNL     1      -7.426   9.529  69.316  1.00  0.00    -0.078 A  
HETATM   16  C   UNL     1      -6.931  10.843  69.279  1.00  0.00    -0.112 A  
BRANCH   4  17
HETATM   17  O   UNL     1     -10.105   9.654  66.815  1.00  0.00    -0.208 OA 
HETATM   18  C   UNL     1     -10.136  10.274  65.534  1.00  0.00    -0.281 C  
ENDBRANCH   4  17
BRANCH  11  19
HETATM   19  O   UNL     1      -8.955  16.547  68.604  1.00  0.00    -0.218 OA 
BRANCH  19  20
HETATM   20  C   UNL     1      -9.472  17.317  67.604  1.00  0.00    -0.246 C  
HETATM   21  O   UNL     1      -9.193  18.501  67.432  1.00  0.00    -0.275 OA 
BRANCH  20  22
HETATM   22  C   UNL     1     -10.457  16.532  66.696  1.00  0.00    -0.266 C  
HETATM   23  C   UNL     1     -11.683  15.483  68.682  1.00  0.00    -0.363 C  
HETATM   24  C   UNL     1     -11.922  14.436  66.443  1.00  0.00    -0.402 C  
HETATM   25  H2  UNL     1      -8.942  15.771  65.474  1.00  0.00     0.000 HD 
HETATM   26  H1  UNL     1     -10.484  15.736  64.781  1.00  0.00     0.000 HD 
HETATM   27  C   UNL     1     -10.962  15.221  67.354  1.00  0.00    -0.321 C  
HETATM   28  N   UNL     1      -9.836  16.252  65.377  1.00  0.00    -0.483 NA 
ENDBRANCH  20  22
ENDBRANCH  19  20
ENDBRANCH  11  19
BRANCH  13  29
HETATM   29  C   UNL     1      -5.942  17.357  68.715  1.00  0.00    -0.170 C  
HETATM   30  C   UNL     1      -5.301  19.769  69.049  1.00  0.00    -0.221 C  
HETATM   31  C   UNL     1      -5.275  18.224  71.017  1.00  0.00    -0.271 C  
HETATM   32  C   UNL     1      -5.963  18.547  69.690  1.00  0.00    -0.270 C  
ENDBRANCH  13  29
ENDBRANCH   2   3
TORSDOF 6
ENDMDL
MODEL      105
REMARK 921   NORMALIZED FREE ENERGY PREDICTED BY IDOCK:   -3.89 KCAL/MOL
REMARK 922        TOTAL FREE ENERGY PREDICTED BY IDOCK:   -6.07 KCAL/MOL
REMARK 923 INTER-LIGAND FREE ENERGY PREDICTED BY IDOCK:   -5.26 KCAL/MOL
REMARK 924 INTRA-LIGAND FREE ENERGY PREDICTED BY IDOCK:   -0.81 KCAL/MOL
REMARK 927      BINDING AFFINITY PREDICTED BY RF-SCORE:    0.00 PKD
ROOT
HETATM    1  C   UNL     1      -9.097   5.470  65.551  1.00  0.00    -0.091 C  
HETATM    2  O   UNL     1      -7.888   6.092  65.972  1.00  0.00    -0.100 OA 
ENDROOT
BRANCH   2   3
HETATM    3  C   UNL     1      -7.981   7.385  66.420  1.00  0.00    -0.108 A  
HETATM    4  C   UNL     1      -7.124   8.036  67.318  1.00  0.00    -0.083 A  
HETATM    5  C   UNL     1      -7.370   9.375  67.627  1.00  0.00    -0.084 A  
HETATM    6  N   UNL     1      -9.599  12.271  66.554  1.00  0.00    -0.232 NA 
HETATM    7  C   UNL     1      -8.428  10.099  67.051  1.00  0.00    -0.129 A  
HETATM    8  C   UNL     1     -10.822  11.475  66.380  1.00  0.00    -0.285 C  
HETATM    9  C   UNL     1      -8.613  11.570  67.404  1.00  0.00    -0.145 C  
HETATM   10  C   UNL     1      -7.300  12.363  67.273  1.00  0.00    -0.127 C  
HETATM   11  C   UNL     1      -7.444  13.790  67.807  1.00  0.00    -0.163 C  
HETATM   12  C   UNL     1     -10.559  10.117  65.708  1.00  0.00    -0.017 C  
HETATM   13  C   UNL     1      -8.667  14.505  67.195  1.00  0.00    -0.237 C  
HETATM   14  C   UNL     1      -9.905  13.579  67.152  1.00  0.00    -0.245 C  
HETATM   15  C   UNL     1      -9.096   8.071  65.917  1.00  0.00    -0.159 A  
HETATM   16  C   UNL     1      -9.337   9.417  66.241  1.00  0.00    -0.253 A  
BRANCH   4  17
HETATM   17  O   UNL     1      -6.117   7.326  67.919  1.00  0.00    -0.032 OA 
HETATM   18  C   UNL     1      -5.177   8.078  68.679  1.00  0.00    -0.027 C  
ENDBRANCH   4  17
BRANCH  11  19
HETATM   19  O   UNL     1      -6.245  14.523  67.448  1.00  0.00    -0.333 OA 
BRANCH  19  20
HETATM   20  C   UNL     1      -5.620  15.248  68.419  1.00  0.00    -0.108 C  
HETATM   21  O   UNL     1      -5.321  14.805  69.525  1.00  0.00    -0.091 OA 
BRANCH  20  22
HETATM   22  C   UNL     1      -5.319  16.706  67.974  1.00  0.00    -0.118 C  
HETATM   23  C   UNL     1      -5.470  17.620  70.360  1.00  0.00    -0.260 C  
HETATM   24  C   UNL     1      -5.677  19.203  68.459  1.00  0.00    -0.220 C  
HETATM   25  H2  UNL     1      -6.733  16.676  66.436  1.00  0.00     0.000 HD 
HETATM   26  H1  UNL     1      -5.555  17.878  66.279  1.00  0.00     0.000 HD 
HETATM   27  C   UNL     1      -5.960  17.762  68.914  1.00  0.00    -0.197 C  
HETATM   28  N   UNL     1      -5.752  16.920  66.571  1.00  0.00    -0.339 NA 
ENDBRANCH  20  22
ENDBRANCH  19  20
ENDBRANCH  11  19
BRANCH  13  29
HETATM   29  C   UNL     1      -9.048  15.792  67.973  1.00  0.00    -0.187 C  
HETATM   30  C   UNL     1      -9.443  18.277  68.084  1.00  0.00    -0.313 C  
HETATM   31  C   UNL     1     -10.180  17.021  66.049  1.00  0.00    -0.337 C  
HETATM   32  C   UNL     1      -9.133  17.095  67.161  1.00  0.00    -0.237 C  
ENDBRANCH  13  29
ENDBRANCH   2   3
TORSDOF 6
ENDMDL
MODEL      106
REMARK 921   NORMALIZED FREE ENERGY PREDICTED BY IDOCK:   -3.86 KCAL/MOL
REMARK 922        TOTAL FREE ENERGY PREDICTED BY IDOCK:   -6.04 KCAL/MOL
REMARK 923 INTER-LIGAND FREE ENERGY PREDICTED BY IDOCK:   -6.03 KCAL/MOL
REMARK 924 INTRA-LIGAND FREE ENERGY PREDICTED BY IDOCK:   -0.01 KCAL/MOL
REMARK 927      BINDING AFFINITY PREDICTED BY RF-SCORE:    0.00 PKD
ROOT
HETATM    1  C   UNL     1     -11.317  16.668  68.257  1.00  0.00    -0.121 C  
HETATM    2  O   UNL     1     -11.892  15.485  67.715  1.00  0.00    -0.200 OA 
ENDROOT
BRANCH   2   3
HETATM    3  C   UNL     1     -11.396  14.291  68.172  1.00  0.00    -0.288 A  
HETATM    4  C   UNL     1     -11.839  13.558  69.282  1.00  0.00    -0.341 A  
HETATM    5  C   UNL     1     -11.221  12.339  69.568  1.00  0.00    -0.185 A  
HETATM    6  N   UNL     1      -8.699   9.907  68.076  1.00  0.00    -0.125 NA 
HETATM    7  C   UNL     1     -10.191  11.810  68.771  1.00  0.00    -0.175 A  
HETATM    8  C   UNL     1      -7.772  10.928  67.568  1.00  0.00    -0.109 C  
HETATM    9  C   UNL     1      -9.590  10.454  69.120  1.00  0.00    -0.213 C  
HETATM   10  C   UNL     1     -10.674   9.386  69.357  1.00  0.00    -0.234 C  
HETATM   11  C   UNL     1     -10.079   8.082  69.889  1.00  0.00    -0.198 C  
HETATM   12  C   UNL     1      -8.498  12.127  66.934  1.00  0.00    -0.173 C  
HETATM   13  C   UNL     1      -8.904   7.595  69.016  1.00  0.00    -0.135 C  
HETATM   14  C   UNL     1      -7.963   8.758  68.626  1.00  0.00    -0.107 C  
HETATM   15  C   UNL     1     -10.304  13.818  67.429  1.00  0.00    -0.252 A  
HETATM   16  C   UNL     1      -9.686  12.593  67.732  1.00  0.00    -0.206 A  
BRANCH   4  17
HETATM   17  O   UNL     1     -12.811  14.086  70.091  1.00  0.00    -0.242 OA 
HETATM   18  C   UNL     1     -12.908  13.544  71.404  1.00  0.00    -0.355 C  
ENDBRANCH   4  17
BRANCH  11  19
HETATM   19  O   UNL     1     -11.123   7.076  69.873  1.00  0.00    -0.265 OA 
BRANCH  19  20
HETATM   20  C   UNL     1     -11.366   6.383  71.023  1.00  0.00    -0.328 C  
HETATM   21  O   UNL     1     -11.216   5.170  71.140  1.00  0.00     0.106 OA 
BRANCH  20  22
HETATM   22  C   UNL     1     -11.853   7.299  72.179  1.00  0.00    -0.286 C  
HETATM   23  C   UNL     1     -14.281   7.273  71.373  1.00  0.00    -0.476 C  
HETATM   24  C   UNL     1     -13.558   9.067  72.931  1.00  0.00    -0.101 C  
HETATM   25  H2  UNL     1     -10.336   8.707  71.889  1.00  0.00     0.000 HD 
HETATM   26  H1  UNL     1     -11.068   8.771  73.412  1.00  0.00     0.000 HD 
HETATM   27  C   UNL     1     -13.092   8.147  71.790  1.00  0.00    -0.367 C  
HETATM   28  N   UNL     1     -10.748   8.169  72.652  1.00  0.00    -0.350 NA 
ENDBRANCH  20  22
ENDBRANCH  19  20
ENDBRANCH  11  19
BRANCH  13  29
HETATM   29  C   UNL     1      -8.059   6.500  69.719  1.00  0.00    -0.125 C  
HETATM   30  C   UNL     1      -6.174   5.788  71.230  1.00  0.00    -0.039 C  
HETATM   31  C   UNL     1      -7.520   7.806  71.840  1.00  0.00    -0.078 C  
HETATM   32  C   UNL     1      -6.960   6.982  70.680  1.00  0.00    -0.062 C  
ENDBRANCH  13  29
ENDBRANCH   2   3
TORSDOF 6
ENDMDL
MODEL      107
REMARK 921   NORMALIZED FREE ENERGY PREDICTED BY IDOCK:   -3.83 KCAL/MOL
REMARK 922        TOTAL FREE ENERGY PREDICTED BY IDOCK:   -5.99 KCAL/MOL
REMARK 923 INTER-LIGAND FREE ENERGY PREDICTED BY IDOCK:   -5.00 KCAL/MOL
REMARK 924 INTRA-LIGAND FREE ENERGY PREDICTED BY IDOCK:   -0.99 KCAL/MOL
REMARK 927      BINDING AFFINITY PREDICTED BY RF-SCORE:    0.00 PKD
ROOT
HETATM    1  C   UNL     1     -10.697  18.498  67.486  1.00  0.00    -0.377 C  
HETATM    2  O   UNL     1     -11.590  17.433  67.796  1.00  0.00     0.377 OA 
ENDROOT
BRANCH   2   3
HETATM    3  C   UNL     1     -11.025  16.217  68.082  1.00  0.00    -0.343 A  
HETATM    4  C   UNL     1     -10.920  15.606  69.340  1.00  0.00    -0.283 A  
HETATM    5  C   UNL     1     -10.335  14.341  69.421  1.00  0.00     0.007 A  
HETATM    6  N   UNL     1      -9.067  11.544  67.168  1.00  0.00    -0.164 NA 
HETATM    7  C   UNL     1      -9.875  13.649  68.288  1.00  0.00    -0.232 A  
HETATM    8  C   UNL     1      -8.436  12.418  66.169  1.00  0.00     0.389 C  
HETATM    9  C   UNL     1      -9.284  12.253  68.448  1.00  0.00    -0.145 C  
HETATM   10  C   UNL     1     -10.190  11.337  69.292  1.00  0.00    -0.058 C  
HETATM   11  C   UNL     1      -9.510  10.004  69.608  1.00  0.00    -0.223 C  
HETATM   12  C   UNL     1      -9.285  13.656  65.840  1.00  0.00     0.170 C  
HETATM   13  C   UNL     1      -8.958   9.331  68.334  1.00  0.00    -0.129 C  
HETATM   14  C   UNL     1      -8.245  10.349  67.415  1.00  0.00    -0.117 C  
HETATM   15  C   UNL     1     -10.480  15.576  66.960  1.00  0.00    -0.304 A  
HETATM   16  C   UNL     1      -9.888  14.306  67.057  1.00  0.00    -0.254 A  
BRANCH   4  17
HETATM   17  O   UNL     1     -11.325  16.292  70.456  1.00  0.00    -0.378 OA 
HETATM   18  C   UNL     1     -11.323  15.567  71.681  1.00  0.00    -0.388 C  
ENDBRANCH   4  17
BRANCH  11  19
HETATM   19  O   UNL     1     -10.501   9.130  70.207  1.00  0.00    -0.194 OA 
BRANCH  19  20
HETATM   20  C   UNL     1     -10.619   9.129  71.566  1.00  0.00    -0.358 C  
HETATM   21  O   UNL     1      -9.693   9.363  72.338  1.00  0.00     0.326 OA 
BRANCH  20  22
HETATM   22  C   UNL     1     -12.063   8.802  72.039  1.00  0.00    -0.377 C  
HETATM   23  C   UNL     1     -11.861   6.327  71.422  1.00  0.00    -0.268 C  
HETATM   24  C   UNL     1     -14.125   7.302  71.726  1.00  0.00    -0.485 C  
HETATM   25  H2  UNL     1     -12.915  10.401  70.997  1.00  0.00     0.000 HD 
HETATM   26  H1  UNL     1     -13.875   9.790  72.247  1.00  0.00     0.000 HD 
HETATM   27  C   UNL     1     -12.689   7.610  71.269  1.00  0.00    -0.306 C  
HETATM   28  N   UNL     1     -12.927  10.005  71.936  1.00  0.00    -0.436 NA 
ENDBRANCH  20  22
ENDBRANCH  19  20
ENDBRANCH  11  19
BRANCH  13  29
HETATM   29  C   UNL     1      -7.963   8.185  68.655  1.00  0.00    -0.115 C  
HETATM   30  C   UNL     1      -7.461   5.790  69.251  1.00  0.00    -0.083 C  
HETATM   31  C   UNL     1      -9.313   6.276  67.641  1.00  0.00    -0.116 C  
HETATM   32  C   UNL     1      -8.561   6.785  68.872  1.00  0.00    -0.130 C  
ENDBRANCH  13  29
ENDBRANCH   2   3
TORSDOF 6
ENDMDL
MODEL      108
REMARK 921   NORMALIZED FREE ENERGY PREDICTED BY IDOCK:   -3.81 KCAL/MOL
REMARK 922        TOTAL FREE ENERGY PREDICTED BY IDOCK:   -5.96 KCAL/MOL
REMARK 923 INTER-LIGAND FREE ENERGY PREDICTED BY IDOCK:   -5.27 KCAL/MOL
REMARK 924 INTRA-LIGAND FREE ENERGY PREDICTED BY IDOCK:   -0.69 KCAL/MOL
REMARK 927      BINDING AFFINITY PREDICTED BY RF-SCORE:    0.00 PKD
ROOT
HETATM    1  C   UNL     1      -8.162  19.548  67.957  1.00  0.00    -0.316 C  
HETATM    2  O   UNL     1      -7.388  18.688  67.128  1.00  0.00    -0.208 OA 
ENDROOT
BRANCH   2   3
HETATM    3  C   UNL     1      -7.433  17.348  67.415  1.00  0.00    -0.182 A  
HETATM    4  C   UNL     1      -8.162  16.359  66.739  1.00  0.00    -0.251 A  
HETATM    5  C   UNL     1      -8.050  15.035  67.167  1.00  0.00    -0.245 A  
HETATM    6  N   UNL     1      -6.026  12.893  69.580  1.00  0.00    -0.111 NA 
HETATM    7  C   UNL     1      -7.215  14.655  68.232  1.00  0.00    -0.117 A  
HETATM    8  C   UNL     1      -6.004  13.869  70.679  1.00  0.00    -0.174 C  
HETATM    9  C   UNL     1      -7.110  13.185  68.619  1.00  0.00    -0.103 C  
HETATM   10  C   UNL     1      -6.850  12.284  67.397  1.00  0.00    -0.145 C  
HETATM   11  C   UNL     1      -6.934  10.801  67.759  1.00  0.00    -0.077 C  
HETATM   12  C   UNL     1      -5.776  15.309  70.193  1.00  0.00    -0.135 C  
HETATM   13  C   UNL     1      -6.055  10.462  68.981  1.00  0.00    -0.040 C  
HETATM   14  C   UNL     1      -6.195  11.526  70.095  1.00  0.00    -0.132 C  
HETATM   15  C   UNL     1      -6.674  16.991  68.539  1.00  0.00    -0.172 A  
HETATM   16  C   UNL     1      -6.575  15.656  68.965  1.00  0.00    -0.130 A  
BRANCH   4  17
HETATM   17  O   UNL     1      -9.014  16.726  65.729  1.00  0.00    -0.508 OA 
HETATM   18  C   UNL     1     -10.400  16.764  66.051  1.00  0.00    -0.335 C  
ENDBRANCH   4  17
BRANCH  11  19
HETATM   19  O   UNL     1      -6.463  10.037  66.619  1.00  0.00    -0.068 OA 
BRANCH  19  20
HETATM   20  C   UNL     1      -7.325   9.834  65.581  1.00  0.00    -0.106 C  
HETATM   21  O   UNL     1      -7.243  10.404  64.496  1.00  0.00    -0.110 OA 
BRANCH  20  22
HETATM   22  C   UNL     1      -8.430   8.795  65.918  1.00  0.00    -0.143 C  
HETATM   23  C   UNL     1     -10.229  10.589  66.223  1.00  0.00    -0.296 C  
HETATM   24  C   UNL     1     -10.613   8.335  67.192  1.00  0.00    -0.340 C  
HETATM   25  H2  UNL     1      -7.253   7.793  67.324  1.00  0.00     0.000 HD 
HETATM   26  H1  UNL     1      -8.556   6.892  66.733  1.00  0.00     0.000 HD 
HETATM   27  C   UNL     1      -9.532   9.373  66.845  1.00  0.00    -0.204 C  
HETATM   28  N   UNL     1      -7.830   7.575  66.512  1.00  0.00    -0.100 NA 
ENDBRANCH  20  22
ENDBRANCH  19  20
ENDBRANCH  11  19
BRANCH  13  29
HETATM   29  C   UNL     1      -6.396   9.076  69.588  1.00  0.00    -0.039 C  
HETATM   30  C   UNL     1      -7.610   7.623  71.249  1.00  0.00    -0.080 C  
HETATM   31  C   UNL     1      -8.802   9.585  70.255  1.00  0.00    -0.281 C  
HETATM   32  C   UNL     1      -7.446   9.047  70.712  1.00  0.00    -0.121 C  
ENDBRANCH  13  29
ENDBRANCH   2   3
TORSDOF 6
ENDMDL
MODEL      109
REMARK 921   NORMALIZED FREE ENERGY PREDICTED BY IDOCK:   -3.79 KCAL/MOL
REMARK 922        TOTAL FREE ENERGY PREDICTED BY IDOCK:   -5.94 KCAL/MOL
REMARK 923 INTER-LIGAND FREE ENERGY PREDICTED BY IDOCK:   -5.48 KCAL/MOL
REMARK 924 INTRA-LIGAND FREE ENERGY PREDICTED BY IDOCK:   -0.46 KCAL/MOL
REMARK 927      BINDING AFFINITY PREDICTED BY RF-SCORE:    0.00 PKD
ROOT
HETATM    1  C   UNL     1     -11.634  15.039  66.648  1.00  0.00    -0.198 C  
HETATM    2  O   UNL     1     -12.361  14.250  67.584  1.00  0.00    -0.265 OA 
ENDROOT
BRANCH   2   3
HETATM    3  C   UNL     1     -11.832  13.026  67.904  1.00  0.00    -0.343 A  
HETATM    4  C   UNL     1     -11.584  12.518  69.187  1.00  0.00    -0.320 A  
HETATM    5  C   UNL     1     -11.067  11.227  69.306  1.00  0.00    -0.314 A  
HETATM    6  N   UNL     1     -10.292   8.168  67.174  1.00  0.00    -0.294 NA 
HETATM    7  C   UNL     1     -10.812  10.411  68.191  1.00  0.00    -0.311 A  
HETATM    8  C   UNL     1      -9.761   8.907  66.021  1.00  0.00    -0.238 C  
HETATM    9  C   UNL     1     -10.286   8.995  68.399  1.00  0.00    -0.201 C  
HETATM   10  C   UNL     1     -11.113   8.220  69.441  1.00  0.00     0.088 C  
HETATM   11  C   UNL     1     -10.473   6.874  69.785  1.00  0.00    -0.217 C  
HETATM   12  C   UNL     1     -10.576  10.169  65.695  1.00  0.00     0.019 C  
HETATM   13  C   UNL     1     -10.147   6.059  68.516  1.00  0.00    -0.197 C  
HETATM   14  C   UNL     1      -9.514   6.944  67.417  1.00  0.00    -0.132 C  
HETATM   15  C   UNL     1     -11.489  12.256  66.783  1.00  0.00    -0.421 A  
HETATM   16  C   UNL     1     -10.962  10.960  66.916  1.00  0.00    -0.286 A  
BRANCH   4  17
HETATM   17  O   UNL     1     -11.787  13.323  70.278  1.00  0.00    -0.307 OA 
HETATM   18  C   UNL     1     -13.053  13.214  70.919  1.00  0.00     0.031 C  
ENDBRANCH   4  17
BRANCH  11  19
HETATM   19  O   UNL     1     -11.417   6.126  70.593  1.00  0.00    -0.338 OA 
BRANCH  19  20
HETATM   20  C   UNL     1     -11.573   6.487  71.899  1.00  0.00    -0.312 C  
HETATM   21  O   UNL     1     -11.799   7.635  72.274  1.00  0.00    -0.303 OA 
BRANCH  20  22
HETATM   22  C   UNL     1     -11.438   5.283  72.871  1.00  0.00    -0.270 C  
HETATM   23  C   UNL     1      -8.930   5.023  72.432  1.00  0.00    -0.139 C  
HETATM   24  C   UNL     1     -10.173   3.116  73.424  1.00  0.00    -0.208 C  
HETATM   25  H2  UNL     1     -13.074   4.266  72.061  1.00  0.00     0.000 HD 
HETATM   26  H1  UNL     1     -12.637   3.762  73.613  1.00  0.00     0.000 HD 
HETATM   27  C   UNL     1     -10.291   4.317  72.471  1.00  0.00    -0.239 C  
HETATM   28  N   UNL     1     -12.726   4.553  72.975  1.00  0.00     0.596 NA 
ENDBRANCH  20  22
ENDBRANCH  19  20
ENDBRANCH  11  19
BRANCH  13  29
HETATM   29  C   UNL     1      -9.183   4.878  68.805  1.00  0.00    -0.162 C  
HETATM   30  C   UNL     1      -6.882   3.853  68.830  1.00  0.00    -0.046 C  
HETATM   31  C   UNL     1      -7.143   6.263  69.451  1.00  0.00    -0.073 C  
HETATM   32  C   UNL     1      -7.683   5.133  68.574  1.00  0.00    -0.079 C  
ENDBRANCH  13  29
ENDBRANCH   2   3
TORSDOF 6
ENDMDL
MODEL      110
REMARK 921   NORMALIZED FREE ENERGY PREDICTED BY IDOCK:   -3.77 KCAL/MOL
REMARK 922        TOTAL FREE ENERGY PREDICTED BY IDOCK:   -5.91 KCAL/MOL
REMARK 923 INTER-LIGAND FREE ENERGY PREDICTED BY IDOCK:   -6.58 KCAL/MOL
REMARK 924 INTRA-LIGAND FREE ENERGY PREDICTED BY IDOCK:    0.67 KCAL/MOL
REMARK 927      BINDING AFFINITY PREDICTED BY RF-SCORE:    0.00 PKD
ROOT
HETATM    1  C   UNL     1      -6.369  18.689  65.933  1.00  0.00    -0.233 C  
HETATM    2  O   UNL     1      -7.780  18.505  65.875  1.00  0.00    -0.459 OA 
ENDROOT
BRANCH   2   3
HETATM    3  C   UNL     1      -8.302  17.488  66.633  1.00  0.00    -0.261 A  
HETATM    4  C   UNL     1      -8.729  17.556  67.966  1.00  0.00    -0.254 A  
HETATM    5  C   UNL     1      -9.266  16.410  68.556  1.00  0.00    -0.226 A  
HETATM    6  N   UNL     1     -10.370  12.882  67.642  1.00  0.00    -0.216 NA 
HETATM    7  C   UNL     1      -9.417  15.202  67.855  1.00  0.00    -0.194 A  
HETATM    8  C   UNL     1      -9.260  12.601  66.719  1.00  0.00    -0.225 C  
HETATM    9  C   UNL     1     -10.048  14.002  68.551  1.00  0.00    -0.236 C  
HETATM   10  C   UNL     1     -11.368  14.372  69.253  1.00  0.00    -0.319 C  
HETATM   11  C   UNL     1     -11.900  13.218  70.105  1.00  0.00    -0.263 C  
HETATM   12  C   UNL     1      -8.913  13.802  65.823  1.00  0.00     0.688 C  
HETATM   13  C   UNL     1     -11.969  11.902  69.301  1.00  0.00    -0.342 C  
HETATM   14  C   UNL     1     -10.701  11.693  68.442  1.00  0.00    -0.217 C  
HETATM   15  C   UNL     1      -8.358  16.260  65.957  1.00  0.00    -0.099 A  
HETATM   16  C   UNL     1      -8.894  15.112  66.564  1.00  0.00    -0.312 A  
BRANCH   4  17
HETATM   17  O   UNL     1      -8.545  18.718  68.671  1.00  0.00    -0.335 OA 
HETATM   18  C   UNL     1      -9.651  19.612  68.720  1.00  0.00    -0.368 C  
ENDBRANCH   4  17
BRANCH  11  19
HETATM   19  O   UNL     1     -13.236  13.568  70.545  1.00  0.00     0.046 OA 
BRANCH  19  20
HETATM   20  C   UNL     1     -13.496  14.876  70.833  1.00  0.00    -0.306 C  
HETATM   21  O   UNL     1     -13.623  15.756  69.986  1.00  0.00     0.247 OA 
BRANCH  20  22
HETATM   22  C   UNL     1     -13.619  15.137  72.360  1.00  0.00    -0.470 C  
HETATM   23  C   UNL     1     -11.659  16.782  72.384  1.00  0.00     0.095 C  
HETATM   24  C   UNL     1     -12.387  15.758  74.527  1.00  0.00    -0.776 C  
HETATM   25  H2  UNL     1     -13.698  13.105  72.842  1.00  0.00     0.000 HD 
HETATM   26  H1  UNL     1     -14.296  14.133  74.043  1.00  0.00     0.000 HD 
HETATM   27  C   UNL     1     -12.265  15.520  73.012  1.00  0.00    -0.564 C  
HETATM   28  N   UNL     1     -14.216  13.961  73.041  1.00  0.00     0.049 NA 
ENDBRANCH  20  22
ENDBRANCH  19  20
ENDBRANCH  11  19
BRANCH  13  29
HETATM   29  C   UNL     1     -12.148  10.661  70.214  1.00  0.00    -0.423 C  
HETATM   30  C   UNL     1     -11.697   8.251  70.789  1.00  0.00    -0.213 C  
HETATM   31  C   UNL     1      -9.841   9.642  69.850  1.00  0.00    -0.271 C  
HETATM   32  C   UNL     1     -11.351   9.401  69.838  1.00  0.00    -0.121 C  
ENDBRANCH  13  29
ENDBRANCH   2   3
TORSDOF 6
ENDMDL
MODEL      111
REMARK 921   NORMALIZED FREE ENERGY PREDICTED BY IDOCK:   -3.76 KCAL/MOL
REMARK 922        TOTAL FREE ENERGY PREDICTED BY IDOCK:   -5.90 KCAL/MOL
REMARK 923 INTER-LIGAND FREE ENERGY PREDICTED BY IDOCK:   -5.32 KCAL/MOL
REMARK 924 INTRA-LIGAND FREE ENERGY PREDICTED BY IDOCK:   -0.58 KCAL/MOL
REMARK 927      BINDING AFFINITY PREDICTED BY RF-SCORE:    0.00 PKD
ROOT
HETATM    1  C   UNL     1      -8.831   6.448  65.808  1.00  0.00    -0.099 C  
HETATM    2  O   UNL     1      -8.935   7.159  67.038  1.00  0.00    -0.123 OA 
ENDROOT
BRANCH   2   3
HETATM    3  C   UNL     1      -9.296   8.479  66.960  1.00  0.00    -0.161 A  
HETATM    4  C   UNL     1      -9.760   9.294  68.003  1.00  0.00    -0.150 A  
HETATM    5  C   UNL     1     -10.047  10.633  67.727  1.00  0.00    -0.203 A  
HETATM    6  N   UNL     1      -9.699  13.193  64.929  1.00  0.00     0.021 NA 
HETATM    7  C   UNL     1      -9.864  11.196  66.453  1.00  0.00    -0.248 A  
HETATM    8  C   UNL     1     -10.052  12.280  63.833  1.00  0.00    -0.347 C  
HETATM    9  C   UNL     1     -10.160  12.676  66.235  1.00  0.00    -0.253 C  
HETATM   10  C   UNL     1      -9.492  13.561  67.303  1.00  0.00    -0.230 C  
HETATM   11  C   UNL     1      -9.943  15.018  67.194  1.00  0.00    -0.237 C  
HETATM   12  C   UNL     1      -9.424  10.886  63.993  1.00  0.00    -0.298 C  
HETATM   13  C   UNL     1      -9.790  15.555  65.756  1.00  0.00    -0.392 C  
HETATM   14  C   UNL     1     -10.279  14.527  64.709  1.00  0.00    -0.199 C  
HETATM   15  C   UNL     1      -9.205   9.008  65.664  1.00  0.00    -0.288 A  
HETATM   16  C   UNL     1      -9.504  10.355  65.399  1.00  0.00    -0.285 A  
BRANCH   4  17
HETATM   17  O   UNL     1      -9.984   8.743  69.237  1.00  0.00    -0.183 OA 
HETATM   18  C   UNL     1      -9.610   9.532  70.362  1.00  0.00    -0.269 C  
ENDBRANCH   4  17
BRANCH  11  19
HETATM   19  O   UNL     1      -9.110  15.809  68.080  1.00  0.00    -0.182 OA 
BRANCH  19  20
HETATM   20  C   UNL     1      -9.190  15.570  69.421  1.00  0.00    -0.280 C  
HETATM   21  O   UNL     1      -8.303  15.034  70.079  1.00  0.00     0.072 OA 
BRANCH  20  22
HETATM   22  C   UNL     1     -10.532  16.057  70.034  1.00  0.00    -0.258 C  
HETATM   23  C   UNL     1     -11.361  13.676  70.475  1.00  0.00     0.310 C  
HETATM   24  C   UNL     1     -13.015  15.529  70.430  1.00  0.00    -0.252 C  
HETATM   25  H2  UNL     1     -10.936  17.370  68.459  1.00  0.00     0.000 HD 
HETATM   26  H1  UNL     1     -11.788  17.700  69.881  1.00  0.00     0.000 HD 
HETATM   27  C   UNL     1     -11.683  15.035  69.840  1.00  0.00    -0.343 C  
HETATM   28  N   UNL     1     -10.906  17.381  69.478  1.00  0.00     0.150 NA 
ENDBRANCH  20  22
ENDBRANCH  19  20
ENDBRANCH  11  19
BRANCH  13  29
HETATM   29  C   UNL     1     -10.565  16.880  65.534  1.00  0.00    -0.215 C  
HETATM   30  C   UNL     1     -10.950  19.325  66.003  1.00  0.00    -0.193 C  
HETATM   31  C   UNL     1      -8.602  18.473  65.859  1.00  0.00     0.159 C  
HETATM   32  C   UNL     1     -10.035  18.126  66.265  1.00  0.00    -0.342 C  
ENDBRANCH  13  29
ENDBRANCH   2   3
TORSDOF 6
ENDMDL
MODEL      112
REMARK 921   NORMALIZED FREE ENERGY PREDICTED BY IDOCK:   -3.71 KCAL/MOL
REMARK 922        TOTAL FREE ENERGY PREDICTED BY IDOCK:   -5.82 KCAL/MOL
REMARK 923 INTER-LIGAND FREE ENERGY PREDICTED BY IDOCK:   -6.50 KCAL/MOL
REMARK 924 INTRA-LIGAND FREE ENERGY PREDICTED BY IDOCK:    0.68 KCAL/MOL
REMARK 927      BINDING AFFINITY PREDICTED BY RF-SCORE:    0.00 PKD
ROOT
HETATM    1  C   UNL     1     -11.713  15.619  64.211  1.00  0.00    -0.169 C  
HETATM    2  O   UNL     1     -12.159  15.355  65.537  1.00  0.00     0.193 OA 
ENDROOT
BRANCH   2   3
HETATM    3  C   UNL     1     -11.864  14.119  66.053  1.00  0.00    -0.398 A  
HETATM    4  C   UNL     1     -11.579  12.947  65.338  1.00  0.00    -0.350 A  
HETATM    5  C   UNL     1     -11.270  11.787  66.051  1.00  0.00    -0.352 A  
HETATM    6  N   UNL     1     -10.562  10.633  69.611  1.00  0.00    -0.238 NA 
HETATM    7  C   UNL     1     -11.209  11.759  67.455  1.00  0.00    -0.357 A  
HETATM    8  C   UNL     1     -11.592  11.460  70.255  1.00  0.00    -0.243 C  
HETATM    9  C   UNL     1     -10.825  10.467  68.166  1.00  0.00    -0.264 C  
HETATM   10  C   UNL     1      -9.551   9.838  67.571  1.00  0.00    -0.178 C  
HETATM   11  C   UNL     1      -9.276   8.453  68.157  1.00  0.00    -0.137 C  
HETATM   12  C   UNL     1     -11.674  12.877  69.664  1.00  0.00    -0.367 C  
HETATM   13  C   UNL     1      -9.300   8.472  69.700  1.00  0.00    -0.157 C  
HETATM   14  C   UNL     1     -10.484   9.306  70.241  1.00  0.00    -0.228 C  
HETATM   15  C   UNL     1     -11.902  14.075  67.455  1.00  0.00    -0.445 A  
HETATM   16  C   UNL     1     -11.596  12.900  68.161  1.00  0.00    -0.378 A  
BRANCH   4  17
HETATM   17  O   UNL     1     -11.679  12.954  63.971  1.00  0.00    -0.373 OA 
HETATM   18  C   UNL     1     -12.344  11.843  63.379  1.00  0.00    -0.462 C  
ENDBRANCH   4  17
BRANCH  11  19
HETATM   19  O   UNL     1      -7.960   8.035  67.714  1.00  0.00    -0.122 OA 
BRANCH  19  20
HETATM   20  C   UNL     1      -7.436   8.630  66.604  1.00  0.00    -0.089 C  
HETATM   21  O   UNL     1      -6.619   9.547  66.635  1.00  0.00    -0.066 OA 
BRANCH  20  22
HETATM   22  C   UNL     1      -7.984   8.020  65.285  1.00  0.00    -0.124 C  
HETATM   23  C   UNL     1      -7.196   5.659  65.878  1.00  0.00    -0.072 C  
HETATM   24  C   UNL     1      -7.716   6.185  63.508  1.00  0.00    -0.105 C  
HETATM   25  H2  UNL     1      -7.108   9.486  64.080  1.00  0.00     0.000 HD 
HETATM   26  H1  UNL     1      -8.379   8.646  63.347  1.00  0.00     0.000 HD 
HETATM   27  C   UNL     1      -7.183   6.773  64.825  1.00  0.00    -0.082 C  
HETATM   28  N   UNL     1      -8.019   9.047  64.214  1.00  0.00    -0.134 NA 
ENDBRANCH  20  22
ENDBRANCH  19  20
ENDBRANCH  11  19
BRANCH  13  29
HETATM   29  C   UNL     1      -9.390   7.048  70.307  1.00  0.00    -0.159 C  
HETATM   30  C   UNL     1     -10.717   5.074  71.135  1.00  0.00    -0.072 C  
HETATM   31  C   UNL     1     -11.517   6.309  69.112  1.00  0.00    -0.229 C  
HETATM   32  C   UNL     1     -10.797   6.443  70.455  1.00  0.00    -0.343 C  
ENDBRANCH  13  29
ENDBRANCH   2   3
TORSDOF 6
ENDMDL
MODEL      113
REMARK 921   NORMALIZED FREE ENERGY PREDICTED BY IDOCK:   -3.70 KCAL/MOL
REMARK 922        TOTAL FREE ENERGY PREDICTED BY IDOCK:   -5.82 KCAL/MOL
REMARK 923 INTER-LIGAND FREE ENERGY PREDICTED BY IDOCK:   -5.53 KCAL/MOL
REMARK 924 INTRA-LIGAND FREE ENERGY PREDICTED BY IDOCK:   -0.29 KCAL/MOL
REMARK 927      BINDING AFFINITY PREDICTED BY RF-SCORE:    0.00 PKD
ROOT
HETATM    1  C   UNL     1      -6.072   3.430  65.470  1.00  0.00    -0.027 C  
HETATM    2  O   UNL     1      -6.136   4.392  66.518  1.00  0.00    -0.029 OA 
ENDROOT
BRANCH   2   3
HETATM    3  C   UNL     1      -6.967   5.464  66.322  1.00  0.00    -0.063 A  
HETATM    4  C   UNL     1      -7.887   6.002  67.234  1.00  0.00    -0.102 A  
HETATM    5  C   UNL     1      -8.625   7.125  66.856  1.00  0.00    -0.124 A  
HETATM    6  N   UNL     1      -8.829   9.692  64.049  1.00  0.00    -0.221 NA 
HETATM    7  C   UNL     1      -8.459   7.751  65.608  1.00  0.00    -0.153 A  
HETATM    8  C   UNL     1      -8.599   8.745  62.949  1.00  0.00    -0.106 C  
HETATM    9  C   UNL     1      -9.269   8.999  65.278  1.00  0.00    -0.140 C  
HETATM   10  C   UNL     1      -9.199  10.046  66.405  1.00  0.00    -0.191 C  
HETATM   11  C   UNL     1     -10.160  11.210  66.158  1.00  0.00    -0.238 C  
HETATM   12  C   UNL     1      -7.512   7.707  63.275  1.00  0.00    -0.108 C  
HETATM   13  C   UNL     1      -9.983  11.803  64.744  1.00  0.00    -0.275 C  
HETATM   14  C   UNL     1      -9.838  10.695  63.676  1.00  0.00    -0.333 C  
HETATM   15  C   UNL     1      -6.867   6.023  65.039  1.00  0.00    -0.051 A  
HETATM   16  C   UNL     1      -7.620   7.149  64.669  1.00  0.00    -0.106 A  
BRANCH   4  17
HETATM   17  O   UNL     1      -8.087   5.372  68.435  1.00  0.00    -0.091 OA 
HETATM   18  C   UNL     1      -9.071   5.941  69.292  1.00  0.00    -0.123 C  
ENDBRANCH   4  17
BRANCH  11  19
HETATM   19  O   UNL     1      -9.873  12.240  67.138  1.00  0.00    -0.200 OA 
BRANCH  19  20
HETATM   20  C   UNL     1      -9.849  11.886  68.455  1.00  0.00    -0.201 C  
HETATM   21  O   UNL     1      -8.867  11.419  69.025  1.00  0.00    -0.059 OA 
BRANCH  20  22
HETATM   22  C   UNL     1     -11.207  12.142  69.165  1.00  0.00    -0.244 C  
HETATM   23  C   UNL     1     -11.093  14.671  68.790  1.00  0.00    -0.274 C  
HETATM   24  C   UNL     1     -12.624  13.789  70.536  1.00  0.00    -0.361 C  
HETATM   25  H2  UNL     1     -10.710  10.989  70.835  1.00  0.00     0.000 HD 
HETATM   26  H1  UNL     1     -12.368  11.250  70.634  1.00  0.00     0.000 HD 
HETATM   27  C   UNL     1     -11.286  13.548  69.817  1.00  0.00    -0.161 C  
HETATM   28  N   UNL     1     -11.476  11.082  70.168  1.00  0.00    -0.304 NA 
ENDBRANCH  20  22
ENDBRANCH  19  20
ENDBRANCH  11  19
BRANCH  13  29
HETATM   29  C   UNL     1     -11.165  12.721  64.337  1.00  0.00    -0.390 C  
HETATM   30  C   UNL     1     -12.631  14.736  64.701  1.00  0.00    -0.116 C  
HETATM   31  C   UNL     1     -10.179  14.921  65.165  1.00  0.00    -0.409 C  
HETATM   32  C   UNL     1     -11.388  13.984  65.185  1.00  0.00    -0.328 C  
ENDBRANCH  13  29
ENDBRANCH   2   3
TORSDOF 6
ENDMDL
MODEL      114
REMARK 921   NORMALIZED FREE ENERGY PREDICTED BY IDOCK:   -3.66 KCAL/MOL
REMARK 922        TOTAL FREE ENERGY PREDICTED BY IDOCK:   -5.77 KCAL/MOL
REMARK 923 INTER-LIGAND FREE ENERGY PREDICTED BY IDOCK:   -4.61 KCAL/MOL
REMARK 924 INTRA-LIGAND FREE ENERGY PREDICTED BY IDOCK:   -1.16 KCAL/MOL
REMARK 927      BINDING AFFINITY PREDICTED BY RF-SCORE:    0.00 PKD
ROOT
HETATM    1  C   UNL     1      -6.589  16.430  68.253  1.00  0.00    -0.132 C  
HETATM    2  O   UNL     1      -5.504  15.511  68.203  1.00  0.00    -0.103 OA 
ENDROOT
BRANCH   2   3
HETATM    3  C   UNL     1      -5.767  14.222  68.590  1.00  0.00    -0.088 A  
HETATM    4  C   UNL     1      -5.759  13.709  69.895  1.00  0.00    -0.117 A  
HETATM    5  C   UNL     1      -6.089  12.366  70.088  1.00  0.00    -0.102 A  
HETATM    6  N   UNL     1      -7.431   9.368  68.159  1.00  0.00    -0.079 NA 
HETATM    7  C   UNL     1      -6.453  11.520  69.027  1.00  0.00    -0.076 A  
HETATM    8  C   UNL     1      -6.663   9.613  66.930  1.00  0.00    -0.075 C  
HETATM    9  C   UNL     1      -6.840  10.074  69.316  1.00  0.00    -0.059 C  
HETATM   10  C   UNL     1      -7.875   9.971  70.451  1.00  0.00     0.050 C  
HETATM   11  C   UNL     1      -8.119   8.519  70.866  1.00  0.00    -0.127 C  
HETATM   12  C   UNL     1      -6.609  11.101  66.548  1.00  0.00    -0.124 C  
HETATM   13  C   UNL     1      -8.437   7.626  69.649  1.00  0.00    -0.135 C  
HETATM   14  C   UNL     1      -7.499   7.930  68.458  1.00  0.00    -0.096 C  
HETATM   15  C   UNL     1      -6.034  13.360  67.516  1.00  0.00    -0.050 A  
HETATM   16  C   UNL     1      -6.357  12.008  67.723  1.00  0.00    -0.081 A  
BRANCH   4  17
HETATM   17  O   UNL     1      -5.362  14.515  70.930  1.00  0.00    -0.125 OA 
HETATM   18  C   UNL     1      -5.383  13.935  72.230  1.00  0.00    -0.198 C  
ENDBRANCH   4  17
BRANCH  11  19
HETATM   19  O   UNL     1      -9.252   8.499  71.771  1.00  0.00    -0.198 OA 
BRANCH  19  20
HETATM   20  C   UNL     1      -9.028   8.160  73.074  1.00  0.00    -0.266 C  
HETATM   21  O   UNL     1      -8.098   8.593  73.748  1.00  0.00    -0.400 OA 
BRANCH  20  22
HETATM   22  C   UNL     1     -10.086   7.162  73.620  1.00  0.00    -0.346 C  
HETATM   23  C   UNL     1      -8.316   5.490  74.408  1.00  0.00    -0.106 C  
HETATM   24  C   UNL     1     -10.653   4.704  74.108  1.00  0.00    -0.348 C  
HETATM   25  H2  UNL     1     -11.235   7.209  71.875  1.00  0.00     0.000 HD 
HETATM   26  H1  UNL     1     -12.060   6.651  73.241  1.00  0.00     0.000 HD 
HETATM   27  C   UNL     1      -9.595   5.691  73.585  1.00  0.00    -0.141 C  
HETATM   28  N   UNL     1     -11.365   7.306  72.882  1.00  0.00    -0.281 NA 
ENDBRANCH  20  22
ENDBRANCH  19  20
ENDBRANCH  11  19
BRANCH  13  29
HETATM   29  C   UNL     1      -8.328   6.114  69.981  1.00  0.00    -0.125 C  
HETATM   30  C   UNL     1      -9.360   3.846  70.340  1.00  0.00    -0.231 C  
HETATM   31  C   UNL     1     -10.256   5.311  68.521  1.00  0.00    -0.214 C  
HETATM   32  C   UNL     1      -9.626   5.292  69.914  1.00  0.00    -0.241 C  
ENDBRANCH  13  29
ENDBRANCH   2   3
TORSDOF 6
ENDMDL
MODEL      115
REMARK 921   NORMALIZED FREE ENERGY PREDICTED BY IDOCK:   -3.65 KCAL/MOL
REMARK 922        TOTAL FREE ENERGY PREDICTED BY IDOCK:   -5.75 KCAL/MOL
REMARK 923 INTER-LIGAND FREE ENERGY PREDICTED BY IDOCK:   -4.93 KCAL/MOL
REMARK 924 INTRA-LIGAND FREE ENERGY PREDICTED BY IDOCK:   -0.82 KCAL/MOL
REMARK 927      BINDING AFFINITY PREDICTED BY RF-SCORE:    0.00 PKD
ROOT
HETATM    1  C   UNL     1      -8.081  19.404  68.760  1.00  0.00    -0.353 C  
HETATM    2  O   UNL     1      -7.311  18.562  67.909  1.00  0.00    -0.229 OA 
ENDROOT
BRANCH   2   3
HETATM    3  C   UNL     1      -7.530  17.212  68.012  1.00  0.00    -0.195 A  
HETATM    4  C   UNL     1      -8.516  16.460  67.359  1.00  0.00    -0.178 A  
HETATM    5  C   UNL     1      -8.557  15.081  67.572  1.00  0.00    -0.192 A  
HETATM    6  N   UNL     1      -6.543  12.309  69.236  1.00  0.00    -0.107 NA 
HETATM    7  C   UNL     1      -7.630  14.418  68.395  1.00  0.00    -0.122 A  
HETATM    8  C   UNL     1      -6.175  13.076  70.434  1.00  0.00     0.055 C  
HETATM    9  C   UNL     1      -7.710  12.904  68.549  1.00  0.00    -0.109 C  
HETATM   10  C   UNL     1      -7.811  12.190  67.188  1.00  0.00    -0.160 C  
HETATM   11  C   UNL     1      -8.079  10.693  67.352  1.00  0.00    -0.112 C  
HETATM   12  C   UNL     1      -5.795  14.532  70.116  1.00  0.00    -0.140 C  
HETATM   13  C   UNL     1      -7.078  10.039  68.326  1.00  0.00    -0.072 C  
HETATM   14  C   UNL     1      -6.850  10.913  69.581  1.00  0.00    -0.137 C  
HETATM   15  C   UNL     1      -6.663  16.572  68.911  1.00  0.00    -0.179 A  
HETATM   16  C   UNL     1      -6.719  15.185  69.122  1.00  0.00    -0.130 A  
BRANCH   4  17
HETATM   17  O   UNL     1      -9.452  17.104  66.590  1.00  0.00    -0.245 OA 
HETATM   18  C   UNL     1     -10.746  17.258  67.163  1.00  0.00    -0.181 C  
ENDBRANCH   4  17
BRANCH  11  19
HETATM   19  O   UNL     1      -7.941  10.071  66.049  1.00  0.00    -0.111 OA 
BRANCH  19  20
HETATM   20  C   UNL     1      -8.981   9.323  65.580  1.00  0.00    -0.205 C  
HETATM   21  O   UNL     1      -9.021   8.096  65.622  1.00  0.00    -0.158 OA 
BRANCH  20  22
HETATM   22  C   UNL     1     -10.120  10.195  64.984  1.00  0.00    -0.235 C  
HETATM   23  C   UNL     1      -8.901  10.527  62.758  1.00  0.00    -0.258 C  
HETATM   24  C   UNL     1     -10.735  12.089  63.361  1.00  0.00    -0.475 C  
HETATM   25  H2  UNL     1     -10.245  11.429  66.666  1.00  0.00     0.000 HD 
HETATM   26  H1  UNL     1     -11.614  11.457  65.674  1.00  0.00     0.000 HD 
HETATM   27  C   UNL     1      -9.607  11.215  63.934  1.00  0.00    -0.286 C  
HETATM   28  N   UNL     1     -10.865  10.885  66.066  1.00  0.00    -0.146 NA 
ENDBRANCH  20  22
ENDBRANCH  19  20
ENDBRANCH  11  19
BRANCH  13  29
HETATM   29  C   UNL     1      -7.539   8.632  68.790  1.00  0.00    -0.096 C  
HETATM   30  C   UNL     1      -7.410   6.118  68.700  1.00  0.00    -0.086 C  
HETATM   31  C   UNL     1      -5.296   7.447  68.541  1.00  0.00    -0.022 C  
HETATM   32  C   UNL     1      -6.787   7.425  68.202  1.00  0.00    -0.063 C  
ENDBRANCH  13  29
ENDBRANCH   2   3
TORSDOF 6
ENDMDL
MODEL      116
REMARK 921   NORMALIZED FREE ENERGY PREDICTED BY IDOCK:   -3.62 KCAL/MOL
REMARK 922        TOTAL FREE ENERGY PREDICTED BY IDOCK:   -5.71 KCAL/MOL
REMARK 923 INTER-LIGAND FREE ENERGY PREDICTED BY IDOCK:   -4.58 KCAL/MOL
REMARK 924 INTRA-LIGAND FREE ENERGY PREDICTED BY IDOCK:   -1.13 KCAL/MOL
REMARK 927      BINDING AFFINITY PREDICTED BY RF-SCORE:    0.00 PKD
ROOT
HETATM    1  C   UNL     1     -10.862  16.109  68.714  1.00  0.00    -0.310 C  
HETATM    2  O   UNL     1     -10.935  15.137  67.676  1.00  0.00    -0.290 OA 
ENDROOT
BRANCH   2   3
HETATM    3  C   UNL     1     -10.366  13.916  67.933  1.00  0.00    -0.240 A  
HETATM    4  C   UNL     1     -10.972  12.809  68.545  1.00  0.00    -0.258 A  
HETATM    5  C   UNL     1     -10.231  11.635  68.688  1.00  0.00    -0.215 A  
HETATM    6  N   UNL     1      -6.902  10.119  67.628  1.00  0.00    -0.075 NA 
HETATM    7  C   UNL     1      -8.912  11.514  68.218  1.00  0.00    -0.177 A  
HETATM    8  C   UNL     1      -6.105  11.341  67.809  1.00  0.00    -0.048 C  
HETATM    9  C   UNL     1      -8.177  10.188  68.373  1.00  0.00    -0.112 C  
HETATM   10  C   UNL     1      -9.022   8.999  67.880  1.00  0.00    -0.135 C  
HETATM   11  C   UNL     1      -8.363   7.660  68.208  1.00  0.00    -0.125 C  
HETATM   12  C   UNL     1      -6.829  12.603  67.313  1.00  0.00    -0.102 C  
HETATM   13  C   UNL     1      -6.894   7.618  67.737  1.00  0.00    -0.068 C  
HETATM   14  C   UNL     1      -6.152   8.933  68.068  1.00  0.00    -0.051 C  
HETATM   15  C   UNL     1      -9.019  13.835  67.550  1.00  0.00    -0.201 A  
HETATM   16  C   UNL     1      -8.282  12.650  67.706  1.00  0.00    -0.171 A  
BRANCH   4  17
HETATM   17  O   UNL     1     -12.243  12.932  69.046  1.00  0.00    -0.205 OA 
HETATM   18  C   UNL     1     -12.366  12.945  70.464  1.00  0.00    -0.283 C  
ENDBRANCH   4  17
BRANCH  11  19
HETATM   19  O   UNL     1      -9.104   6.618  67.523  1.00  0.00    -0.117 OA 
BRANCH  19  20
HETATM   20  C   UNL     1     -10.021   5.905  68.239  1.00  0.00    -0.146 C  
HETATM   21  O   UNL     1     -11.197   6.232  68.371  1.00  0.00    -0.335 OA 
BRANCH  20  22
HETATM   22  C   UNL     1      -9.415   4.621  68.872  1.00  0.00    -0.153 C  
HETATM   23  C   UNL     1      -9.200   3.434  66.615  1.00  0.00    -0.186 C  
HETATM   24  C   UNL     1      -9.148   2.073  68.691  1.00  0.00    -0.201 C  
HETATM   25  H2  UNL     1     -10.889   4.486  70.347  1.00  0.00     0.000 HD 
HETATM   26  H1  UNL     1      -9.475   3.627  70.691  1.00  0.00     0.000 HD 
HETATM   27  C   UNL     1      -9.732   3.343  68.051  1.00  0.00    -0.058 C  
HETATM   28  N   UNL     1      -9.872   4.470  70.275  1.00  0.00    -0.220 NA 
ENDBRANCH  20  22
ENDBRANCH  19  20
ENDBRANCH  11  19
BRANCH  13  29
HETATM   29  C   UNL     1      -6.104   6.441  68.368  1.00  0.00    -0.024 C  
HETATM   30  C   UNL     1      -5.438   4.014  68.452  1.00  0.00    -0.013 C  
HETATM   31  C   UNL     1      -5.697   5.124  66.225  1.00  0.00    -0.018 C  
HETATM   32  C   UNL     1      -6.209   5.077  67.665  1.00  0.00    -0.039 C  
ENDBRANCH  13  29
ENDBRANCH   2   3
TORSDOF 6
ENDMDL
MODEL      117
REMARK 921   NORMALIZED FREE ENERGY PREDICTED BY IDOCK:   -3.61 KCAL/MOL
REMARK 922        TOTAL FREE ENERGY PREDICTED BY IDOCK:   -5.70 KCAL/MOL
REMARK 923 INTER-LIGAND FREE ENERGY PREDICTED BY IDOCK:   -5.63 KCAL/MOL
REMARK 924 INTRA-LIGAND FREE ENERGY PREDICTED BY IDOCK:   -0.07 KCAL/MOL
REMARK 927      BINDING AFFINITY PREDICTED BY RF-SCORE:    0.00 PKD
ROOT
HETATM    1  C   UNL     1      -8.881  10.861  62.425  1.00  0.00    -0.313 C  
HETATM    2  O   UNL     1      -9.924  10.473  63.313  1.00  0.00    -0.302 OA 
ENDROOT
BRANCH   2   3
HETATM    3  C   UNL     1      -9.547  10.056  64.564  1.00  0.00    -0.279 A  
HETATM    4  C   UNL     1     -10.119  10.428  65.790  1.00  0.00    -0.262 A  
HETATM    5  C   UNL     1      -9.610   9.865  66.962  1.00  0.00    -0.218 A  
HETATM    6  N   UNL     1      -7.169   7.176  68.107  1.00  0.00    -0.092 NA 
HETATM    7  C   UNL     1      -8.568   8.923  66.956  1.00  0.00    -0.120 A  
HETATM    8  C   UNL     1      -6.139   7.454  67.097  1.00  0.00    -0.046 C  
HETATM    9  C   UNL     1      -8.091   8.320  68.272  1.00  0.00    -0.124 C  
HETATM   10  C   UNL     1      -9.262   7.803  69.127  1.00  0.00    -0.144 C  
HETATM   11  C   UNL     1      -8.800   7.374  70.520  1.00  0.00    -0.148 C  
HETATM   12  C   UNL     1      -6.731   7.737  65.706  1.00  0.00    -0.046 C  
HETATM   13  C   UNL     1      -7.604   6.401  70.448  1.00  0.00    -0.096 C  
HETATM   14  C   UNL     1      -6.558   6.861  69.407  1.00  0.00    -0.048 C  
HETATM   15  C   UNL     1      -8.443   9.192  64.556  1.00  0.00    -0.195 A  
HETATM   16  C   UNL     1      -7.936   8.638  65.744  1.00  0.00    -0.106 A  
BRANCH   4  17
HETATM   17  O   UNL     1     -11.105  11.380  65.809  1.00  0.00    -0.252 OA 
HETATM   18  C   UNL     1     -10.676  12.736  65.863  1.00  0.00    -0.270 C  
ENDBRANCH   4  17
BRANCH  11  19
HETATM   19  O   UNL     1      -9.910   6.704  71.171  1.00  0.00    -0.181 OA 
BRANCH  19  20
HETATM   20  C   UNL     1     -11.172   6.982  70.736  1.00  0.00    -0.285 C  
HETATM   21  O   UNL     1     -11.715   6.416  69.790  1.00  0.00    -0.414 OA 
BRANCH  20  22
HETATM   22  C   UNL     1     -11.860   8.096  71.572  1.00  0.00    -0.294 C  
HETATM   23  C   UNL     1     -13.998   6.729  71.906  1.00  0.00    -0.157 C  
HETATM   24  C   UNL     1     -14.082   9.185  72.261  1.00  0.00    -0.439 C  
HETATM   25  H2  UNL     1     -11.407   9.602  70.195  1.00  0.00     0.000 HD 
HETATM   26  H1  UNL     1     -11.779  10.161  71.746  1.00  0.00     0.000 HD 
HETATM   27  C   UNL     1     -13.407   8.068  71.448  1.00  0.00    -0.261 C  
HETATM   28  N   UNL     1     -11.327   9.429  71.197  1.00  0.00    -0.320 NA 
ENDBRANCH  20  22
ENDBRANCH  19  20
ENDBRANCH  11  19
BRANCH  13  29
HETATM   29  C   UNL     1      -6.891   6.239  71.816  1.00  0.00    -0.065 C  
HETATM   30  C   UNL     1      -6.387   4.932  73.909  1.00  0.00    -0.060 C  
HETATM   31  C   UNL     1      -6.583   3.710  71.735  1.00  0.00    -0.019 C  
HETATM   32  C   UNL     1      -7.090   4.901  72.549  1.00  0.00    -0.077 C  
ENDBRANCH  13  29
ENDBRANCH   2   3
TORSDOF 6
ENDMDL
MODEL      118
REMARK 921   NORMALIZED FREE ENERGY PREDICTED BY IDOCK:   -3.55 KCAL/MOL
REMARK 922        TOTAL FREE ENERGY PREDICTED BY IDOCK:   -5.62 KCAL/MOL
REMARK 923 INTER-LIGAND FREE ENERGY PREDICTED BY IDOCK:   -5.87 KCAL/MOL
REMARK 924 INTRA-LIGAND FREE ENERGY PREDICTED BY IDOCK:    0.25 KCAL/MOL
REMARK 927      BINDING AFFINITY PREDICTED BY RF-SCORE:    0.00 PKD
ROOT
HETATM    1  C   UNL     1     -12.893  11.309  63.143  1.00  0.00     1.113 C  
HETATM    2  O   UNL     1     -12.983  12.634  63.654  1.00  0.00    -0.704 OA 
ENDROOT
BRANCH   2   3
HETATM    3  C   UNL     1     -11.991  13.035  64.511  1.00  0.00    -0.394 A  
HETATM    4  C   UNL     1     -10.608  12.998  64.283  1.00  0.00    -0.412 A  
HETATM    5  C   UNL     1      -9.754  13.485  65.275  1.00  0.00    -0.006 A  
HETATM    6  N   UNL     1      -9.873  15.347  68.595  1.00  0.00    -0.202 NA 
HETATM    7  C   UNL     1     -10.230  14.034  66.477  1.00  0.00    -0.279 A  
HETATM    8  C   UNL     1     -11.051  14.648  69.128  1.00  0.00    -0.268 C  
HETATM    9  C   UNL     1      -9.241  14.585  67.497  1.00  0.00    -0.194 C  
HETATM   10  C   UNL     1      -8.218  15.538  66.852  1.00  0.00    -0.287 C  
HETATM   11  C   UNL     1      -7.118  15.939  67.835  1.00  0.00    -0.132 C  
HETATM   12  C   UNL     1     -12.143  14.427  68.068  1.00  0.00    -0.266 C  
HETATM   13  C   UNL     1      -7.704  16.461  69.164  1.00  0.00    -0.220 C  
HETATM   14  C   UNL     1      -8.878  15.582  69.652  1.00  0.00    -0.140 C  
HETATM   15  C   UNL     1     -12.470  13.491  65.748  1.00  0.00    -0.514 A  
HETATM   16  C   UNL     1     -11.600  13.972  66.740  1.00  0.00    -0.406 A  
BRANCH   4  17
HETATM   17  O   UNL     1     -10.132  12.423  63.133  1.00  0.00    -0.359 OA 
HETATM   18  C   UNL     1      -9.198  11.361  63.295  1.00  0.00    -0.185 C  
ENDBRANCH   4  17
BRANCH  11  19
HETATM   19  O   UNL     1      -6.335  16.995  67.222  1.00  0.00    -0.136 OA 
BRANCH  19  20
HETATM   20  C   UNL     1      -6.985  17.913  66.453  1.00  0.00    -0.249 C  
HETATM   21  O   UNL     1      -6.942  17.939  65.225  1.00  0.00    -0.356 OA 
BRANCH  20  22
HETATM   22  C   UNL     1      -7.798  18.931  67.299  1.00  0.00    -0.235 C  
HETATM   23  C   UNL     1     -10.042  18.159  66.340  1.00  0.00    -0.392 C  
HETATM   24  C   UNL     1      -9.915  20.380  67.445  1.00  0.00    -0.556 C  
HETATM   25  H2  UNL     1      -6.580  20.548  66.781  1.00  0.00     0.000 HD 
HETATM   26  H1  UNL     1      -7.503  20.787  68.176  1.00  0.00     0.000 HD 
HETATM   27  C   UNL     1      -9.123  19.357  66.613  1.00  0.00    -0.391 C  
HETATM   28  N   UNL     1      -6.969  20.119  67.620  1.00  0.00    -0.255 NA 
ENDBRANCH  20  22
ENDBRANCH  19  20
ENDBRANCH  11  19
BRANCH  13  29
HETATM   29  C   UNL     1      -6.642  16.526  70.293  1.00  0.00     0.531 C  
HETATM   30  C   UNL     1      -5.145  15.421  71.990  1.00  0.00    -0.042 C  
HETATM   31  C   UNL     1      -5.450  14.338  69.756  1.00  0.00    -0.096 C  
HETATM   32  C   UNL     1      -6.124  15.184  70.837  1.00  0.00     0.157 C  
ENDBRANCH  13  29
ENDBRANCH   2   3
TORSDOF 6
ENDMDL
MODEL      119
REMARK 921   NORMALIZED FREE ENERGY PREDICTED BY IDOCK:   -3.53 KCAL/MOL
REMARK 922        TOTAL FREE ENERGY PREDICTED BY IDOCK:   -5.59 KCAL/MOL
REMARK 923 INTER-LIGAND FREE ENERGY PREDICTED BY IDOCK:   -5.94 KCAL/MOL
REMARK 924 INTRA-LIGAND FREE ENERGY PREDICTED BY IDOCK:    0.35 KCAL/MOL
REMARK 927      BINDING AFFINITY PREDICTED BY RF-SCORE:    0.00 PKD
ROOT
HETATM    1  C   UNL     1      -6.961   8.883  69.423  1.00  0.00    -0.053 C  
HETATM    2  O   UNL     1      -5.856   9.772  69.539  1.00  0.00    -0.033 OA 
ENDROOT
BRANCH   2   3
HETATM    3  C   UNL     1      -6.026  11.037  69.037  1.00  0.00    -0.041 A  
HETATM    4  C   UNL     1      -6.248  11.396  67.700  1.00  0.00    -0.062 A  
HETATM    5  C   UNL     1      -6.430  12.746  67.392  1.00  0.00    -0.141 A  
HETATM    6  N   UNL     1      -6.878  16.114  69.112  1.00  0.00    -0.183 NA 
HETATM    7  C   UNL     1      -6.423  13.751  68.374  1.00  0.00    -0.099 A  
HETATM    8  C   UNL     1      -5.889  15.884  70.175  1.00  0.00    -0.157 C  
HETATM    9  C   UNL     1      -6.669  15.200  67.969  1.00  0.00    -0.141 C  
HETATM   10  C   UNL     1      -7.913  15.346  67.075  1.00  0.00    -0.259 C  
HETATM   11  C   UNL     1      -8.048  16.764  66.518  1.00  0.00    -0.294 C  
HETATM   12  C   UNL     1      -5.949  14.457  70.745  1.00  0.00    -0.195 C  
HETATM   13  C   UNL     1      -7.956  17.824  67.635  1.00  0.00    -0.216 C  
HETATM   14  C   UNL     1      -6.819  17.503  68.633  1.00  0.00    -0.227 C  
HETATM   15  C   UNL     1      -5.920  12.043  70.009  1.00  0.00    -0.159 A  
HETATM   16  C   UNL     1      -6.097  13.398  69.685  1.00  0.00    -0.123 A  
BRANCH   4  17
HETATM   17  O   UNL     1      -6.212  10.428  66.730  1.00  0.00    -0.063 OA 
HETATM   18  C   UNL     1      -7.347  10.343  65.876  1.00  0.00    -0.135 C  
ENDBRANCH   4  17
BRANCH  11  19
HETATM   19  O   UNL     1      -9.345  16.870  65.878  1.00  0.00    -0.489 OA 
BRANCH  19  20
HETATM   20  C   UNL     1     -10.432  17.117  66.664  1.00  0.00    -0.259 C  
HETATM   21  O   UNL     1     -10.780  18.238  67.025  1.00  0.00    -0.370 OA 
BRANCH  20  22
HETATM   22  C   UNL     1     -11.192  15.820  67.056  1.00  0.00    -0.082 C  
HETATM   23  C   UNL     1     -10.653  16.082  69.544  1.00  0.00    -0.290 C  
HETATM   24  C   UNL     1     -11.353  13.853  68.701  1.00  0.00    -0.310 C  
HETATM   25  H2  UNL     1     -10.271  14.667  65.577  1.00  0.00     0.000 HD 
HETATM   26  H1  UNL     1     -11.709  14.014  66.178  1.00  0.00     0.000 HD 
HETATM   27  C   UNL     1     -10.611  15.148  68.328  1.00  0.00    -0.243 C  
HETATM   28  N   UNL     1     -11.210  14.866  65.920  1.00  0.00    -0.336 NA 
ENDBRANCH  20  22
ENDBRANCH  19  20
ENDBRANCH  11  19
BRANCH  13  29
HETATM   29  C   UNL     1      -7.723  19.253  67.076  1.00  0.00    -0.263 C  
HETATM   30  C   UNL     1      -6.215  21.065  66.189  1.00  0.00    -0.302 C  
HETATM   31  C   UNL     1      -5.776  18.692  65.529  1.00  0.00    -0.237 C  
HETATM   32  C   UNL     1      -6.289  19.605  66.643  1.00  0.00    -0.182 C  
ENDBRANCH  13  29
ENDBRANCH   2   3
TORSDOF 6
ENDMDL
MODEL      120
REMARK 921   NORMALIZED FREE ENERGY PREDICTED BY IDOCK:   -3.53 KCAL/MOL
REMARK 922        TOTAL FREE ENERGY PREDICTED BY IDOCK:   -5.59 KCAL/MOL
REMARK 923 INTER-LIGAND FREE ENERGY PREDICTED BY IDOCK:   -4.85 KCAL/MOL
REMARK 924 INTRA-LIGAND FREE ENERGY PREDICTED BY IDOCK:   -0.74 KCAL/MOL
REMARK 927      BINDING AFFINITY PREDICTED BY RF-SCORE:    0.00 PKD
ROOT
HETATM    1  C   UNL     1     -10.962   3.228  63.166  1.00  0.00    -0.109 C  
HETATM    2  O   UNL     1      -9.567   3.502  63.241  1.00  0.00    -0.105 OA 
ENDROOT
BRANCH   2   3
HETATM    3  C   UNL     1      -9.112   4.082  64.397  1.00  0.00    -0.142 A  
HETATM    4  C   UNL     1      -8.506   5.339  64.534  1.00  0.00    -0.133 A  
HETATM    5  C   UNL     1      -8.139   5.768  65.811  1.00  0.00    -0.116 A  
HETATM    6  N   UNL     1      -8.512   4.762  69.465  1.00  0.00    -0.082 NA 
HETATM    7  C   UNL     1      -8.379   5.000  66.963  1.00  0.00    -0.107 A  
HETATM    8  C   UNL     1      -8.318   3.320  69.254  1.00  0.00    -0.060 C  
HETATM    9  C   UNL     1      -7.989   5.551  68.329  1.00  0.00    -0.096 C  
HETATM   10  C   UNL     1      -8.499   6.988  68.539  1.00  0.00    -0.121 C  
HETATM   11  C   UNL     1      -7.948   7.603  69.826  1.00  0.00    -0.116 C  
HETATM   12  C   UNL     1      -9.037   2.801  67.998  1.00  0.00    -0.228 C  
HETATM   13  C   UNL     1      -8.174   6.678  71.041  1.00  0.00    -0.120 C  
HETATM   14  C   UNL     1      -7.851   5.205  70.702  1.00  0.00    -0.080 C  
HETATM   15  C   UNL     1      -9.266   3.268  65.529  1.00  0.00    -0.151 A  
HETATM   16  C   UNL     1      -8.887   3.709  66.807  1.00  0.00    -0.137 A  
BRANCH   4  17
HETATM   17  O   UNL     1      -8.227   6.075  63.412  1.00  0.00    -0.107 OA 
HETATM   18  C   UNL     1      -7.050   6.874  63.455  1.00  0.00    -0.060 C  
ENDBRANCH   4  17
BRANCH  11  19
HETATM   19  O   UNL     1      -8.644   8.855  70.055  1.00  0.00    -0.124 OA 
BRANCH  19  20
HETATM   20  C   UNL     1      -9.949   8.946  69.669  1.00  0.00    -0.191 C  
HETATM   21  O   UNL     1     -10.312   9.159  68.515  1.00  0.00    -0.197 OA 
BRANCH  20  22
HETATM   22  C   UNL     1     -10.936   8.744  70.851  1.00  0.00    -0.262 C  
HETATM   23  C   UNL     1     -11.499   6.344  70.164  1.00  0.00    -0.484 C  
HETATM   24  C   UNL     1     -13.046   7.544  71.691  1.00  0.00    -0.401 C  
HETATM   25  H2  UNL     1     -11.949  10.537  70.493  1.00  0.00     0.000 HD 
HETATM   26  H1  UNL     1     -12.161   9.913  72.049  1.00  0.00     0.000 HD 
HETATM   27  C   UNL     1     -12.060   7.725  70.526  1.00  0.00     0.069 C  
HETATM   28  N   UNL     1     -11.513  10.045  71.272  1.00  0.00    -0.356 NA 
ENDBRANCH  20  22
ENDBRANCH  19  20
ENDBRANCH  11  19
BRANCH  13  29
HETATM   29  C   UNL     1      -7.319   7.095  72.267  1.00  0.00    -0.080 C  
HETATM   30  C   UNL     1      -6.967   8.440  74.366  1.00  0.00    -0.210 C  
HETATM   31  C   UNL     1      -9.241   7.515  73.886  1.00  0.00    -0.314 C  
HETATM   32  C   UNL     1      -7.963   8.075  73.262  1.00  0.00    -0.230 C  
ENDBRANCH  13  29
ENDBRANCH   2   3
TORSDOF 6
ENDMDL
MODEL      121
REMARK 921   NORMALIZED FREE ENERGY PREDICTED BY IDOCK:   -3.49 KCAL/MOL
REMARK 922        TOTAL FREE ENERGY PREDICTED BY IDOCK:   -5.54 KCAL/MOL
REMARK 923 INTER-LIGAND FREE ENERGY PREDICTED BY IDOCK:   -5.00 KCAL/MOL
REMARK 924 INTRA-LIGAND FREE ENERGY PREDICTED BY IDOCK:   -0.54 KCAL/MOL
REMARK 927      BINDING AFFINITY PREDICTED BY RF-SCORE:    0.00 PKD
ROOT
HETATM    1  C   UNL     1      -7.558   4.281  62.712  1.00  0.00    -0.053 C  
HETATM    2  O   UNL     1      -6.884   5.217  63.545  1.00  0.00    -0.040 OA 
ENDROOT
BRANCH   2   3
HETATM    3  C   UNL     1      -7.665   5.987  64.368  1.00  0.00    -0.104 A  
HETATM    4  C   UNL     1      -8.348   5.574  65.521  1.00  0.00    -0.136 A  
HETATM    5  C   UNL     1      -9.071   6.523  66.246  1.00  0.00    -0.168 A  
HETATM    6  N   UNL     1      -9.663  10.282  66.384  1.00  0.00    -0.191 NA 
HETATM    7  C   UNL     1      -9.117   7.878  65.878  1.00  0.00    -0.139 A  
HETATM    8  C   UNL     1      -9.719  10.489  64.930  1.00  0.00    -0.300 C  
HETATM    9  C   UNL     1      -9.893   8.866  66.740  1.00  0.00    -0.241 C  
HETATM   10  C   UNL     1      -9.531   8.738  68.231  1.00  0.00    -0.150 C  
HETATM   11  C   UNL     1     -10.443   9.594  69.111  1.00  0.00    -0.214 C  
HETATM   12  C   UNL     1      -8.659   9.674  64.172  1.00  0.00    -0.209 C  
HETATM   13  C   UNL     1     -10.513  11.051  68.610  1.00  0.00    -0.214 C  
HETATM   14  C   UNL     1     -10.658  11.119  67.073  1.00  0.00    -0.252 C  
HETATM   15  C   UNL     1      -7.787   7.317  63.938  1.00  0.00    -0.111 A  
HETATM   16  C   UNL     1      -8.523   8.261  64.673  1.00  0.00    -0.069 A  
BRANCH   4  17
HETATM   17  O   UNL     1      -8.345   4.246  65.862  1.00  0.00    -0.108 OA 
HETATM   18  C   UNL     1      -8.805   3.928  67.171  1.00  0.00    -0.122 C  
ENDBRANCH   4  17
BRANCH  11  19
HETATM   19  O   UNL     1      -9.900   9.586  70.456  1.00  0.00    -0.248 OA 
BRANCH  19  20
HETATM   20  C   UNL     1      -9.508   8.392  70.984  1.00  0.00    -0.170 C  
HETATM   21  O   UNL     1     -10.074   7.324  70.768  1.00  0.00    -0.190 OA 
BRANCH  20  22
HETATM   22  C   UNL     1      -8.254   8.524  71.893  1.00  0.00    -0.142 C  
HETATM   23  C   UNL     1      -6.746   7.279  70.243  1.00  0.00    -0.051 C  
HETATM   24  C   UNL     1      -6.015   7.489  72.607  1.00  0.00    -0.040 C  
HETATM   25  H2  UNL     1      -9.251   7.852  73.602  1.00  0.00     0.000 HD 
HETATM   26  H1  UNL     1      -7.833   8.717  73.915  1.00  0.00     0.000 HD 
HETATM   27  C   UNL     1      -7.244   7.364  71.692  1.00  0.00    -0.071 C  
HETATM   28  N   UNL     1      -8.656   8.630  73.318  1.00  0.00    -0.349 NA 
ENDBRANCH  20  22
ENDBRANCH  19  20
ENDBRANCH  11  19
BRANCH  13  29
HETATM   29  C   UNL     1     -11.690  11.838  69.245  1.00  0.00    -0.398 C  
HETATM   30  C   UNL     1     -12.589  13.712  70.667  1.00  0.00    -0.366 C  
HETATM   31  C   UNL     1     -10.612  14.147  69.198  1.00  0.00    -0.176 C  
HETATM   32  C   UNL     1     -11.330  13.099  70.049  1.00  0.00     0.025 C  
ENDBRANCH  13  29
ENDBRANCH   2   3
TORSDOF 6
ENDMDL
MODEL      122
REMARK 921   NORMALIZED FREE ENERGY PREDICTED BY IDOCK:   -3.49 KCAL/MOL
REMARK 922        TOTAL FREE ENERGY PREDICTED BY IDOCK:   -5.54 KCAL/MOL
REMARK 923 INTER-LIGAND FREE ENERGY PREDICTED BY IDOCK:   -5.22 KCAL/MOL
REMARK 924 INTRA-LIGAND FREE ENERGY PREDICTED BY IDOCK:   -0.32 KCAL/MOL
REMARK 927      BINDING AFFINITY PREDICTED BY RF-SCORE:    0.00 PKD
ROOT
HETATM    1  C   UNL     1      -7.826   6.112  71.775  1.00  0.00    -0.102 C  
HETATM    2  O   UNL     1      -8.630   6.416  70.640  1.00  0.00    -0.136 OA 
ENDROOT
BRANCH   2   3
HETATM    3  C   UNL     1      -8.420   7.632  70.042  1.00  0.00    -0.136 A  
HETATM    4  C   UNL     1      -9.021   8.117  68.872  1.00  0.00    -0.141 A  
HETATM    5  C   UNL     1      -8.698   9.404  68.438  1.00  0.00    -0.124 A  
HETATM    6  N   UNL     1      -6.793  12.496  69.587  1.00  0.00     0.076 NA 
HETATM    7  C   UNL     1      -7.814  10.238  69.145  1.00  0.00    -0.127 A  
HETATM    8  C   UNL     1      -5.657  11.774  70.177  1.00  0.00    -0.131 C  
HETATM    9  C   UNL     1      -7.539  11.647  68.633  1.00  0.00    -0.133 C  
HETATM   10  C   UNL     1      -8.838  12.409  68.313  1.00  0.00    -0.174 C  
HETATM   11  C   UNL     1      -8.557  13.746  67.626  1.00  0.00    -0.187 C  
HETATM   12  C   UNL     1      -6.088  10.521  70.957  1.00  0.00     0.091 C  
HETATM   13  C   UNL     1      -7.523  14.581  68.408  1.00  0.00    -0.116 C  
HETATM   14  C   UNL     1      -6.340  13.712  68.895  1.00  0.00    -0.097 C  
HETATM   15  C   UNL     1      -7.463   8.420  70.699  1.00  0.00    -0.065 A  
HETATM   16  C   UNL     1      -7.141   9.711  70.248  1.00  0.00    -0.127 A  
BRANCH   4  17
HETATM   17  O   UNL     1      -9.849   7.295  68.153  1.00  0.00    -0.143 OA 
HETATM   18  C   UNL     1      -9.472   7.038  66.805  1.00  0.00    -0.163 C  
ENDBRANCH   4  17
BRANCH  11  19
HETATM   19  O   UNL     1      -9.804  14.484  67.562  1.00  0.00    -0.220 OA 
BRANCH  19  20
HETATM   20  C   UNL     1     -10.954  13.836  67.907  1.00  0.00    -0.253 C  
HETATM   21  O   UNL     1     -11.595  13.118  67.144  1.00  0.00    -0.321 OA 
BRANCH  20  22
HETATM   22  C   UNL     1     -11.369  14.102  69.380  1.00  0.00    -0.272 C  
HETATM   23  C   UNL     1     -11.797  11.625  69.859  1.00  0.00    -0.434 C  
HETATM   24  C   UNL     1     -12.794  13.324  71.371  1.00  0.00    -0.411 C  
HETATM   25  H2  UNL     1     -12.691  15.640  68.877  1.00  0.00     0.000 HD 
HETATM   26  H1  UNL     1     -12.194  15.646  70.492  1.00  0.00     0.000 HD 
HETATM   27  C   UNL     1     -12.370  13.046  69.919  1.00  0.00    -0.177 C  
HETATM   28  N   UNL     1     -11.921  15.471  69.525  1.00  0.00    -0.358 NA 
ENDBRANCH  20  22
ENDBRANCH  19  20
ENDBRANCH  11  19
BRANCH  13  29
HETATM   29  C   UNL     1      -6.952  15.753  67.567  1.00  0.00    -0.216 C  
HETATM   30  C   UNL     1      -6.450  18.197  67.229  1.00  0.00    -0.192 C  
HETATM   31  C   UNL     1      -6.165  17.205  69.508  1.00  0.00    -0.242 C  
HETATM   32  C   UNL     1      -6.976  17.148  68.213  1.00  0.00    -0.187 C  
ENDBRANCH  13  29
ENDBRANCH   2   3
TORSDOF 6
ENDMDL
MODEL      123
REMARK 921   NORMALIZED FREE ENERGY PREDICTED BY IDOCK:   -3.47 KCAL/MOL
REMARK 922        TOTAL FREE ENERGY PREDICTED BY IDOCK:   -5.50 KCAL/MOL
REMARK 923 INTER-LIGAND FREE ENERGY PREDICTED BY IDOCK:   -5.35 KCAL/MOL
REMARK 924 INTRA-LIGAND FREE ENERGY PREDICTED BY IDOCK:   -0.16 KCAL/MOL
REMARK 927      BINDING AFFINITY PREDICTED BY RF-SCORE:    0.00 PKD
ROOT
HETATM    1  C   UNL     1      -8.506  17.285  66.348  1.00  0.00    -0.269 C  
HETATM    2  O   UNL     1      -9.214  16.519  67.316  1.00  0.00    -0.213 OA 
ENDROOT
BRANCH   2   3
HETATM    3  C   UNL     1      -9.052  15.158  67.266  1.00  0.00    -0.198 A  
HETATM    4  C   UNL     1      -8.154  14.382  68.014  1.00  0.00    -0.142 A  
HETATM    5  C   UNL     1      -8.164  12.997  67.841  1.00  0.00    -0.166 A  
HETATM    6  N   UNL     1     -10.174  10.270  66.101  1.00  0.00    -0.234 NA 
HETATM    7  C   UNL     1      -9.055  12.352  66.968  1.00  0.00    -0.207 A  
HETATM    8  C   UNL     1     -10.414  11.017  64.858  1.00  0.00    -0.303 C  
HETATM    9  C   UNL     1      -9.037  10.832  66.860  1.00  0.00    -0.149 C  
HETATM   10  C   UNL     1      -9.073  10.156  68.243  1.00  0.00    -0.122 C  
HETATM   11  C   UNL     1      -8.864   8.644  68.141  1.00  0.00    -0.142 C  
HETATM   12  C   UNL     1     -10.748  12.497  65.108  1.00  0.00    -0.323 C  
HETATM   13  C   UNL     1      -9.819   8.006  67.110  1.00  0.00    -0.274 C  
HETATM   14  C   UNL     1      -9.909   8.851  65.819  1.00  0.00    -0.036 C  
HETATM   15  C   UNL     1      -9.877  14.532  66.321  1.00  0.00    -0.322 A  
HETATM   16  C   UNL     1      -9.872  13.137  66.151  1.00  0.00    -0.284 A  
BRANCH   4  17
HETATM   17  O   UNL     1      -7.251  15.006  68.835  1.00  0.00    -0.110 OA 
HETATM   18  C   UNL     1      -6.009  14.338  69.033  1.00  0.00    -0.090 C  
ENDBRANCH   4  17
BRANCH  11  19
HETATM   19  O   UNL     1      -9.130   8.068  69.445  1.00  0.00    -0.148 OA 
BRANCH  19  20
HETATM   20  C   UNL     1      -8.246   7.154  69.937  1.00  0.00    -0.133 C  
HETATM   21  O   UNL     1      -7.800   6.210  69.290  1.00  0.00    -0.100 OA 
BRANCH  20  22
HETATM   22  C   UNL     1      -7.855   7.437  71.414  1.00  0.00    -0.095 C  
HETATM   23  C   UNL     1     -10.189   6.866  72.294  1.00  0.00    -0.207 C  
HETATM   24  C   UNL     1      -8.664   8.203  73.728  1.00  0.00    -0.292 C  
HETATM   25  H2  UNL     1      -6.979   9.283  70.973  1.00  0.00     0.000 HD 
HETATM   26  H1  UNL     1      -6.494   8.612  72.447  1.00  0.00     0.000 HD 
HETATM   27  C   UNL     1      -9.060   7.904  72.272  1.00  0.00    -0.217 C  
HETATM   28  N   UNL     1      -6.750   8.426  71.477  1.00  0.00    -0.063 NA 
ENDBRANCH  20  22
ENDBRANCH  19  20
ENDBRANCH  11  19
BRANCH  13  29
HETATM   29  C   UNL     1      -9.391   6.567  66.721  1.00  0.00    -0.179 C  
HETATM   30  C   UNL     1      -8.203   4.943  65.206  1.00  0.00    -0.122 C  
HETATM   31  C   UNL     1      -7.138   7.156  65.686  1.00  0.00    -0.068 C  
HETATM   32  C   UNL     1      -8.467   6.422  65.500  1.00  0.00    -0.141 C  
ENDBRANCH  13  29
ENDBRANCH   2   3
TORSDOF 6
ENDMDL
MODEL      124
REMARK 921   NORMALIZED FREE ENERGY PREDICTED BY IDOCK:   -3.44 KCAL/MOL
REMARK 922        TOTAL FREE ENERGY PREDICTED BY IDOCK:   -5.47 KCAL/MOL
REMARK 923 INTER-LIGAND FREE ENERGY PREDICTED BY IDOCK:   -4.34 KCAL/MOL
REMARK 924 INTRA-LIGAND FREE ENERGY PREDICTED BY IDOCK:   -1.13 KCAL/MOL
REMARK 927      BINDING AFFINITY PREDICTED BY RF-SCORE:    0.00 PKD
ROOT
HETATM    1  C   UNL     1     -10.680  14.688  67.592  1.00  0.00    -0.271 C  
HETATM    2  O   UNL     1     -10.116  13.941  66.520  1.00  0.00    -0.271 OA 
ENDROOT
BRANCH   2   3
HETATM    3  C   UNL     1     -10.091  12.577  66.663  1.00  0.00    -0.230 A  
HETATM    4  C   UNL     1     -10.584  11.621  65.763  1.00  0.00    -0.271 A  
HETATM    5  C   UNL     1     -10.434  10.269  66.077  1.00  0.00    -0.181 A  
HETATM    6  N   UNL     1      -8.717   8.021  68.628  1.00  0.00    -0.131 NA 
HETATM    7  C   UNL     1      -9.785   9.833  67.245  1.00  0.00    -0.213 A  
HETATM    8  C   UNL     1      -8.994   8.866  69.798  1.00  0.00    -0.149 C  
HETATM    9  C   UNL     1      -9.621   8.340  67.502  1.00  0.00    -0.154 C  
HETATM   10  C   UNL     1      -9.051   7.603  66.277  1.00  0.00    -0.204 C  
HETATM   11  C   UNL     1      -9.065   6.086  66.470  1.00  0.00    -0.146 C  
HETATM   12  C   UNL     1      -8.812  10.365  69.506  1.00  0.00    -0.111 C  
HETATM   13  C   UNL     1      -8.408   5.676  67.805  1.00  0.00    -0.100 C  
HETATM   14  C   UNL     1      -8.855   6.596  68.965  1.00  0.00    -0.128 C  
HETATM   15  C   UNL     1      -9.530  12.153  67.876  1.00  0.00    -0.195 A  
HETATM   16  C   UNL     1      -9.391  10.789  68.183  1.00  0.00    -0.155 A  
BRANCH   4  17
HETATM   17  O   UNL     1     -11.258  12.037  64.644  1.00  0.00    -0.311 OA 
HETATM   18  C   UNL     1     -12.631  12.369  64.819  1.00  0.00    -0.335 C  
ENDBRANCH   4  17
BRANCH  11  19
HETATM   19  O   UNL     1      -8.319   5.490  65.379  1.00  0.00    -0.129 OA 
BRANCH  19  20
HETATM   20  C   UNL     1      -8.989   5.192  64.229  1.00  0.00     0.040 C  
HETATM   21  O   UNL     1      -8.907   5.848  63.194  1.00  0.00     0.184 OA 
BRANCH  20  22
HETATM   22  C   UNL     1      -9.872   3.921  64.366  1.00  0.00    -0.188 C  
HETATM   23  C   UNL     1      -7.899   2.333  64.002  1.00  0.00    -0.072 C  
HETATM   24  C   UNL     1     -10.205   1.467  63.683  1.00  0.00    -0.118 C  
HETATM   25  H2  UNL     1     -11.325   4.617  63.034  1.00  0.00     0.000 HD 
HETATM   26  H1  UNL     1     -11.852   3.382  64.060  1.00  0.00     0.000 HD 
HETATM   27  C   UNL     1      -9.317   2.717  63.561  1.00  0.00    -0.099 C  
HETATM   28  N   UNL     1     -11.272   4.217  63.970  1.00  0.00    -0.079 NA 
ENDBRANCH  20  22
ENDBRANCH  19  20
ENDBRANCH  11  19
BRANCH  13  29
HETATM   29  C   UNL     1      -8.729   4.210  68.196  1.00  0.00    -0.117 C  
HETATM   30  C   UNL     1      -8.442   1.725  67.898  1.00  0.00    -0.088 C  
HETATM   31  C   UNL     1      -6.446   3.214  67.658  1.00  0.00    -0.037 C  
HETATM   32  C   UNL     1      -7.957   3.107  67.452  1.00  0.00    -0.077 C  
ENDBRANCH  13  29
ENDBRANCH   2   3
TORSDOF 6
ENDMDL
MODEL      125
REMARK 921   NORMALIZED FREE ENERGY PREDICTED BY IDOCK:   -3.42 KCAL/MOL
REMARK 922        TOTAL FREE ENERGY PREDICTED BY IDOCK:   -5.43 KCAL/MOL
REMARK 923 INTER-LIGAND FREE ENERGY PREDICTED BY IDOCK:   -4.83 KCAL/MOL
REMARK 924 INTRA-LIGAND FREE ENERGY PREDICTED BY IDOCK:   -0.60 KCAL/MOL
REMARK 927      BINDING AFFINITY PREDICTED BY RF-SCORE:    0.00 PKD
ROOT
HETATM    1  C   UNL     1     -10.260   2.476  72.012  1.00  0.00    -0.055 C  
HETATM    2  O   UNL     1      -9.383   3.589  72.143  1.00  0.00    -0.107 OA 
ENDROOT
BRANCH   2   3
HETATM    3  C   UNL     1      -9.753   4.746  71.506  1.00  0.00    -0.172 A  
HETATM    4  C   UNL     1     -10.012   5.992  72.094  1.00  0.00    -0.165 A  
HETATM    5  C   UNL     1     -10.347   7.065  71.265  1.00  0.00    -0.217 A  
HETATM    6  N   UNL     1     -10.531   7.973  67.571  1.00  0.00    -0.260 NA 
HETATM    7  C   UNL     1     -10.406   6.947  69.866  1.00  0.00    -0.223 A  
HETATM    8  C   UNL     1     -11.084   6.689  67.118  1.00  0.00    -0.357 C  
HETATM    9  C   UNL     1     -10.739   8.172  69.021  1.00  0.00    -0.080 C  
HETATM   10  C   UNL     1      -9.882   9.390  69.411  1.00  0.00    -0.183 C  
HETATM   11  C   UNL     1     -10.345  10.660  68.696  1.00  0.00    -0.186 C  
HETATM   12  C   UNL     1     -10.436   5.482  67.818  1.00  0.00    -0.245 C  
HETATM   13  C   UNL     1     -10.466  10.445  67.173  1.00  0.00    -0.311 C  
HETATM   14  C   UNL     1     -11.142   9.095  66.841  1.00  0.00     0.526 C  
HETATM   15  C   UNL     1      -9.906   4.596  70.120  1.00  0.00    -0.306 A  
HETATM   16  C   UNL     1     -10.250   5.682  69.298  1.00  0.00    -0.309 A  
BRANCH   4  17
HETATM   17  O   UNL     1     -10.000   6.106  73.460  1.00  0.00    -0.167 OA 
HETATM   18  C   UNL     1     -10.053   7.427  73.986  1.00  0.00    -0.077 C  
ENDBRANCH   4  17
BRANCH  11  19
HETATM   19  O   UNL     1      -9.361  11.697  68.946  1.00  0.00    -0.097 OA 
BRANCH  19  20
HETATM   20  C   UNL     1      -9.804  12.974  69.124  1.00  0.00     0.456 C  
HETATM   21  O   UNL     1     -10.741  13.283  69.856  1.00  0.00     0.372 OA 
BRANCH  20  22
HETATM   22  C   UNL     1      -8.989  14.008  68.300  1.00  0.00    -0.190 C  
HETATM   23  C   UNL     1     -10.961  15.628  68.107  1.00  0.00    -0.314 C  
HETATM   24  C   UNL     1      -9.065  15.858  66.519  1.00  0.00    -0.320 C  
HETATM   25  H2  UNL     1      -8.264  12.578  66.960  1.00  0.00     0.000 HD 
HETATM   26  H1  UNL     1      -7.369  14.011  67.004  1.00  0.00     0.000 HD 
HETATM   27  C   UNL     1      -9.878  14.850  67.348  1.00  0.00    -0.221 C  
HETATM   28  N   UNL     1      -7.905  13.332  67.546  1.00  0.00    -0.163 NA 
ENDBRANCH  20  22
ENDBRANCH  19  20
ENDBRANCH  11  19
BRANCH  13  29
HETATM   29  C   UNL     1     -11.269  11.575  66.478  1.00  0.00    -0.324 C  
HETATM   30  C   UNL     1     -11.528  13.330  64.690  1.00  0.00    -0.373 C  
HETATM   31  C   UNL     1     -10.459  11.146  64.100  1.00  0.00    -0.442 C  
HETATM   32  C   UNL     1     -10.654  12.184  65.206  1.00  0.00    -0.319 C  
ENDBRANCH  13  29
ENDBRANCH   2   3
TORSDOF 6
ENDMDL
MODEL      126
REMARK 921   NORMALIZED FREE ENERGY PREDICTED BY IDOCK:   -3.41 KCAL/MOL
REMARK 922        TOTAL FREE ENERGY PREDICTED BY IDOCK:   -5.43 KCAL/MOL
REMARK 923 INTER-LIGAND FREE ENERGY PREDICTED BY IDOCK:   -4.73 KCAL/MOL
REMARK 924 INTRA-LIGAND FREE ENERGY PREDICTED BY IDOCK:   -0.70 KCAL/MOL
REMARK 927      BINDING AFFINITY PREDICTED BY RF-SCORE:    0.00 PKD
ROOT
HETATM    1  C   UNL     1     -10.905   7.466  73.139  1.00  0.00    -0.386 C  
HETATM    2  O   UNL     1     -11.387   6.908  71.922  1.00  0.00    -0.245 OA 
ENDROOT
BRANCH   2   3
HETATM    3  C   UNL     1     -10.685   7.209  70.783  1.00  0.00    -0.231 A  
HETATM    4  C   UNL     1      -9.683   6.439  70.176  1.00  0.00    -0.166 A  
HETATM    5  C   UNL     1      -9.105   6.905  68.994  1.00  0.00    -0.138 A  
HETATM    6  N   UNL     1      -9.540   9.665  66.406  1.00  0.00    -0.193 NA 
HETATM    7  C   UNL     1      -9.509   8.102  68.378  1.00  0.00    -0.146 A  
HETATM    8  C   UNL     1      -9.859  10.734  67.363  1.00  0.00    -0.177 C  
HETATM    9  C   UNL     1      -8.863   8.530  67.066  1.00  0.00    -0.133 C  
HETATM   10  C   UNL     1      -8.844   7.387  66.034  1.00  0.00    -0.173 C  
HETATM   11  C   UNL     1      -8.030   7.758  64.793  1.00  0.00    -0.142 C  
HETATM   12  C   UNL     1     -10.796  10.265  68.489  1.00  0.00    -0.281 C  
HETATM   13  C   UNL     1      -8.468   9.117  64.210  1.00  0.00    -0.200 C  
HETATM   14  C   UNL     1      -8.684  10.170  65.321  1.00  0.00    -0.165 C  
HETATM   15  C   UNL     1     -11.025   8.452  70.229  1.00  0.00    -0.236 A  
HETATM   16  C   UNL     1     -10.431   8.913  69.043  1.00  0.00    -0.231 A  
BRANCH   4  17
HETATM   17  O   UNL     1      -9.251   5.293  70.792  1.00  0.00    -0.145 OA 
HETATM   18  C   UNL     1      -9.606   4.064  70.167  1.00  0.00    -0.200 C  
ENDBRANCH   4  17
BRANCH  11  19
HETATM   19  O   UNL     1      -8.246   6.728  63.795  1.00  0.00    -0.042 OA 
BRANCH  19  20
HETATM   20  C   UNL     1      -7.251   5.820  63.582  1.00  0.00    -0.055 C  
HETATM   21  O   UNL     1      -6.178   6.085  63.045  1.00  0.00    -0.025 OA 
BRANCH  20  22
HETATM   22  C   UNL     1      -7.618   4.401  64.099  1.00  0.00    -0.071 C  
HETATM   23  C   UNL     1      -9.549   4.138  62.441  1.00  0.00    -0.126 C  
HETATM   24  C   UNL     1      -9.485   2.671  64.443  1.00  0.00    -0.145 C  
HETATM   25  H2  UNL     1      -7.616   4.981  66.107  1.00  0.00     0.000 HD 
HETATM   26  H1  UNL     1      -7.460   3.316  65.860  1.00  0.00     0.000 HD 
HETATM   27  C   UNL     1      -9.121   4.067  63.912  1.00  0.00    -0.139 C  
HETATM   28  N   UNL     1      -7.219   4.248  65.520  1.00  0.00    -0.067 NA 
ENDBRANCH  20  22
ENDBRANCH  19  20
ENDBRANCH  11  19
BRANCH  13  29
HETATM   29  C   UNL     1      -7.441   9.684  63.196  1.00  0.00    -0.114 C  
HETATM   30  C   UNL     1      -5.289  10.877  62.656  1.00  0.00    -0.179 C  
HETATM   31  C   UNL     1      -5.344   9.292  64.590  1.00  0.00    -0.053 C  
HETATM   32  C   UNL     1      -6.157  10.300  63.777  1.00  0.00    -0.127 C  
ENDBRANCH  13  29
ENDBRANCH   2   3
TORSDOF 6
ENDMDL
MODEL      127
REMARK 921   NORMALIZED FREE ENERGY PREDICTED BY IDOCK:   -3.41 KCAL/MOL
REMARK 922        TOTAL FREE ENERGY PREDICTED BY IDOCK:   -5.42 KCAL/MOL
REMARK 923 INTER-LIGAND FREE ENERGY PREDICTED BY IDOCK:   -6.06 KCAL/MOL
REMARK 924 INTRA-LIGAND FREE ENERGY PREDICTED BY IDOCK:    0.63 KCAL/MOL
REMARK 927      BINDING AFFINITY PREDICTED BY RF-SCORE:    0.00 PKD
ROOT
HETATM    1  C   UNL     1     -10.485  18.401  67.563  1.00  0.00    -0.419 C  
HETATM    2  O   UNL     1     -11.490  17.465  67.935  1.00  0.00     0.156 OA 
ENDROOT
BRANCH   2   3
HETATM    3  C   UNL     1     -11.109  16.150  68.019  1.00  0.00    -0.317 A  
HETATM    4  C   UNL     1     -10.814  15.424  69.182  1.00  0.00    -0.249 A  
HETATM    5  C   UNL     1     -10.473  14.076  69.061  1.00  0.00    -0.169 A  
HETATM    6  N   UNL     1     -10.338  11.308  66.448  1.00  0.00    -0.237 NA 
HETATM    7  C   UNL     1     -10.441  13.415  67.821  1.00  0.00    -0.246 A  
HETATM    8  C   UNL     1      -9.819  12.144  65.356  1.00  0.00    -0.211 C  
HETATM    9  C   UNL     1     -10.100  11.931  67.768  1.00  0.00    -0.191 C  
HETATM   10  C   UNL     1     -10.925  11.113  68.779  1.00  0.00    -0.268 C  
HETATM   11  C   UNL     1     -10.450   9.662  68.856  1.00  0.00    -0.215 C  
HETATM   12  C   UNL     1     -10.478  13.532  65.305  1.00  0.00    -0.345 C  
HETATM   13  C   UNL     1     -10.362   9.017  67.458  1.00  0.00    -0.328 C  
HETATM   14  C   UNL     1      -9.718   9.974  66.428  1.00  0.00    -0.210 C  
HETATM   15  C   UNL     1     -10.983  15.524  66.770  1.00  0.00    -0.257 A  
HETATM   16  C   UNL     1     -10.633  14.168  66.661  1.00  0.00    -0.278 A  
BRANCH   4  17
HETATM   17  O   UNL     1     -10.799  16.071  70.391  1.00  0.00    -0.323 OA 
HETATM   18  C   UNL     1     -10.627  15.255  71.544  1.00  0.00     0.533 C  
ENDBRANCH   4  17
BRANCH  11  19
HETATM   19  O   UNL     1     -11.408   8.921  69.654  1.00  0.00    -0.037 OA 
BRANCH  19  20
HETATM   20  C   UNL     1     -11.492   9.204  70.986  1.00  0.00    -0.306 C  
HETATM   21  O   UNL     1     -11.649  10.334  71.441  1.00  0.00    -0.317 OA 
BRANCH  20  22
HETATM   22  C   UNL     1     -11.369   7.936  71.874  1.00  0.00    -0.276 C  
HETATM   23  C   UNL     1      -8.834   8.180  72.128  1.00  0.00    -0.238 C  
HETATM   24  C   UNL     1      -9.877   5.977  72.607  1.00  0.00    -0.180 C  
HETATM   25  H2  UNL     1     -12.500   6.749  70.578  1.00  0.00     0.000 HD 
HETATM   26  H1  UNL     1     -12.384   6.148  72.153  1.00  0.00     0.000 HD 
HETATM   27  C   UNL     1      -9.987   7.244  71.742  1.00  0.00    -0.186 C  
HETATM   28  N   UNL     1     -12.464   6.982  71.570  1.00  0.00    -0.370 NA 
ENDBRANCH  20  22
ENDBRANCH  19  20
ENDBRANCH  11  19
BRANCH  13  29
HETATM   29  C   UNL     1      -9.549   7.695  67.467  1.00  0.00    -0.178 C  
HETATM   30  C   UNL     1      -8.200   5.917  66.300  1.00  0.00    -0.114 C  
HETATM   31  C   UNL     1      -7.895   8.307  65.627  1.00  0.00    -0.104 C  
HETATM   32  C   UNL     1      -8.896   7.271  66.140  1.00  0.00    -0.181 C  
ENDBRANCH  13  29
ENDBRANCH   2   3
TORSDOF 6
ENDMDL
MODEL      128
REMARK 921   NORMALIZED FREE ENERGY PREDICTED BY IDOCK:   -3.41 KCAL/MOL
REMARK 922        TOTAL FREE ENERGY PREDICTED BY IDOCK:   -5.42 KCAL/MOL
REMARK 923 INTER-LIGAND FREE ENERGY PREDICTED BY IDOCK:   -5.17 KCAL/MOL
REMARK 924 INTRA-LIGAND FREE ENERGY PREDICTED BY IDOCK:   -0.25 KCAL/MOL
REMARK 927      BINDING AFFINITY PREDICTED BY RF-SCORE:    0.00 PKD
ROOT
HETATM    1  C   UNL     1      -9.575   6.906  65.911  1.00  0.00     0.272 C  
HETATM    2  O   UNL     1     -10.277   7.859  66.701  1.00  0.00    -0.278 OA 
ENDROOT
BRANCH   2   3
HETATM    3  C   UNL     1      -9.719   9.107  66.806  1.00  0.00    -0.210 A  
HETATM    4  C   UNL     1      -9.843  10.171  65.901  1.00  0.00    -0.245 A  
HETATM    5  C   UNL     1      -9.220  11.383  66.205  1.00  0.00    -0.223 A  
HETATM    6  N   UNL     1      -7.362  13.093  69.055  1.00  0.00    -0.013 NA 
HETATM    7  C   UNL     1      -8.498  11.582  67.394  1.00  0.00    -0.147 A  
HETATM    8  C   UNL     1      -6.586  11.916  69.470  1.00  0.00    -0.093 C  
HETATM    9  C   UNL     1      -7.878  12.945  67.678  1.00  0.00    -0.168 C  
HETATM   10  C   UNL     1      -8.888  14.091  67.477  1.00  0.00    -0.199 C  
HETATM   11  C   UNL     1      -8.217  15.461  67.578  1.00  0.00    -0.169 C  
HETATM   12  C   UNL     1      -7.415  10.621  69.455  1.00  0.00    -0.135 C  
HETATM   13  C   UNL     1      -7.377  15.590  68.866  1.00  0.00    -0.150 C  
HETATM   14  C   UNL     1      -6.546  14.314  69.133  1.00  0.00    -0.114 C  
HETATM   15  C   UNL     1      -8.919   9.267  67.947  1.00  0.00    -0.130 A  
HETATM   16  C   UNL     1      -8.291  10.489  68.238  1.00  0.00    -0.122 A  
BRANCH   4  17
HETATM   17  O   UNL     1     -10.507   9.972  64.718  1.00  0.00     0.011 OA 
HETATM   18  C   UNL     1     -10.571  11.084  63.833  1.00  0.00    -0.312 C  
ENDBRANCH   4  17
BRANCH  11  19
HETATM   19  O   UNL     1      -9.261  16.468  67.597  1.00  0.00    -0.200 OA 
BRANCH  19  20
HETATM   20  C   UNL     1      -9.729  16.932  66.403  1.00  0.00    -0.284 C  
HETATM   21  O   UNL     1     -10.114  16.211  65.486  1.00  0.00    -0.435 OA 
BRANCH  20  22
HETATM   22  C   UNL     1      -9.726  18.484  66.324  1.00  0.00    -0.305 C  
HETATM   23  C   UNL     1      -7.171  18.623  66.278  1.00  0.00    -0.281 C  
HETATM   24  C   UNL     1      -8.467  20.649  66.895  1.00  0.00    -0.202 C  
HETATM   25  H2  UNL     1     -11.074  18.705  67.906  1.00  0.00     0.000 HD 
HETATM   26  H1  UNL     1     -10.951  20.056  66.897  1.00  0.00     0.000 HD 
HETATM   27  C   UNL     1      -8.456  19.113  66.957  1.00  0.00    -0.304 C  
HETATM   28  N   UNL     1     -10.953  19.037  66.949  1.00  0.00    -0.283 NA 
ENDBRANCH  20  22
ENDBRANCH  19  20
ENDBRANCH  11  19
BRANCH  13  29
HETATM   29  C   UNL     1      -6.409  16.801  68.821  1.00  0.00    -0.158 C  
HETATM   30  C   UNL     1      -5.128  18.655  69.946  1.00  0.00    -0.193 C  
HETATM   31  C   UNL     1      -5.317  16.441  71.095  1.00  0.00     0.007 C  
HETATM   32  C   UNL     1      -6.022  17.432  70.169  1.00  0.00    -0.113 C  
ENDBRANCH  13  29
ENDBRANCH   2   3
TORSDOF 6
ENDMDL
MODEL      129
REMARK 921   NORMALIZED FREE ENERGY PREDICTED BY IDOCK:   -3.33 KCAL/MOL
REMARK 922        TOTAL FREE ENERGY PREDICTED BY IDOCK:   -5.32 KCAL/MOL
REMARK 923 INTER-LIGAND FREE ENERGY PREDICTED BY IDOCK:   -4.85 KCAL/MOL
REMARK 924 INTRA-LIGAND FREE ENERGY PREDICTED BY IDOCK:   -0.47 KCAL/MOL
REMARK 927      BINDING AFFINITY PREDICTED BY RF-SCORE:    0.00 PKD
ROOT
HETATM    1  C   UNL     1      -9.291   2.493  71.528  1.00  0.00    -0.124 C  
HETATM    2  O   UNL     1      -8.058   2.837  70.904  1.00  0.00    -0.049 OA 
ENDROOT
BRANCH   2   3
HETATM    3  C   UNL     1      -7.978   4.083  70.337  1.00  0.00    -0.051 A  
HETATM    4  C   UNL     1      -7.845   4.389  68.976  1.00  0.00    -0.069 A  
HETATM    5  C   UNL     1      -7.813   5.731  68.592  1.00  0.00    -0.097 A  
HETATM    6  N   UNL     1      -8.315   9.213  70.053  1.00  0.00    -0.133 NA 
HETATM    7  C   UNL     1      -7.937   6.782  69.516  1.00  0.00    -0.125 A  
HETATM    8  C   UNL     1      -7.630   8.951  71.327  1.00  0.00    -0.103 C  
HETATM    9  C   UNL     1      -7.936   8.224  69.021  1.00  0.00    -0.112 C  
HETATM   10  C   UNL     1      -8.915   8.433  67.851  1.00  0.00    -0.138 C  
HETATM   11  C   UNL     1      -8.774   9.825  67.236  1.00  0.00    -0.132 C  
HETATM   12  C   UNL     1      -7.964   7.568  71.909  1.00  0.00    -0.100 C  
HETATM   13  C   UNL     1      -8.841  10.932  68.310  1.00  0.00    -0.140 C  
HETATM   14  C   UNL     1      -8.008  10.563  69.559  1.00  0.00    -0.109 C  
HETATM   15  C   UNL     1      -8.004   5.126  71.275  1.00  0.00    -0.108 A  
HETATM   16  C   UNL     1      -7.965   6.472  70.877  1.00  0.00    -0.111 A  
BRANCH   4  17
HETATM   17  O   UNL     1      -7.678   3.371  68.072  1.00  0.00    -0.064 OA 
HETATM   18  C   UNL     1      -6.376   2.802  67.993  1.00  0.00    -0.032 C  
ENDBRANCH   4  17
BRANCH  11  19
HETATM   19  O   UNL     1      -9.868  10.013  66.302  1.00  0.00    -0.208 OA 
BRANCH  19  20
HETATM   20  C   UNL     1      -9.581  10.018  64.968  1.00  0.00    -0.297 C  
HETATM   21  O   UNL     1      -9.139   9.050  64.355  1.00  0.00    -0.087 OA 
BRANCH  20  22
HETATM   22  C   UNL     1      -9.877  11.389  64.300  1.00  0.00    -0.261 C  
HETATM   23  C   UNL     1     -11.886  11.857  65.815  1.00  0.00    -0.109 C  
HETATM   24  C   UNL     1     -11.671  13.124  63.689  1.00  0.00    -0.505 C  
HETATM   25  H2  UNL     1      -9.785  10.620  62.359  1.00  0.00     0.000 HD 
HETATM   26  H1  UNL     1      -9.593  12.296  62.457  1.00  0.00     0.000 HD 
HETATM   27  C   UNL     1     -11.378  11.776  64.370  1.00  0.00    -0.373 C  
HETATM   28  N   UNL     1      -9.398  11.396  62.896  1.00  0.00    -0.362 NA 
ENDBRANCH  20  22
ENDBRANCH  19  20
ENDBRANCH  11  19
BRANCH  13  29
HETATM   29  C   UNL     1      -8.343  12.301  67.778  1.00  0.00    -0.162 C  
HETATM   30  C   UNL     1      -8.761  14.568  66.765  1.00  0.00    -0.214 C  
HETATM   31  C   UNL     1     -10.372  13.683  68.462  1.00  0.00    -0.244 C  
HETATM   32  C   UNL     1      -9.418  13.305  67.329  1.00  0.00    -0.233 C  
ENDBRANCH  13  29
ENDBRANCH   2   3
TORSDOF 6
ENDMDL
MODEL      130
REMARK 921   NORMALIZED FREE ENERGY PREDICTED BY IDOCK:   -3.31 KCAL/MOL
REMARK 922        TOTAL FREE ENERGY PREDICTED BY IDOCK:   -5.30 KCAL/MOL
REMARK 923 INTER-LIGAND FREE ENERGY PREDICTED BY IDOCK:   -6.78 KCAL/MOL
REMARK 924 INTRA-LIGAND FREE ENERGY PREDICTED BY IDOCK:    1.48 KCAL/MOL
REMARK 927      BINDING AFFINITY PREDICTED BY RF-SCORE:    0.00 PKD
ROOT
HETATM    1  C   UNL     1     -12.484  13.512  65.628  1.00  0.00    -0.479 C  
HETATM    2  O   UNL     1     -11.071  13.376  65.509  1.00  0.00    -0.282 OA 
ENDROOT
BRANCH   2   3
HETATM    3  C   UNL     1     -10.457  12.519  66.386  1.00  0.00    -0.247 A  
HETATM    4  C   UNL     1      -9.759  12.858  67.554  1.00  0.00    -0.205 A  
HETATM    5  C   UNL     1      -9.228  11.831  68.337  1.00  0.00    -0.175 A  
HETATM    6  N   UNL     1      -9.267   8.032  68.613  1.00  0.00    -0.143 NA 
HETATM    7  C   UNL     1      -9.392  10.473  68.012  1.00  0.00    -0.150 A  
HETATM    8  C   UNL     1      -9.193   7.766  67.169  1.00  0.00    -0.146 C  
HETATM    9  C   UNL     1      -8.820   9.404  68.935  1.00  0.00    -0.136 C  
HETATM   10  C   UNL     1      -9.210   9.644  70.405  1.00  0.00    -0.258 C  
HETATM   11  C   UNL     1      -8.483   8.684  71.348  1.00  0.00    -0.188 C  
HETATM   12  C   UNL     1     -10.076   8.716  66.343  1.00  0.00    -0.294 C  
HETATM   13  C   UNL     1      -8.636   7.217  70.894  1.00  0.00    -0.138 C  
HETATM   14  C   UNL     1      -8.448   7.071  69.367  1.00  0.00    -0.133 C  
HETATM   15  C   UNL     1     -10.540  11.173  66.003  1.00  0.00    -0.298 A  
HETATM   16  C   UNL     1      -9.996  10.149  66.796  1.00  0.00    -0.266 A  
BRANCH   4  17
HETATM   17  O   UNL     1      -9.556  14.180  67.855  1.00  0.00    -0.211 OA 
HETATM   18  C   UNL     1     -10.153  14.655  69.057  1.00  0.00    -0.209 C  
ENDBRANCH   4  17
BRANCH  11  19
HETATM   19  O   UNL     1      -9.067   8.828  72.668  1.00  0.00    -0.354 OA 
BRANCH  19  20
HETATM   20  C   UNL     1      -9.850   7.816  73.139  1.00  0.00    -0.298 C  
HETATM   21  O   UNL     1      -9.431   6.873  73.804  1.00  0.00    -0.168 OA 
BRANCH  20  22
HETATM   22  C   UNL     1     -11.344   7.986  72.746  1.00  0.00    -0.374 C  
HETATM   23  C   UNL     1     -11.753   5.462  72.636  1.00  0.00    -0.214 C  
HETATM   24  C   UNL     1     -13.350   6.982  71.493  1.00  0.00    -0.370 C  
HETATM   25  H2  UNL     1     -10.932   9.366  71.232  1.00  0.00     0.000 HD 
HETATM   26  H1  UNL     1     -12.531   9.385  71.778  1.00  0.00     0.000 HD 
HETATM   27  C   UNL     1     -11.877   6.801  71.898  1.00  0.00    -0.366 C  
HETATM   28  N   UNL     1     -11.550   9.273  72.037  1.00  0.00    -0.321 NA 
ENDBRANCH  20  22
ENDBRANCH  19  20
ENDBRANCH  11  19
BRANCH  13  29
HETATM   29  C   UNL     1      -7.628   6.272  71.601  1.00  0.00    -0.095 C  
HETATM   30  C   UNL     1      -7.016   4.055  72.626  1.00  0.00    -0.052 C  
HETATM   31  C   UNL     1      -8.437   4.088  70.567  1.00  0.00    -0.097 C  
HETATM   32  C   UNL     1      -8.092   4.829  71.860  1.00  0.00    -0.109 C  
ENDBRANCH  13  29
ENDBRANCH   2   3
TORSDOF 6
ENDMDL
MODEL      131
REMARK 921   NORMALIZED FREE ENERGY PREDICTED BY IDOCK:   -3.31 KCAL/MOL
REMARK 922        TOTAL FREE ENERGY PREDICTED BY IDOCK:   -5.28 KCAL/MOL
REMARK 923 INTER-LIGAND FREE ENERGY PREDICTED BY IDOCK:   -5.20 KCAL/MOL
REMARK 924 INTRA-LIGAND FREE ENERGY PREDICTED BY IDOCK:   -0.08 KCAL/MOL
REMARK 927      BINDING AFFINITY PREDICTED BY RF-SCORE:    0.00 PKD
ROOT
HETATM    1  C   UNL     1     -10.157   2.468  72.377  1.00  0.00    -0.162 C  
HETATM    2  O   UNL     1      -9.067   2.984  71.622  1.00  0.00    -0.087 OA 
ENDROOT
BRANCH   2   3
HETATM    3  C   UNL     1      -9.224   4.237  71.088  1.00  0.00    -0.139 A  
HETATM    4  C   UNL     1      -8.926   5.464  71.698  1.00  0.00    -0.136 A  
HETATM    5  C   UNL     1      -9.127   6.639  70.971  1.00  0.00    -0.156 A  
HETATM    6  N   UNL     1     -10.007   7.797  67.451  1.00  0.00    -0.176 NA 
HETATM    7  C   UNL     1      -9.592   6.634  69.645  1.00  0.00    -0.156 A  
HETATM    8  C   UNL     1     -11.024   6.767  67.194  1.00  0.00    -0.388 C  
HETATM    9  C   UNL     1      -9.749   7.954  68.899  1.00  0.00    -0.158 C  
HETATM   10  C   UNL     1      -8.492   8.835  69.013  1.00  0.00    -0.130 C  
HETATM   11  C   UNL     1      -8.721  10.229  68.427  1.00  0.00    -0.129 C  
HETATM   12  C   UNL     1     -10.611   5.380  67.713  1.00  0.00    -0.172 C  
HETATM   13  C   UNL     1      -9.303  10.157  67.000  1.00  0.00    -0.178 C  
HETATM   14  C   UNL     1     -10.421   9.094  66.894  1.00  0.00    -0.217 C  
HETATM   15  C   UNL     1      -9.780   4.229  69.800  1.00  0.00    -0.290 A  
HETATM   16  C   UNL     1      -9.985   5.419  69.082  1.00  0.00    -0.267 A  
BRANCH   4  17
HETATM   17  O   UNL     1      -8.515   5.480  73.006  1.00  0.00    -0.118 OA 
HETATM   18  C   UNL     1      -7.907   6.683  73.464  1.00  0.00    -0.092 C  
ENDBRANCH   4  17
BRANCH  11  19
HETATM   19  O   UNL     1      -7.439  10.907  68.376  1.00  0.00    -0.088 OA 
BRANCH  19  20
HETATM   20  C   UNL     1      -6.310  10.161  68.546  1.00  0.00    -0.048 C  
HETATM   21  O   UNL     1      -5.852   9.401  67.696  1.00  0.00    -0.044 OA 
BRANCH  20  22
HETATM   22  C   UNL     1      -5.656  10.378  69.938  1.00  0.00    -0.046 C  
HETATM   23  C   UNL     1      -5.270   7.875  70.309  1.00  0.00    -0.023 C  
HETATM   24  C   UNL     1      -5.226   9.396  72.273  1.00  0.00    -0.077 C  
HETATM   25  H2  UNL     1      -7.181  11.636  70.614  1.00  0.00     0.000 HD 
HETATM   26  H1  UNL     1      -5.733  11.768  71.475  1.00  0.00     0.000 HD 
HETATM   27  C   UNL     1      -5.857   9.169  70.889  1.00  0.00    -0.046 C  
HETATM   28  N   UNL     1      -6.163  11.626  70.561  1.00  0.00    -0.274 NA 
ENDBRANCH  20  22
ENDBRANCH  19  20
ENDBRANCH  11  19
BRANCH  13  29
HETATM   29  C   UNL     1      -9.880  11.518  66.529  1.00  0.00    -0.228 C  
HETATM   30  C   UNL     1     -11.767  13.174  66.332  1.00  0.00    -0.429 C  
HETATM   31  C   UNL     1     -11.511  11.874  68.454  1.00  0.00    -0.357 C  
HETATM   32  C   UNL     1     -11.328  11.838  66.936  1.00  0.00    -0.386 C  
ENDBRANCH  13  29
ENDBRANCH   2   3
TORSDOF 6
ENDMDL
MODEL      132
REMARK 921   NORMALIZED FREE ENERGY PREDICTED BY IDOCK:   -3.30 KCAL/MOL
REMARK 922        TOTAL FREE ENERGY PREDICTED BY IDOCK:   -5.27 KCAL/MOL
REMARK 923 INTER-LIGAND FREE ENERGY PREDICTED BY IDOCK:   -4.25 KCAL/MOL
REMARK 924 INTRA-LIGAND FREE ENERGY PREDICTED BY IDOCK:   -1.02 KCAL/MOL
REMARK 927      BINDING AFFINITY PREDICTED BY RF-SCORE:    0.00 PKD
ROOT
HETATM    1  C   UNL     1      -8.604   1.858  74.520  1.00  0.00    -0.057 C  
HETATM    2  O   UNL     1      -9.493   2.182  73.456  1.00  0.00    -0.078 OA 
ENDROOT
BRANCH   2   3
HETATM    3  C   UNL     1      -9.277   3.373  72.812  1.00  0.00    -0.092 A  
HETATM    4  C   UNL     1      -8.292   3.654  71.855  1.00  0.00    -0.078 A  
HETATM    5  C   UNL     1      -8.255   4.928  71.286  1.00  0.00    -0.110 A  
HETATM    6  N   UNL     1     -10.279   8.153  71.183  1.00  0.00    -0.192 NA 
HETATM    7  C   UNL     1      -9.185   5.928  71.619  1.00  0.00    -0.156 A  
HETATM    8  C   UNL     1     -10.647   8.156  72.606  1.00  0.00    -0.344 C  
HETATM    9  C   UNL     1      -9.110   7.285  70.928  1.00  0.00    -0.151 C  
HETATM   10  C   UNL     1      -9.009   7.148  69.398  1.00  0.00    -0.136 C  
HETATM   11  C   UNL     1      -8.744   8.495  68.724  1.00  0.00    -0.139 C  
HETATM   12  C   UNL     1     -11.023   6.759  73.127  1.00  0.00    -0.279 C  
HETATM   13  C   UNL     1      -9.749   9.570  69.188  1.00  0.00    -0.178 C  
HETATM   14  C   UNL     1      -9.977   9.515  70.716  1.00  0.00    -0.264 C  
HETATM   15  C   UNL     1     -10.147   4.395  73.221  1.00  0.00    -0.201 A  
HETATM   16  C   UNL     1     -10.096   5.675  72.646  1.00  0.00    -0.208 A  
BRANCH   4  17
HETATM   17  O   UNL     1      -7.354   2.699  71.558  1.00  0.00    -0.038 OA 
HETATM   18  C   UNL     1      -5.992   3.110  71.613  1.00  0.00    -0.014 C  
ENDBRANCH   4  17
BRANCH  11  19
HETATM   19  O   UNL     1      -8.882   8.312  67.292  1.00  0.00    -0.128 OA 
BRANCH  19  20
HETATM   20  C   UNL     1      -7.839   7.756  66.611  1.00  0.00    -0.102 C  
HETATM   21  O   UNL     1      -6.713   8.245  66.557  1.00  0.00    -0.061 OA 
BRANCH  20  22
HETATM   22  C   UNL     1      -8.226   6.426  65.908  1.00  0.00    -0.130 C  
HETATM   23  C   UNL     1      -6.911   4.994  67.571  1.00  0.00    -0.061 C  
HETATM   24  C   UNL     1      -7.534   4.010  65.378  1.00  0.00    -0.081 C  
HETATM   25  H2  UNL     1      -7.713   7.121  64.005  1.00  0.00     0.000 HD 
HETATM   26  H1  UNL     1      -8.751   5.787  64.006  1.00  0.00     0.000 HD 
HETATM   27  C   UNL     1      -7.156   5.318  66.092  1.00  0.00    -0.072 C  
HETATM   28  N   UNL     1      -8.497   6.661  64.468  1.00  0.00     0.071 NA 
ENDBRANCH  20  22
ENDBRANCH  19  20
ENDBRANCH  11  19
BRANCH  13  29
HETATM   29  C   UNL     1      -9.293  11.005  68.815  1.00  0.00    -0.185 C  
HETATM   30  C   UNL     1      -9.328  13.016  67.300  1.00  0.00    -0.220 C  
HETATM   31  C   UNL     1     -11.456  11.766  67.704  1.00  0.00    -0.370 C  
HETATM   32  C   UNL     1      -9.938  11.639  67.571  1.00  0.00    -0.202 C  
ENDBRANCH  13  29
ENDBRANCH   2   3
TORSDOF 6
ENDMDL
MODEL      133
REMARK 921   NORMALIZED FREE ENERGY PREDICTED BY IDOCK:   -3.29 KCAL/MOL
REMARK 922        TOTAL FREE ENERGY PREDICTED BY IDOCK:   -5.27 KCAL/MOL
REMARK 923 INTER-LIGAND FREE ENERGY PREDICTED BY IDOCK:   -4.86 KCAL/MOL
REMARK 924 INTRA-LIGAND FREE ENERGY PREDICTED BY IDOCK:   -0.41 KCAL/MOL
REMARK 927      BINDING AFFINITY PREDICTED BY RF-SCORE:    0.00 PKD
ROOT
HETATM    1  C   UNL     1      -8.295  18.912  66.368  1.00  0.00    -0.296 C  
HETATM    2  O   UNL     1      -7.984  17.692  65.704  1.00  0.00    -0.529 OA 
ENDROOT
BRANCH   2   3
HETATM    3  C   UNL     1      -8.018  16.550  66.461  1.00  0.00    -0.310 A  
HETATM    4  C   UNL     1      -9.142  15.769  66.768  1.00  0.00    -0.249 A  
HETATM    5  C   UNL     1      -8.965  14.615  67.534  1.00  0.00    -0.193 A  
HETATM    6  N   UNL     1      -6.184  12.451  68.980  1.00  0.00    -0.076 NA 
HETATM    7  C   UNL     1      -7.701  14.195  67.984  1.00  0.00    -0.147 A  
HETATM    8  C   UNL     1      -5.311  13.562  69.385  1.00  0.00    -0.083 C  
HETATM    9  C   UNL     1      -7.578  12.902  68.781  1.00  0.00    -0.025 C  
HETATM   10  C   UNL     1      -8.309  11.732  68.098  1.00  0.00    -0.156 C  
HETATM   11  C   UNL     1      -8.344  10.488  68.988  1.00  0.00    -0.154 C  
HETATM   12  C   UNL     1      -5.257  14.688  68.339  1.00  0.00    -0.105 C  
HETATM   13  C   UNL     1      -6.940  10.124  69.512  1.00  0.00    -0.086 C  
HETATM   14  C   UNL     1      -6.166  11.376  69.984  1.00  0.00    -0.148 C  
HETATM   15  C   UNL     1      -6.769  16.191  66.988  1.00  0.00    -0.183 A  
HETATM   16  C   UNL     1      -6.605  15.031  67.763  1.00  0.00    -0.189 A  
BRANCH   4  17
HETATM   17  O   UNL     1     -10.383  16.195  66.373  1.00  0.00    -0.296 OA 
HETATM   18  C   UNL     1     -10.889  15.636  65.165  1.00  0.00    -0.431 C  
ENDBRANCH   4  17
BRANCH  11  19
HETATM   19  O   UNL     1      -8.848   9.385  68.192  1.00  0.00    -0.124 OA 
BRANCH  19  20
HETATM   20  C   UNL     1      -8.894   9.537  66.838  1.00  0.00    -0.127 C  
HETATM   21  O   UNL     1      -9.706  10.247  66.251  1.00  0.00    -0.189 OA 
BRANCH  20  22
HETATM   22  C   UNL     1      -7.797   8.714  66.108  1.00  0.00    -0.098 C  
HETATM   23  C   UNL     1      -6.182  10.696  65.988  1.00  0.00    -0.134 C  
HETATM   24  C   UNL     1      -5.824   8.769  64.463  1.00  0.00    -0.065 C  
HETATM   25  H2  UNL     1      -9.122   7.948  64.685  1.00  0.00     0.000 HD 
HETATM   26  H1  UNL     1      -7.689   7.068  64.851  1.00  0.00     0.000 HD 
HETATM   27  C   UNL     1      -6.896   9.591  65.199  1.00  0.00    -0.092 C  
HETATM   28  N   UNL     1      -8.409   7.608  65.330  1.00  0.00    -0.138 NA 
ENDBRANCH  20  22
ENDBRANCH  19  20
ENDBRANCH  11  19
BRANCH  13  29
HETATM   29  C   UNL     1      -6.992   9.113  70.687  1.00  0.00    -0.090 C  
HETATM   30  C   UNL     1      -7.041   6.759  71.582  1.00  0.00    -0.076 C  
HETATM   31  C   UNL     1      -5.593   7.276  69.608  1.00  0.00    -0.023 C  
HETATM   32  C   UNL     1      -6.899   7.621  70.324  1.00  0.00    -0.047 C  
ENDBRANCH  13  29
ENDBRANCH   2   3
TORSDOF 6
ENDMDL
MODEL      134
REMARK 921   NORMALIZED FREE ENERGY PREDICTED BY IDOCK:   -3.28 KCAL/MOL
REMARK 922        TOTAL FREE ENERGY PREDICTED BY IDOCK:   -5.24 KCAL/MOL
REMARK 923 INTER-LIGAND FREE ENERGY PREDICTED BY IDOCK:   -6.75 KCAL/MOL
REMARK 924 INTRA-LIGAND FREE ENERGY PREDICTED BY IDOCK:    1.50 KCAL/MOL
REMARK 927      BINDING AFFINITY PREDICTED BY RF-SCORE:    0.00 PKD
ROOT
HETATM    1  C   UNL     1      -6.576  19.922  69.446  1.00  0.00    -0.340 C  
HETATM    2  O   UNL     1      -5.747  18.770  69.330  1.00  0.00    -0.209 OA 
ENDROOT
BRANCH   2   3
HETATM    3  C   UNL     1      -6.383  17.566  69.167  1.00  0.00    -0.235 A  
HETATM    4  C   UNL     1      -7.679  17.351  68.678  1.00  0.00    -0.273 A  
HETATM    5  C   UNL     1      -8.138  16.038  68.555  1.00  0.00    -0.169 A  
HETATM    6  N   UNL     1      -6.878  12.453  68.823  1.00  0.00    -0.088 NA 
HETATM    7  C   UNL     1      -7.339  14.927  68.878  1.00  0.00    -0.136 A  
HETATM    8  C   UNL     1      -6.030  12.670  70.003  1.00  0.00    -0.145 C  
HETATM    9  C   UNL     1      -7.891  13.520  68.680  1.00  0.00    -0.084 C  
HETATM   10  C   UNL     1      -8.510  13.335  67.283  1.00  0.00    -0.203 C  
HETATM   11  C   UNL     1      -9.229  11.991  67.154  1.00  0.00    -0.190 C  
HETATM   12  C   UNL     1      -5.256  13.997  69.945  1.00  0.00    -0.093 C  
HETATM   13  C   UNL     1      -8.327  10.820  67.596  1.00  0.00    -0.119 C  
HETATM   14  C   UNL     1      -7.559  11.152  68.897  1.00  0.00    -0.133 C  
HETATM   15  C   UNL     1      -5.616  16.469  69.584  1.00  0.00    -0.165 A  
HETATM   16  C   UNL     1      -6.091  15.152  69.462  1.00  0.00    -0.119 A  
BRANCH   4  17
HETATM   17  O   UNL     1      -8.481  18.429  68.403  1.00  0.00    -0.310 OA 
HETATM   18  C   UNL     1      -9.878  18.247  68.607  1.00  0.00    -0.380 C  
ENDBRANCH   4  17
BRANCH  11  19
HETATM   19  O   UNL     1      -9.585  11.808  65.760  1.00  0.00    -0.233 OA 
BRANCH  19  20
HETATM   20  C   UNL     1     -10.623  12.538  65.261  1.00  0.00    -0.290 C  
HETATM   21  O   UNL     1     -10.700  12.918  64.095  1.00  0.00    -0.376 OA 
BRANCH  20  22
HETATM   22  C   UNL     1     -11.709  12.839  66.330  1.00  0.00    -0.402 C  
HETATM   23  C   UNL     1     -11.134  15.331  66.424  1.00  0.00    -0.273 C  
HETATM   24  C   UNL     1     -12.409  14.327  68.304  1.00  0.00    -0.024 C  
HETATM   25  H2  UNL     1     -11.127  11.260  67.568  1.00  0.00     0.000 HD 
HETATM   26  H1  UNL     1     -12.692  11.830  67.852  1.00  0.00     0.000 HD 
HETATM   27  C   UNL     1     -11.340  14.045  67.234  1.00  0.00    -0.350 C  
HETATM   28  N   UNL     1     -11.979  11.632  67.149  1.00  0.00    -0.574 NA 
ENDBRANCH  20  22
ENDBRANCH  19  20
ENDBRANCH  11  19
BRANCH  13  29
HETATM   29  C   UNL     1      -9.128   9.511  67.825  1.00  0.00    -0.133 C  
HETATM   30  C   UNL     1     -10.217   7.405  66.975  1.00  0.00    -0.357 C  
HETATM   31  C   UNL     1      -8.035   8.126  65.986  1.00  0.00    -0.100 C  
HETATM   32  C   UNL     1      -9.350   8.610  66.598  1.00  0.00    -0.246 C  
ENDBRANCH  13  29
ENDBRANCH   2   3
TORSDOF 6
ENDMDL
MODEL      135
REMARK 921   NORMALIZED FREE ENERGY PREDICTED BY IDOCK:   -3.27 KCAL/MOL
REMARK 922        TOTAL FREE ENERGY PREDICTED BY IDOCK:   -5.24 KCAL/MOL
REMARK 923 INTER-LIGAND FREE ENERGY PREDICTED BY IDOCK:   -5.05 KCAL/MOL
REMARK 924 INTRA-LIGAND FREE ENERGY PREDICTED BY IDOCK:   -0.20 KCAL/MOL
REMARK 927      BINDING AFFINITY PREDICTED BY RF-SCORE:    0.00 PKD
ROOT
HETATM    1  C   UNL     1      -7.370  14.225  68.124  1.00  0.00    -0.128 C  
HETATM    2  O   UNL     1      -6.860  13.318  69.096  1.00  0.00    -0.105 OA 
ENDROOT
BRANCH   2   3
HETATM    3  C   UNL     1      -7.084  11.984  68.874  1.00  0.00    -0.104 A  
HETATM    4  C   UNL     1      -6.695  10.911  69.688  1.00  0.00    -0.131 A  
HETATM    5  C   UNL     1      -7.048   9.616  69.303  1.00  0.00    -0.063 A  
HETATM    6  N   UNL     1      -9.171   7.803  66.712  1.00  0.00    -0.154 NA 
HETATM    7  C   UNL     1      -7.800   9.353  68.145  1.00  0.00    -0.087 A  
HETATM    8  C   UNL     1      -8.825   8.677  65.582  1.00  0.00    -0.187 C  
HETATM    9  C   UNL     1      -8.185   7.917  67.808  1.00  0.00    -0.129 C  
HETATM   10  C   UNL     1      -8.802   7.187  69.014  1.00  0.00    -0.131 C  
HETATM   11  C   UNL     1      -9.012   5.699  68.730  1.00  0.00    -0.115 C  
HETATM   12  C   UNL     1      -8.781  10.163  65.971  1.00  0.00    -0.153 C  
HETATM   13  C   UNL     1      -9.775   5.474  67.408  1.00  0.00    -0.147 C  
HETATM   14  C   UNL     1      -9.251   6.398  66.284  1.00  0.00    -0.139 C  
HETATM   15  C   UNL     1      -7.750  11.722  67.667  1.00  0.00    -0.137 A  
HETATM   16  C   UNL     1      -8.093  10.414  67.287  1.00  0.00    -0.114 A  
BRANCH   4  17
HETATM   17  O   UNL     1      -5.923  11.154  70.795  1.00  0.00    -0.304 OA 
HETATM   18  C   UNL     1      -5.604  10.027  71.605  1.00  0.00     0.034 C  
ENDBRANCH   4  17
BRANCH  11  19
HETATM   19  O   UNL     1      -9.789   5.142  69.820  1.00  0.00    -0.172 OA 
BRANCH  19  20
HETATM   20  C   UNL     1     -10.875   5.842  70.258  1.00  0.00    -0.303 C  
HETATM   21  O   UNL     1     -11.697   6.374  69.517  1.00  0.00    -0.366 OA 
BRANCH  20  22
HETATM   22  C   UNL     1     -10.966   5.892  71.808  1.00  0.00    -0.269 C  
HETATM   23  C   UNL     1     -10.969   8.451  71.870  1.00  0.00    -0.375 C  
HETATM   24  C   UNL     1     -10.390   7.206  73.940  1.00  0.00    -0.339 C  
HETATM   25  H2  UNL     1      -9.409   4.525  72.083  1.00  0.00     0.000 HD 
HETATM   26  H1  UNL     1     -10.426   4.706  73.421  1.00  0.00     0.000 HD 
HETATM   27  C   UNL     1     -10.316   7.169  72.404  1.00  0.00    -0.228 C  
HETATM   28  N   UNL     1     -10.366   4.672  72.403  1.00  0.00    -0.198 NA 
ENDBRANCH  20  22
ENDBRANCH  19  20
ENDBRANCH  11  19
BRANCH  13  29
HETATM   29  C   UNL     1      -9.682   4.006  66.914  1.00  0.00    -0.215 C  
HETATM   30  C   UNL     1      -8.569   2.187  65.574  1.00  0.00    -0.112 C  
HETATM   31  C   UNL     1      -7.142   3.867  66.757  1.00  0.00    -0.063 C  
HETATM   32  C   UNL     1      -8.472   3.644  66.037  1.00  0.00    -0.111 C  
ENDBRANCH  13  29
ENDBRANCH   2   3
TORSDOF 6
ENDMDL
MODEL      136
REMARK 921   NORMALIZED FREE ENERGY PREDICTED BY IDOCK:   -3.27 KCAL/MOL
REMARK 922        TOTAL FREE ENERGY PREDICTED BY IDOCK:   -5.23 KCAL/MOL
REMARK 923 INTER-LIGAND FREE ENERGY PREDICTED BY IDOCK:   -5.45 KCAL/MOL
REMARK 924 INTRA-LIGAND FREE ENERGY PREDICTED BY IDOCK:    0.22 KCAL/MOL
REMARK 927      BINDING AFFINITY PREDICTED BY RF-SCORE:    0.00 PKD
ROOT
HETATM    1  C   UNL     1      -9.045   6.334  66.150  1.00  0.00    -0.138 C  
HETATM    2  O   UNL     1      -8.977   6.846  67.476  1.00  0.00    -0.118 OA 
ENDROOT
BRANCH   2   3
HETATM    3  C   UNL     1      -9.307   8.166  67.646  1.00  0.00    -0.140 A  
HETATM    4  C   UNL     1      -9.507   8.842  68.859  1.00  0.00    -0.145 A  
HETATM    5  C   UNL     1      -9.807  10.205  68.823  1.00  0.00    -0.180 A  
HETATM    6  N   UNL     1     -10.001  13.103  66.361  1.00  0.00    -0.276 NA 
HETATM    7  C   UNL     1      -9.890  10.927  67.621  1.00  0.00    -0.192 A  
HETATM    8  C   UNL     1     -10.612  12.340  65.263  1.00  0.00    -0.287 C  
HETATM    9  C   UNL     1     -10.182  12.423  67.661  1.00  0.00    -0.207 C  
HETATM   10  C   UNL     1      -9.270  13.162  68.658  1.00  0.00     0.026 C  
HETATM   11  C   UNL     1      -9.690  14.622  68.834  1.00  0.00    -0.196 C  
HETATM   12  C   UNL     1     -10.006  10.936  65.105  1.00  0.00    -0.341 C  
HETATM   13  C   UNL     1      -9.838  15.339  67.476  1.00  0.00    -0.213 C  
HETATM   14  C   UNL     1     -10.574  14.455  66.443  1.00  0.00    -0.297 C  
HETATM   15  C   UNL     1      -9.484   8.858  66.439  1.00  0.00    -0.283 A  
HETATM   16  C   UNL     1      -9.793  10.228  66.417  1.00  0.00    -0.272 A  
BRANCH   4  17
HETATM   17  O   UNL     1      -9.473   8.136  70.034  1.00  0.00    -0.166 OA 
HETATM   18  C   UNL     1      -9.122   8.868  71.203  1.00  0.00    -0.249 C  
ENDBRANCH   4  17
BRANCH  11  19
HETATM   19  O   UNL     1      -8.661  15.291  69.607  1.00  0.00    -0.237 OA 
BRANCH  19  20
HETATM   20  C   UNL     1      -7.443  15.486  69.024  1.00  0.00    -0.171 C  
HETATM   21  O   UNL     1      -7.245  16.247  68.081  1.00  0.00    -0.136 OA 
BRANCH  20  22
HETATM   22  C   UNL     1      -6.322  14.639  69.687  1.00  0.00    -0.142 C  
HETATM   23  C   UNL     1      -6.347  12.882  67.827  1.00  0.00    -0.144 C  
HETATM   24  C   UNL     1      -5.327  12.293  70.013  1.00  0.00    -0.099 C  
HETATM   25  H2  UNL     1      -7.237  14.646  71.566  1.00  0.00     0.000 HD 
HETATM   26  H1  UNL     1      -5.587  14.282  71.593  1.00  0.00     0.000 HD 
HETATM   27  C   UNL     1      -6.426  13.130  69.338  1.00  0.00    -0.095 C  
HETATM   28  N   UNL     1      -6.323  14.838  71.158  1.00  0.00     0.160 NA 
ENDBRANCH  20  22
ENDBRANCH  19  20
ENDBRANCH  11  19
BRANCH  13  29
HETATM   29  C   UNL     1     -10.603  16.683  67.599  1.00  0.00    -0.321 C  
HETATM   30  C   UNL     1     -10.706  19.195  67.436  1.00  0.00    -0.578 C  
HETATM   31  C   UNL     1      -9.405  17.921  65.720  1.00  0.00     0.294 C  
HETATM   32  C   UNL     1      -9.843  17.955  67.185  1.00  0.00    -0.308 C  
ENDBRANCH  13  29
ENDBRANCH   2   3
TORSDOF 6
ENDMDL
MODEL      137
REMARK 921   NORMALIZED FREE ENERGY PREDICTED BY IDOCK:   -3.27 KCAL/MOL
REMARK 922        TOTAL FREE ENERGY PREDICTED BY IDOCK:   -5.23 KCAL/MOL
REMARK 923 INTER-LIGAND FREE ENERGY PREDICTED BY IDOCK:   -5.95 KCAL/MOL
REMARK 924 INTRA-LIGAND FREE ENERGY PREDICTED BY IDOCK:    0.72 KCAL/MOL
REMARK 927      BINDING AFFINITY PREDICTED BY RF-SCORE:    0.00 PKD
ROOT
HETATM    1  C   UNL     1      -8.527   3.848  69.883  1.00  0.00    -0.060 C  
HETATM    2  O   UNL     1      -9.211   4.906  70.546  1.00  0.00    -0.130 OA 
ENDROOT
BRANCH   2   3
HETATM    3  C   UNL     1      -9.534   6.003  69.791  1.00  0.00    -0.149 A  
HETATM    4  C   UNL     1     -10.472   6.999  70.098  1.00  0.00    -0.214 A  
HETATM    5  C   UNL     1     -10.635   8.062  69.208  1.00  0.00    -0.193 A  
HETATM    6  N   UNL     1      -9.059   9.523  66.063  1.00  0.00    -0.164 NA 
HETATM    7  C   UNL     1      -9.875   8.183  68.032  1.00  0.00    -0.200 A  
HETATM    8  C   UNL     1      -8.804   8.237  65.400  1.00  0.00    -0.073 C  
HETATM    9  C   UNL     1     -10.078   9.393  67.126  1.00  0.00    -0.231 C  
HETATM   10  C   UNL     1     -10.042  10.715  67.915  1.00  0.00    -0.194 C  
HETATM   11  C   UNL     1     -10.432  11.907  67.039  1.00  0.00    -0.224 C  
HETATM   12  C   UNL     1      -8.286   7.160  66.367  1.00  0.00    -0.125 C  
HETATM   13  C   UNL     1      -9.618  11.941  65.729  1.00  0.00    -0.241 C  
HETATM   14  C   UNL     1      -9.503  10.536  65.094  1.00  0.00    -0.233 C  
HETATM   15  C   UNL     1      -8.843   6.065  68.572  1.00  0.00    -0.112 A  
HETATM   16  C   UNL     1      -9.021   7.137  67.681  1.00  0.00    -0.125 A  
BRANCH   4  17
HETATM   17  O   UNL     1     -11.248   6.866  71.220  1.00  0.00    -0.249 OA 
HETATM   18  C   UNL     1     -12.003   8.009  71.607  1.00  0.00    -0.298 C  
ENDBRANCH   4  17
BRANCH  11  19
HETATM   19  O   UNL     1     -10.161  13.119  67.790  1.00  0.00    -0.217 OA 
BRANCH  19  20
HETATM   20  C   UNL     1      -8.875  13.571  67.837  1.00  0.00    -0.190 C  
HETATM   21  O   UNL     1      -7.887  12.844  67.793  1.00  0.00    -0.131 OA 
BRANCH  20  22
HETATM   22  C   UNL     1      -8.792  15.119  67.951  1.00  0.00    -0.166 C  
HETATM   23  C   UNL     1     -10.539  15.221  69.819  1.00  0.00    -0.293 C  
HETATM   24  C   UNL     1     -10.039  17.288  68.535  1.00  0.00    -0.341 C  
HETATM   25  H2  UNL     1      -8.981  15.419  65.892  1.00  0.00     0.000 HD 
HETATM   26  H1  UNL     1      -8.319  16.728  66.732  1.00  0.00     0.000 HD 
HETATM   27  C   UNL     1     -10.119  15.755  68.443  1.00  0.00    -0.222 C  
HETATM   28  N   UNL     1      -8.374  15.712  66.657  1.00  0.00    -0.274 NA 
ENDBRANCH  20  22
ENDBRANCH  19  20
ENDBRANCH  11  19
BRANCH  13  29
HETATM   29  C   UNL     1     -10.233  12.902  64.677  1.00  0.00    -0.321 C  
HETATM   30  C   UNL     1     -12.097  13.592  63.130  1.00  0.00    -0.024 C  
HETATM   31  C   UNL     1     -12.670  12.645  65.374  1.00  0.00    -0.113 C  
HETATM   32  C   UNL     1     -11.670  12.602  64.218  1.00  0.00    -0.446 C  
ENDBRANCH  13  29
ENDBRANCH   2   3
TORSDOF 6
ENDMDL
MODEL      138
REMARK 921   NORMALIZED FREE ENERGY PREDICTED BY IDOCK:   -3.22 KCAL/MOL
REMARK 922        TOTAL FREE ENERGY PREDICTED BY IDOCK:   -5.17 KCAL/MOL
REMARK 923 INTER-LIGAND FREE ENERGY PREDICTED BY IDOCK:   -5.68 KCAL/MOL
REMARK 924 INTRA-LIGAND FREE ENERGY PREDICTED BY IDOCK:    0.50 KCAL/MOL
REMARK 927      BINDING AFFINITY PREDICTED BY RF-SCORE:    0.00 PKD
ROOT
HETATM    1  C   UNL     1      -5.858  17.064  69.929  1.00  0.00    -0.228 C  
HETATM    2  O   UNL     1      -7.043  17.074  69.140  1.00  0.00    -0.236 OA 
ENDROOT
BRANCH   2   3
HETATM    3  C   UNL     1      -7.624  15.860  68.882  1.00  0.00    -0.190 A  
HETATM    4  C   UNL     1      -8.879  15.626  68.301  1.00  0.00    -0.180 A  
HETATM    5  C   UNL     1      -9.283  14.306  68.091  1.00  0.00    -0.202 A  
HETATM    6  N   UNL     1      -7.920  10.755  68.283  1.00  0.00    -0.113 NA 
HETATM    7  C   UNL     1      -8.469  13.208  68.416  1.00  0.00    -0.126 A  
HETATM    8  C   UNL     1      -7.157  10.943  69.524  1.00  0.00    -0.123 C  
HETATM    9  C   UNL     1      -8.959  11.795  68.121  1.00  0.00    -0.181 C  
HETATM   10  C   UNL     1      -9.481  11.655  66.680  1.00  0.00    -0.213 C  
HETATM   11  C   UNL     1     -10.142  10.296  66.446  1.00  0.00    -0.234 C  
HETATM   12  C   UNL     1      -6.427  12.295  69.575  1.00  0.00    -0.094 C  
HETATM   13  C   UNL     1      -9.231   9.135  66.894  1.00  0.00    -0.183 C  
HETATM   14  C   UNL     1      -8.559   9.430  68.255  1.00  0.00    -0.120 C  
HETATM   15  C   UNL     1      -6.848  14.768  69.300  1.00  0.00    -0.144 A  
HETATM   16  C   UNL     1      -7.269  13.445  69.089  1.00  0.00     0.041 A  
BRANCH   4  17
HETATM   17  O   UNL     1      -9.698  16.689  68.022  1.00  0.00    -0.234 OA 
HETATM   18  C   UNL     1     -11.070  16.542  68.374  1.00  0.00    -0.333 C  
ENDBRANCH   4  17
BRANCH  11  19
HETATM   19  O   UNL     1     -10.403  10.166  65.025  1.00  0.00    -0.246 OA 
BRANCH  19  20
HETATM   20  C   UNL     1      -9.999  11.176  64.202  1.00  0.00    -0.316 C  
HETATM   21  O   UNL     1      -9.143  11.054  63.330  1.00  0.00    -0.225 OA 
BRANCH  20  22
HETATM   22  C   UNL     1     -10.745  12.509  64.485  1.00  0.00    -0.330 C  
HETATM   23  C   UNL     1     -12.950  11.652  63.508  1.00  0.00    -0.068 C  
HETATM   24  C   UNL     1     -12.624  14.102  63.755  1.00  0.00     0.169 C  
HETATM   25  H2  UNL     1      -9.246  13.690  63.634  1.00  0.00     0.000 HD 
HETATM   26  H1  UNL     1     -10.281  14.521  64.680  1.00  0.00     0.000 HD 
HETATM   27  C   UNL     1     -11.901  12.771  63.484  1.00  0.00    -0.618 C  
HETATM   28  N   UNL     1      -9.791  13.645  64.494  1.00  0.00    -0.062 NA 
ENDBRANCH  20  22
ENDBRANCH  19  20
ENDBRANCH  11  19
BRANCH  13  29
HETATM   29  C   UNL     1      -9.999   7.792  67.012  1.00  0.00    -0.314 C  
HETATM   30  C   UNL     1     -10.295   5.354  66.455  1.00  0.00    -0.320 C  
HETATM   31  C   UNL     1      -7.986   6.239  66.838  1.00  0.00    -0.109 C  
HETATM   32  C   UNL     1      -9.381   6.573  66.307  1.00  0.00    -0.144 C  
ENDBRANCH  13  29
ENDBRANCH   2   3
TORSDOF 6
ENDMDL
MODEL      139
REMARK 921   NORMALIZED FREE ENERGY PREDICTED BY IDOCK:   -3.22 KCAL/MOL
REMARK 922        TOTAL FREE ENERGY PREDICTED BY IDOCK:   -5.16 KCAL/MOL
REMARK 923 INTER-LIGAND FREE ENERGY PREDICTED BY IDOCK:   -5.85 KCAL/MOL
REMARK 924 INTRA-LIGAND FREE ENERGY PREDICTED BY IDOCK:    0.69 KCAL/MOL
REMARK 927      BINDING AFFINITY PREDICTED BY RF-SCORE:    0.00 PKD
ROOT
HETATM    1  C   UNL     1      -5.138   9.052  71.657  1.00  0.00    -0.041 C  
HETATM    2  O   UNL     1      -5.584   9.116  70.307  1.00  0.00    -0.030 OA 
ENDROOT
BRANCH   2   3
HETATM    3  C   UNL     1      -5.868  10.362  69.809  1.00  0.00    -0.049 A  
HETATM    4  C   UNL     1      -6.408  10.670  68.552  1.00  0.00    -0.054 A  
HETATM    5  C   UNL     1      -6.657  12.008  68.241  1.00  0.00    -0.055 A  
HETATM    6  N   UNL     1      -6.670  15.447  69.878  1.00  0.00    -0.159 NA 
HETATM    7  C   UNL     1      -6.411  13.051  69.150  1.00  0.00    -0.108 A  
HETATM    8  C   UNL     1      -5.453  15.248  70.678  1.00  0.00    -0.131 C  
HETATM    9  C   UNL     1      -6.746  14.486  68.758  1.00  0.00    -0.091 C  
HETATM   10  C   UNL     1      -8.170  14.610  68.186  1.00  0.00    -0.142 C  
HETATM   11  C   UNL     1      -8.434  16.006  67.620  1.00  0.00    -0.158 C  
HETATM   12  C   UNL     1      -5.375  13.846  71.304  1.00  0.00    -0.184 C  
HETATM   13  C   UNL     1      -8.072  17.109  68.637  1.00  0.00    -0.264 C  
HETATM   14  C   UNL     1      -6.728  16.815  69.342  1.00  0.00    -0.226 C  
HETATM   15  C   UNL     1      -5.529  11.404  70.684  1.00  0.00    -0.138 A  
HETATM   16  C   UNL     1      -5.778  12.747  70.357  1.00  0.00    -0.173 A  
BRANCH   4  17
HETATM   17  O   UNL     1      -6.609   9.664  67.643  1.00  0.00    -0.064 OA 
HETATM   18  C   UNL     1      -5.840   9.728  66.447  1.00  0.00    -0.054 C  
ENDBRANCH   4  17
BRANCH  11  19
HETATM   19  O   UNL     1      -9.848  16.101  67.310  1.00  0.00    -0.235 OA 
BRANCH  19  20
HETATM   20  C   UNL     1     -10.250  15.786  66.045  1.00  0.00    -0.333 C  
HETATM   21  O   UNL     1     -10.230  16.571  65.100  1.00  0.00    -0.590 OA 
BRANCH  20  22
HETATM   22  C   UNL     1     -10.738  14.317  65.923  1.00  0.00    -0.303 C  
HETATM   23  C   UNL     1     -12.137  14.801  63.835  1.00  0.00    -0.028 C  
HETATM   24  C   UNL     1     -12.619  12.748  65.147  1.00  0.00    -0.513 C  
HETATM   25  H2  UNL     1     -11.292  14.187  67.934  1.00  0.00     0.000 HD 
HETATM   26  H1  UNL     1     -11.065  12.695  67.173  1.00  0.00     0.000 HD 
HETATM   27  C   UNL     1     -12.131  14.203  65.248  1.00  0.00    -0.407 C  
HETATM   28  N   UNL     1     -10.745  13.660  67.254  1.00  0.00    -0.277 NA 
ENDBRANCH  20  22
ENDBRANCH  19  20
ENDBRANCH  11  19
BRANCH  13  29
HETATM   29  C   UNL     1      -7.980  18.511  67.979  1.00  0.00    -0.293 C  
HETATM   30  C   UNL     1      -6.792  20.215  66.554  1.00  0.00    -0.258 C  
HETATM   31  C   UNL     1      -6.732  17.809  65.871  1.00  0.00    -0.286 C  
HETATM   32  C   UNL     1      -6.774  18.770  67.060  1.00  0.00    -0.206 C  
ENDBRANCH  13  29
ENDBRANCH   2   3
TORSDOF 6
ENDMDL
MODEL      140
REMARK 921   NORMALIZED FREE ENERGY PREDICTED BY IDOCK:   -3.16 KCAL/MOL
REMARK 922        TOTAL FREE ENERGY PREDICTED BY IDOCK:   -5.09 KCAL/MOL
REMARK 923 INTER-LIGAND FREE ENERGY PREDICTED BY IDOCK:   -4.15 KCAL/MOL
REMARK 924 INTRA-LIGAND FREE ENERGY PREDICTED BY IDOCK:   -0.94 KCAL/MOL
REMARK 927      BINDING AFFINITY PREDICTED BY RF-SCORE:    0.00 PKD
ROOT
HETATM    1  C   UNL     1     -10.673   3.461  62.676  1.00  0.00    -0.177 C  
HETATM    2  O   UNL     1      -9.498   2.979  63.320  1.00  0.00    -0.094 OA 
ENDROOT
BRANCH   2   3
HETATM    3  C   UNL     1      -9.125   3.610  64.479  1.00  0.00    -0.131 A  
HETATM    4  C   UNL     1      -8.523   4.871  64.602  1.00  0.00    -0.143 A  
HETATM    5  C   UNL     1      -8.248   5.358  65.881  1.00  0.00    -0.119 A  
HETATM    6  N   UNL     1      -8.889   4.521  69.541  1.00  0.00    -0.085 NA 
HETATM    7  C   UNL     1      -8.575   4.644  67.046  1.00  0.00    -0.104 A  
HETATM    8  C   UNL     1      -8.690   3.071  69.411  1.00  0.00    -0.077 C  
HETATM    9  C   UNL     1      -8.281   5.256  68.411  1.00  0.00    -0.090 C  
HETATM   10  C   UNL     1      -8.798   6.702  68.518  1.00  0.00    -0.122 C  
HETATM   11  C   UNL     1      -8.338   7.375  69.812  1.00  0.00    -0.134 C  
HETATM   12  C   UNL     1      -9.319   2.496  68.131  1.00  0.00    -0.261 C  
HETATM   13  C   UNL     1      -8.656   6.507  71.048  1.00  0.00    -0.134 C  
HETATM   14  C   UNL     1      -8.317   5.019  70.801  1.00  0.00    -0.107 C  
HETATM   15  C   UNL     1      -9.365   2.849  65.633  1.00  0.00    -0.071 A  
HETATM   16  C   UNL     1      -9.077   3.348  66.914  1.00  0.00    -0.188 A  
BRANCH   4  17
HETATM   17  O   UNL     1      -8.160   5.554  63.471  1.00  0.00    -0.106 OA 
HETATM   18  C   UNL     1      -6.776   5.538  63.138  1.00  0.00    -0.029 C  
ENDBRANCH   4  17
BRANCH  11  19
HETATM   19  O   UNL     1      -9.042   8.637  69.933  1.00  0.00    -0.145 OA 
BRANCH  19  20
HETATM   20  C   UNL     1      -8.399   9.772  69.534  1.00  0.00    -0.161 C  
HETATM   21  O   UNL     1      -7.779  10.515  70.290  1.00  0.00    -0.082 OA 
BRANCH  20  22
HETATM   22  C   UNL     1      -8.531  10.027  68.007  1.00  0.00    -0.117 C  
HETATM   23  C   UNL     1      -6.112   9.335  67.534  1.00  0.00    -0.054 C  
HETATM   24  C   UNL     1      -7.321  10.689  65.839  1.00  0.00    -0.128 C  
HETATM   25  H2  UNL     1      -9.383  11.919  68.255  1.00  0.00     0.000 HD 
HETATM   26  H1  UNL     1      -9.651  11.224  66.737  1.00  0.00     0.000 HD 
HETATM   27  C   UNL     1      -7.182  10.418  67.347  1.00  0.00    -0.091 C  
HETATM   28  N   UNL     1      -9.564  11.057  67.740  1.00  0.00    -0.167 NA 
ENDBRANCH  20  22
ENDBRANCH  19  20
ENDBRANCH  11  19
BRANCH  13  29
HETATM   29  C   UNL     1      -7.890   6.977  72.312  1.00  0.00    -0.091 C  
HETATM   30  C   UNL     1      -7.752   8.291  74.456  1.00  0.00    -0.298 C  
HETATM   31  C   UNL     1      -9.896   7.140  73.876  1.00  0.00    -0.346 C  
HETATM   32  C   UNL     1      -8.667   7.853  73.310  1.00  0.00    -0.295 C  
ENDBRANCH  13  29
ENDBRANCH   2   3
TORSDOF 6
ENDMDL
MODEL      141
REMARK 921   NORMALIZED FREE ENERGY PREDICTED BY IDOCK:   -3.14 KCAL/MOL
REMARK 922        TOTAL FREE ENERGY PREDICTED BY IDOCK:   -5.07 KCAL/MOL
REMARK 923 INTER-LIGAND FREE ENERGY PREDICTED BY IDOCK:   -5.39 KCAL/MOL
REMARK 924 INTRA-LIGAND FREE ENERGY PREDICTED BY IDOCK:    0.32 KCAL/MOL
REMARK 927      BINDING AFFINITY PREDICTED BY RF-SCORE:    0.00 PKD
ROOT
HETATM    1  C   UNL     1     -11.696  12.494  67.556  1.00  0.00    -0.374 C  
HETATM    2  O   UNL     1     -10.751  11.775  66.772  1.00  0.00    -0.231 OA 
ENDROOT
BRANCH   2   3
HETATM    3  C   UNL     1     -10.169  10.680  67.356  1.00  0.00    -0.204 A  
HETATM    4  C   UNL     1      -9.070  10.666  68.226  1.00  0.00    -0.153 A  
HETATM    5  C   UNL     1      -8.643   9.442  68.745  1.00  0.00    -0.127 A  
HETATM    6  N   UNL     1      -9.699   5.785  68.883  1.00  0.00    -0.130 NA 
HETATM    7  C   UNL     1      -9.289   8.230  68.447  1.00  0.00    -0.136 A  
HETATM    8  C   UNL     1     -10.166   5.701  67.492  1.00  0.00    -0.202 C  
HETATM    9  C   UNL     1      -8.793   6.937  69.082  1.00  0.00    -0.134 C  
HETATM   10  C   UNL     1      -8.609   7.075  70.604  1.00  0.00    -0.147 C  
HETATM   11  C   UNL     1      -7.935   5.842  71.208  1.00  0.00    -0.113 C  
HETATM   12  C   UNL     1     -10.948   6.950  67.050  1.00  0.00    -0.404 C  
HETATM   13  C   UNL     1      -8.645   4.540  70.782  1.00  0.00    -0.115 C  
HETATM   14  C   UNL     1      -9.002   4.552  69.278  1.00  0.00    -0.096 C  
HETATM   15  C   UNL     1     -10.758   9.465  66.976  1.00  0.00    -0.207 A  
HETATM   16  C   UNL     1     -10.315   8.239  67.499  1.00  0.00    -0.333 A  
BRANCH   4  17
HETATM   17  O   UNL     1      -8.405  11.837  68.487  1.00  0.00    -0.156 OA 
HETATM   18  C   UNL     1      -7.170  12.029  67.805  1.00  0.00    -0.108 C  
ENDBRANCH   4  17
BRANCH  11  19
HETATM   19  O   UNL     1      -8.001   5.960  72.652  1.00  0.00    -0.104 OA 
BRANCH  19  20
HETATM   20  C   UNL     1      -9.196   5.716  73.263  1.00  0.00    -0.132 C  
HETATM   21  O   UNL     1      -9.569   4.604  73.627  1.00  0.00    -0.126 OA 
BRANCH  20  22
HETATM   22  C   UNL     1     -10.042   7.005  73.455  1.00  0.00    -0.310 C  
HETATM   23  C   UNL     1     -11.958   6.142  71.995  1.00  0.00    -0.310 C  
HETATM   24  C   UNL     1     -11.797   8.580  72.436  1.00  0.00    -0.437 C  
HETATM   25  H2  UNL     1      -8.452   8.283  73.001  1.00  0.00     0.000 HD 
HETATM   26  H1  UNL     1      -9.716   9.015  73.851  1.00  0.00     0.000 HD 
HETATM   27  C   UNL     1     -10.977   7.293  72.251  1.00  0.00    -0.286 C  
HETATM   28  N   UNL     1      -9.161   8.168  73.725  1.00  0.00    -0.191 NA 
ENDBRANCH  20  22
ENDBRANCH  19  20
ENDBRANCH  11  19
BRANCH  13  29
HETATM   29  C   UNL     1      -7.787   3.279  71.068  1.00  0.00    -0.050 C  
HETATM   30  C   UNL     1      -5.997   1.627  70.428  1.00  0.00    -0.018 C  
HETATM   31  C   UNL     1      -5.662   4.046  69.889  1.00  0.00    -0.017 C  
HETATM   32  C   UNL     1      -6.697   2.932  70.039  1.00  0.00    -0.033 C  
ENDBRANCH  13  29
ENDBRANCH   2   3
TORSDOF 6
ENDMDL
MODEL      142
REMARK 921   NORMALIZED FREE ENERGY PREDICTED BY IDOCK:   -3.14 KCAL/MOL
REMARK 922        TOTAL FREE ENERGY PREDICTED BY IDOCK:   -5.06 KCAL/MOL
REMARK 923 INTER-LIGAND FREE ENERGY PREDICTED BY IDOCK:   -4.65 KCAL/MOL
REMARK 924 INTRA-LIGAND FREE ENERGY PREDICTED BY IDOCK:   -0.41 KCAL/MOL
REMARK 927      BINDING AFFINITY PREDICTED BY RF-SCORE:    0.00 PKD
ROOT
HETATM    1  C   UNL     1      -8.274  17.039  66.216  1.00  0.00    -0.287 C  
HETATM    2  O   UNL     1      -9.044  15.868  65.967  1.00  0.00    -0.335 OA 
ENDROOT
BRANCH   2   3
HETATM    3  C   UNL     1      -8.755  14.765  66.728  1.00  0.00    -0.224 A  
HETATM    4  C   UNL     1      -9.479  13.566  66.792  1.00  0.00    -0.269 A  
HETATM    5  C   UNL     1      -9.001  12.540  67.610  1.00  0.00    -0.185 A  
HETATM    6  N   UNL     1      -5.956  11.640  69.712  1.00  0.00    -0.108 NA 
HETATM    7  C   UNL     1      -7.811  12.656  68.347  1.00  0.00    -0.136 A  
HETATM    8  C   UNL     1      -5.748  12.982  70.275  1.00  0.00    -0.159 C  
HETATM    9  C   UNL     1      -7.328  11.479  69.187  1.00  0.00    -0.057 C  
HETATM   10  C   UNL     1      -7.326  10.163  68.388  1.00  0.00    -0.081 C  
HETATM   11  C   UNL     1      -7.024   8.958  69.281  1.00  0.00    -0.057 C  
HETATM   12  C   UNL     1      -5.949  14.100  69.238  1.00  0.00    -0.097 C  
HETATM   13  C   UNL     1      -5.750   9.179  70.122  1.00  0.00    -0.031 C  
HETATM   14  C   UNL     1      -5.703  10.602  70.723  1.00  0.00    -0.103 C  
HETATM   15  C   UNL     1      -7.620  14.925  67.537  1.00  0.00    -0.218 A  
HETATM   16  C   UNL     1      -7.154  13.887  68.360  1.00  0.00    -0.104 A  
BRANCH   4  17
HETATM   17  O   UNL     1     -10.664  13.460  66.112  1.00  0.00    -0.280 OA 
HETATM   18  C   UNL     1     -11.589  12.492  66.596  1.00  0.00    -0.380 C  
ENDBRANCH   4  17
BRANCH  11  19
HETATM   19  O   UNL     1      -6.826   7.806  68.422  1.00  0.00    -0.063 OA 
BRANCH  19  20
HETATM   20  C   UNL     1      -7.505   6.661  68.716  1.00  0.00    -0.096 C  
HETATM   21  O   UNL     1      -7.499   6.119  69.818  1.00  0.00    -0.077 OA 
BRANCH  20  22
HETATM   22  C   UNL     1      -8.299   6.110  67.499  1.00  0.00    -0.109 C  
HETATM   23  C   UNL     1     -10.453   7.318  68.172  1.00  0.00    -0.244 C  
HETATM   24  C   UNL     1     -10.597   5.411  66.587  1.00  0.00    -0.359 C  
HETATM   25  H2  UNL     1      -7.688   4.137  67.817  1.00  0.00     0.000 HD 
HETATM   26  H1  UNL     1      -8.254   4.451  66.256  1.00  0.00     0.000 HD 
HETATM   27  C   UNL     1      -9.818   5.976  67.787  1.00  0.00    -0.129 C  
HETATM   28  N   UNL     1      -7.733   4.813  67.055  1.00  0.00    -0.091 NA 
ENDBRANCH  20  22
ENDBRANCH  19  20
ENDBRANCH  11  19
BRANCH  13  29
HETATM   29  C   UNL     1      -5.623   8.156  71.282  1.00  0.00    -0.033 C  
HETATM   30  C   UNL     1      -6.201   7.352  73.597  1.00  0.00    -0.064 C  
HETATM   31  C   UNL     1      -7.992   8.390  72.192  1.00  0.00    -0.181 C  
HETATM   32  C   UNL     1      -6.499   8.401  72.522  1.00  0.00    -0.093 C  
ENDBRANCH  13  29
ENDBRANCH   2   3
TORSDOF 6
ENDMDL
MODEL      143
REMARK 921   NORMALIZED FREE ENERGY PREDICTED BY IDOCK:   -3.08 KCAL/MOL
REMARK 922        TOTAL FREE ENERGY PREDICTED BY IDOCK:   -4.98 KCAL/MOL
REMARK 923 INTER-LIGAND FREE ENERGY PREDICTED BY IDOCK:   -4.80 KCAL/MOL
REMARK 924 INTRA-LIGAND FREE ENERGY PREDICTED BY IDOCK:   -0.18 KCAL/MOL
REMARK 927      BINDING AFFINITY PREDICTED BY RF-SCORE:    0.00 PKD
ROOT
HETATM    1  C   UNL     1      -5.980  17.085  69.559  1.00  0.00    -0.216 C  
HETATM    2  O   UNL     1      -6.744  16.738  68.409  1.00  0.00    -0.145 OA 
ENDROOT
BRANCH   2   3
HETATM    3  C   UNL     1      -7.307  15.488  68.395  1.00  0.00    -0.115 A  
HETATM    4  C   UNL     1      -8.560  15.127  67.879  1.00  0.00    -0.153 A  
HETATM    5  C   UNL     1      -8.942  13.785  67.930  1.00  0.00    -0.193 A  
HETATM    6  N   UNL     1      -7.520  10.359  68.792  1.00  0.00    -0.086 NA 
HETATM    7  C   UNL     1      -8.109  12.783  68.455  1.00  0.00    -0.129 A  
HETATM    8  C   UNL     1      -6.755  10.795  69.969  1.00  0.00    -0.149 C  
HETATM    9  C   UNL     1      -8.576  11.332  68.441  1.00  0.00    -0.155 C  
HETATM   10  C   UNL     1      -9.101  10.908  67.057  1.00  0.00    -0.158 C  
HETATM   11  C   UNL     1      -9.741   9.520  67.094  1.00  0.00    -0.171 C  
HETATM   12  C   UNL     1      -6.047  12.143  69.753  1.00  0.00    -0.143 C  
HETATM   13  C   UNL     1      -8.808   8.481  67.751  1.00  0.00    -0.137 C  
HETATM   14  C   UNL     1      -8.137   9.044  69.025  1.00  0.00    -0.107 C  
HETATM   15  C   UNL     1      -6.511  14.510  69.009  1.00  0.00    -0.099 A  
HETATM   16  C   UNL     1      -6.910  13.164  69.061  1.00  0.00    -0.090 A  
BRANCH   4  17
HETATM   17  O   UNL     1      -9.397  16.103  67.406  1.00  0.00    -0.214 OA 
HETATM   18  C   UNL     1      -9.388  16.320  65.999  1.00  0.00    -0.326 C  
ENDBRANCH   4  17
BRANCH  11  19
HETATM   19  O   UNL     1     -10.005   9.114  65.727  1.00  0.00    -0.277 OA 
BRANCH  19  20
HETATM   20  C   UNL     1      -9.086   9.436  64.772  1.00  0.00    -0.193 C  
HETATM   21  O   UNL     1      -9.223  10.352  63.965  1.00  0.00    -0.216 OA 
BRANCH  20  22
HETATM   22  C   UNL     1      -7.834   8.517  64.815  1.00  0.00    -0.125 C  
HETATM   23  C   UNL     1      -6.222  10.480  65.125  1.00  0.00    -0.079 C  
HETATM   24  C   UNL     1      -5.320   8.307  64.330  1.00  0.00    -0.040 C  
HETATM   25  H2  UNL     1      -8.379   7.460  63.097  1.00  0.00     0.000 HD 
HETATM   26  H1  UNL     1      -7.259   6.664  64.081  1.00  0.00     0.000 HD 
HETATM   27  C   UNL     1      -6.553   9.227  64.305  1.00  0.00    -0.086 C  
HETATM   28  N   UNL     1      -8.082   7.268  64.053  1.00  0.00    -0.075 NA 
ENDBRANCH  20  22
ENDBRANCH  19  20
ENDBRANCH  11  19
BRANCH  13  29
HETATM   29  C   UNL     1      -9.554   7.175  68.131  1.00  0.00    -0.134 C  
HETATM   30  C   UNL     1     -10.687   5.681  69.813  1.00  0.00    -0.401 C  
HETATM   31  C   UNL     1     -11.032   8.154  69.961  1.00  0.00    -0.199 C  
HETATM   32  C   UNL     1     -10.043   7.051  69.584  1.00  0.00    -0.194 C  
ENDBRANCH  13  29
ENDBRANCH   2   3
TORSDOF 6
ENDMDL
MODEL      144
REMARK 921   NORMALIZED FREE ENERGY PREDICTED BY IDOCK:   -3.08 KCAL/MOL
REMARK 922        TOTAL FREE ENERGY PREDICTED BY IDOCK:   -4.97 KCAL/MOL
REMARK 923 INTER-LIGAND FREE ENERGY PREDICTED BY IDOCK:   -5.72 KCAL/MOL
REMARK 924 INTRA-LIGAND FREE ENERGY PREDICTED BY IDOCK:    0.74 KCAL/MOL
REMARK 927      BINDING AFFINITY PREDICTED BY RF-SCORE:    0.00 PKD
ROOT
HETATM    1  C   UNL     1      -8.961   2.728  63.834  1.00  0.00    -0.098 C  
HETATM    2  O   UNL     1      -7.968   3.609  64.348  1.00  0.00    -0.084 OA 
ENDROOT
BRANCH   2   3
HETATM    3  C   UNL     1      -8.402   4.822  64.818  1.00  0.00    -0.132 A  
HETATM    4  C   UNL     1      -9.368   5.052  65.808  1.00  0.00    -0.160 A  
HETATM    5  C   UNL     1      -9.650   6.369  66.174  1.00  0.00    -0.042 A  
HETATM    6  N   UNL     1      -8.380   9.912  65.590  1.00  0.00    -0.132 NA 
HETATM    7  C   UNL     1      -8.983   7.468  65.606  1.00  0.00    -0.012 A  
HETATM    8  C   UNL     1      -8.104   9.749  64.156  1.00  0.00    -0.153 C  
HETATM    9  C   UNL     1      -9.314   8.878  66.084  1.00  0.00    -0.239 C  
HETATM   10  C   UNL     1      -9.295   8.985  67.620  1.00  0.00    -0.154 C  
HETATM   11  C   UNL     1      -9.808  10.343  68.099  1.00  0.00    -0.151 C  
HETATM   12  C   UNL     1      -7.462   8.392  63.824  1.00  0.00    -0.120 C  
HETATM   13  C   UNL     1      -9.092  11.508  67.384  1.00  0.00    -0.166 C  
HETATM   14  C   UNL     1      -8.946  11.241  65.868  1.00  0.00    -0.197 C  
HETATM   15  C   UNL     1      -7.802   5.916  64.178  1.00  0.00    -0.119 A  
HETATM   16  C   UNL     1      -8.100   7.238  64.550  1.00  0.00    -0.071 A  
BRANCH   4  17
HETATM   17  O   UNL     1     -10.056   3.989  66.334  1.00  0.00    -0.168 OA 
HETATM   18  C   UNL     1      -9.654   3.553  67.628  1.00  0.00    -0.127 C  
ENDBRANCH   4  17
BRANCH  11  19
HETATM   19  O   UNL     1      -9.552  10.440  69.524  1.00  0.00    -0.215 OA 
BRANCH  19  20
HETATM   20  C   UNL     1      -8.690   9.543  70.083  1.00  0.00    -0.230 C  
HETATM   21  O   UNL     1      -7.468   9.670  70.085  1.00  0.00    -0.115 OA 
BRANCH  20  22
HETATM   22  C   UNL     1      -9.423   8.334  70.728  1.00  0.00    -0.161 C  
HETATM   23  C   UNL     1     -11.495   9.717  71.316  1.00  0.00    -0.457 C  
HETATM   24  C   UNL     1     -11.124   7.561  72.491  1.00  0.00    -0.371 C  
HETATM   25  H2  UNL     1      -7.779   7.781  71.894  1.00  0.00     0.000 HD 
HETATM   26  H1  UNL     1      -8.923   6.557  71.673  1.00  0.00     0.000 HD 
HETATM   27  C   UNL     1     -10.416   8.762  71.841  1.00  0.00    -0.423 C  
HETATM   28  N   UNL     1      -8.442   7.351  71.249  1.00  0.00    -0.113 NA 
ENDBRANCH  20  22
ENDBRANCH  19  20
ENDBRANCH  11  19
BRANCH  13  29
HETATM   29  C   UNL     1      -9.829  12.860  67.571  1.00  0.00    -0.208 C  
HETATM   30  C   UNL     1     -11.290  14.723  66.712  1.00  0.00    -0.347 C  
HETATM   31  C   UNL     1     -11.819  12.367  66.057  1.00  0.00    -0.459 C  
HETATM   32  C   UNL     1     -10.696  13.347  66.398  1.00  0.00    -0.289 C  
ENDBRANCH  13  29
ENDBRANCH   2   3
TORSDOF 6
ENDMDL
MODEL      145
REMARK 921   NORMALIZED FREE ENERGY PREDICTED BY IDOCK:   -3.07 KCAL/MOL
REMARK 922        TOTAL FREE ENERGY PREDICTED BY IDOCK:   -4.97 KCAL/MOL
REMARK 923 INTER-LIGAND FREE ENERGY PREDICTED BY IDOCK:   -3.89 KCAL/MOL
REMARK 924 INTRA-LIGAND FREE ENERGY PREDICTED BY IDOCK:   -1.08 KCAL/MOL
REMARK 927      BINDING AFFINITY PREDICTED BY RF-SCORE:    0.00 PKD
ROOT
HETATM    1  C   UNL     1      -6.638  18.220  69.054  1.00  0.00    -0.256 C  
HETATM    2  O   UNL     1      -6.696  17.358  67.923  1.00  0.00    -0.166 OA 
ENDROOT
BRANCH   2   3
HETATM    3  C   UNL     1      -6.962  16.035  68.167  1.00  0.00    -0.122 A  
HETATM    4  C   UNL     1      -8.045  15.285  67.687  1.00  0.00    -0.158 A  
HETATM    5  C   UNL     1      -8.124  13.933  68.025  1.00  0.00    -0.154 A  
HETATM    6  N   UNL     1      -6.070  11.206  69.713  1.00  0.00    -0.091 NA 
HETATM    7  C   UNL     1      -7.146  13.292  68.804  1.00  0.00    -0.100 A  
HETATM    8  C   UNL     1      -5.542  12.050  70.794  1.00  0.00    -0.123 C  
HETATM    9  C   UNL     1      -7.275  11.802  69.099  1.00  0.00    -0.043 C  
HETATM   10  C   UNL     1      -7.552  10.984  67.824  1.00  0.00    -0.099 C  
HETATM   11  C   UNL     1      -7.868   9.523  68.146  1.00  0.00    -0.083 C  
HETATM   12  C   UNL     1      -5.134  13.451  70.311  1.00  0.00    -0.098 C  
HETATM   13  C   UNL     1      -6.798   8.899  69.067  1.00  0.00    -0.059 C  
HETATM   14  C   UNL     1      -6.399   9.861  70.209  1.00  0.00    -0.094 C  
HETATM   15  C   UNL     1      -6.034  15.427  69.026  1.00  0.00    -0.103 A  
HETATM   16  C   UNL     1      -6.128  14.067  69.364  1.00  0.00    -0.102 A  
BRANCH   4  17
HETATM   17  O   UNL     1      -9.028  15.912  66.964  1.00  0.00    -0.197 OA 
HETATM   18  C   UNL     1     -10.099  16.479  67.710  1.00  0.00    -0.264 C  
ENDBRANCH   4  17
BRANCH  11  19
HETATM   19  O   UNL     1      -7.897   8.787  66.896  1.00  0.00    -0.099 OA 
BRANCH  19  20
HETATM   20  C   UNL     1      -9.111   8.427  66.390  1.00  0.00    -0.187 C  
HETATM   21  O   UNL     1      -9.857   9.188  65.780  1.00  0.00    -0.286 OA 
BRANCH  20  22
HETATM   22  C   UNL     1      -9.454   6.937  66.667  1.00  0.00    -0.166 C  
HETATM   23  C   UNL     1      -7.464   6.075  65.308  1.00  0.00    -0.083 C  
HETATM   24  C   UNL     1      -9.338   4.522  65.799  1.00  0.00    -0.162 C  
HETATM   25  H2  UNL     1     -11.465   7.158  66.146  1.00  0.00     0.000 HD 
HETATM   26  H1  UNL     1     -11.134   5.797  67.092  1.00  0.00     0.000 HD 
HETATM   27  C   UNL     1      -8.979   5.993  65.531  1.00  0.00    -0.038 C  
HETATM   28  N   UNL     1     -10.909   6.776  66.910  1.00  0.00    -0.359 NA 
ENDBRANCH  20  22
ENDBRANCH  19  20
ENDBRANCH  11  19
BRANCH  13  29
HETATM   29  C   UNL     1      -7.269   7.563  69.698  1.00  0.00    -0.077 C  
HETATM   30  C   UNL     1      -7.309   5.046  69.781  1.00  0.00    -0.056 C  
HETATM   31  C   UNL     1      -5.166   6.206  69.216  1.00  0.00    -0.005 C  
HETATM   32  C   UNL     1      -6.690   6.269  69.100  1.00  0.00    -0.056 C  
ENDBRANCH  13  29
ENDBRANCH   2   3
TORSDOF 6
ENDMDL
MODEL      146
REMARK 921   NORMALIZED FREE ENERGY PREDICTED BY IDOCK:   -3.01 KCAL/MOL
REMARK 922        TOTAL FREE ENERGY PREDICTED BY IDOCK:   -4.88 KCAL/MOL
REMARK 923 INTER-LIGAND FREE ENERGY PREDICTED BY IDOCK:   -3.89 KCAL/MOL
REMARK 924 INTRA-LIGAND FREE ENERGY PREDICTED BY IDOCK:   -1.00 KCAL/MOL
REMARK 927      BINDING AFFINITY PREDICTED BY RF-SCORE:    0.00 PKD
ROOT
HETATM    1  C   UNL     1      -9.127   3.954  73.382  1.00  0.00    -0.102 C  
HETATM    2  O   UNL     1      -8.022   3.853  72.490  1.00  0.00    -0.078 OA 
ENDROOT
BRANCH   2   3
HETATM    3  C   UNL     1      -7.655   4.997  71.829  1.00  0.00    -0.104 A  
HETATM    4  C   UNL     1      -7.717   5.237  70.449  1.00  0.00    -0.076 A  
HETATM    5  C   UNL     1      -7.323   6.488  69.969  1.00  0.00    -0.089 A  
HETATM    6  N   UNL     1      -6.323   9.936  71.241  1.00  0.00    -0.305 NA 
HETATM    7  C   UNL     1      -6.895   7.521  70.820  1.00  0.00    -0.047 A  
HETATM    8  C   UNL     1      -5.512   9.460  72.371  1.00  0.00    -0.040 C  
HETATM    9  C   UNL     1      -6.519   8.875  70.230  1.00  0.00    -0.041 C  
HETATM   10  C   UNL     1      -7.597   9.401  69.264  1.00  0.00    -0.081 C  
HETATM   11  C   UNL     1      -7.135  10.662  68.533  1.00  0.00    -0.069 C  
HETATM   12  C   UNL     1      -6.155   8.273  73.107  1.00  0.00    -0.084 C  
HETATM   13  C   UNL     1      -6.603  11.727  69.515  1.00  0.00    -0.102 C  
HETATM   14  C   UNL     1      -5.697  11.101  70.599  1.00  0.00    -0.125 C  
HETATM   15  C   UNL     1      -7.135   5.988  72.675  1.00  0.00    -0.084 A  
HETATM   16  C   UNL     1      -6.736   7.241  72.179  1.00  0.00    -0.055 A  
BRANCH   4  17
HETATM   17  O   UNL     1      -8.091   4.221  69.608  1.00  0.00    -0.059 OA 
HETATM   18  C   UNL     1      -9.474   4.148  69.278  1.00  0.00    -0.188 C  
ENDBRANCH   4  17
BRANCH  11  19
HETATM   19  O   UNL     1      -8.275  11.208  67.821  1.00  0.00    -0.114 OA 
BRANCH  19  20
HETATM   20  C   UNL     1      -8.181  11.349  66.468  1.00  0.00    -0.152 C  
HETATM   21  O   UNL     1      -7.128  11.278  65.839  1.00  0.00     0.038 OA 
BRANCH  20  22
HETATM   22  C   UNL     1      -9.558  11.609  65.799  1.00  0.00    -0.232 C  
HETATM   23  C   UNL     1      -9.856  13.874  66.952  1.00  0.00    -0.268 C  
HETATM   24  C   UNL     1     -11.854  12.743  66.006  1.00  0.00    -0.495 C  
HETATM   25  H2  UNL     1     -10.309   9.722  66.289  1.00  0.00     0.000 HD 
HETATM   26  H1  UNL     1     -11.132  10.496  65.032  1.00  0.00     0.000 HD 
HETATM   27  C   UNL     1     -10.484  12.505  66.663  1.00  0.00    -0.252 C  
HETATM   28  N   UNL     1     -10.227  10.325  65.472  1.00  0.00    -0.270 NA 
ENDBRANCH  20  22
ENDBRANCH  19  20
ENDBRANCH  11  19
BRANCH  13  29
HETATM   29  C   UNL     1      -5.803  12.845  68.797  1.00  0.00    -0.069 C  
HETATM   30  C   UNL     1      -5.577  15.199  67.930  1.00  0.00    -0.140 C  
HETATM   31  C   UNL     1      -6.725  14.819  70.119  1.00  0.00    -0.114 C  
HETATM   32  C   UNL     1      -6.456  14.236  68.731  1.00  0.00    -0.089 C  
ENDBRANCH  13  29
ENDBRANCH   2   3
TORSDOF 6
ENDMDL
MODEL      147
REMARK 921   NORMALIZED FREE ENERGY PREDICTED BY IDOCK:   -2.92 KCAL/MOL
REMARK 922        TOTAL FREE ENERGY PREDICTED BY IDOCK:   -4.77 KCAL/MOL
REMARK 923 INTER-LIGAND FREE ENERGY PREDICTED BY IDOCK:   -4.90 KCAL/MOL
REMARK 924 INTRA-LIGAND FREE ENERGY PREDICTED BY IDOCK:    0.13 KCAL/MOL
REMARK 927      BINDING AFFINITY PREDICTED BY RF-SCORE:    0.00 PKD
ROOT
HETATM    1  C   UNL     1      -8.570   1.643  70.673  1.00  0.00    -0.051 C  
HETATM    2  O   UNL     1      -7.655   2.661  70.282  1.00  0.00    -0.043 OA 
ENDROOT
BRANCH   2   3
HETATM    3  C   UNL     1      -8.170   3.918  70.098  1.00  0.00    -0.056 A  
HETATM    4  C   UNL     1      -8.090   5.006  70.980  1.00  0.00    -0.101 A  
HETATM    5  C   UNL     1      -8.655   6.223  70.594  1.00  0.00    -0.139 A  
HETATM    6  N   UNL     1     -10.239   7.891  67.559  1.00  0.00    -0.220 NA 
HETATM    7  C   UNL     1      -9.276   6.403  69.347  1.00  0.00    -0.143 A  
HETATM    8  C   UNL     1     -11.011   6.720  67.118  1.00  0.00    -0.388 C  
HETATM    9  C   UNL     1      -9.836   7.772  68.976  1.00  0.00    -0.169 C  
HETATM   10  C   UNL     1      -8.815   8.898  69.224  1.00  0.00    -0.139 C  
HETATM   11  C   UNL     1      -9.440  10.281  69.032  1.00  0.00    -0.200 C  
HETATM   12  C   UNL     1     -10.220   5.407  67.235  1.00  0.00    -0.258 C  
HETATM   13  C   UNL     1     -10.172  10.391  67.678  1.00  0.00    -0.240 C  
HETATM   14  C   UNL     1     -11.014   9.128  67.382  1.00  0.00     0.079 C  
HETATM   15  C   UNL     1      -8.875   4.063  68.894  1.00  0.00    -0.149 A  
HETATM   16  C   UNL     1      -9.445   5.291  68.520  1.00  0.00    -0.166 A  
BRANCH   4  17
HETATM   17  O   UNL     1      -7.525   4.826  72.216  1.00  0.00    -0.079 OA 
HETATM   18  C   UNL     1      -8.039   5.633  73.270  1.00  0.00    -0.114 C  
ENDBRANCH   4  17
BRANCH  11  19
HETATM   19  O   UNL     1      -8.371  11.261  69.067  1.00  0.00    -0.114 OA 
BRANCH  19  20
HETATM   20  C   UNL     1      -7.671  11.490  67.919  1.00  0.00    -0.120 C  
HETATM   21  O   UNL     1      -7.609  10.700  66.980  1.00  0.00    -0.103 OA 
BRANCH  20  22
HETATM   22  C   UNL     1      -6.957  12.870  67.921  1.00  0.00    -0.122 C  
HETATM   23  C   UNL     1      -5.532  12.293  69.967  1.00  0.00    -0.111 C  
HETATM   24  C   UNL     1      -5.811  14.680  69.340  1.00  0.00    -0.097 C  
HETATM   25  H2  UNL     1      -8.740  13.949  67.764  1.00  0.00     0.000 HD 
HETATM   26  H1  UNL     1      -7.358  14.812  67.313  1.00  0.00     0.000 HD 
HETATM   27  C   UNL     1      -6.500  13.304  69.339  1.00  0.00    -0.097 C  
HETATM   28  N   UNL     1      -7.827  13.905  67.311  1.00  0.00    -0.155 NA 
ENDBRANCH  20  22
ENDBRANCH  19  20
ENDBRANCH  11  19
BRANCH  13  29
HETATM   29  C   UNL     1     -11.109  11.626  67.613  1.00  0.00    -0.314 C  
HETATM   30  C   UNL     1     -11.852  13.787  66.555  1.00  0.00    -0.438 C  
HETATM   31  C   UNL     1     -11.115  11.906  65.080  1.00  0.00    -0.360 C  
HETATM   32  C   UNL     1     -10.906  12.590  66.431  1.00  0.00    -0.290 C  
ENDBRANCH  13  29
ENDBRANCH   2   3
TORSDOF 6
ENDMDL
MODEL      148
REMARK 921   NORMALIZED FREE ENERGY PREDICTED BY IDOCK:   -2.92 KCAL/MOL
REMARK 922        TOTAL FREE ENERGY PREDICTED BY IDOCK:   -4.77 KCAL/MOL
REMARK 923 INTER-LIGAND FREE ENERGY PREDICTED BY IDOCK:   -5.13 KCAL/MOL
REMARK 924 INTRA-LIGAND FREE ENERGY PREDICTED BY IDOCK:    0.37 KCAL/MOL
REMARK 927      BINDING AFFINITY PREDICTED BY RF-SCORE:    0.00 PKD
ROOT
HETATM    1  C   UNL     1      -8.036   3.319  63.209  1.00  0.00    -0.080 C  
HETATM    2  O   UNL     1      -9.177   3.922  63.809  1.00  0.00    -0.118 OA 
ENDROOT
BRANCH   2   3
HETATM    3  C   UNL     1      -8.967   4.628  64.966  1.00  0.00    -0.152 A  
HETATM    4  C   UNL     1      -8.424   5.915  65.087  1.00  0.00    -0.130 A  
HETATM    5  C   UNL     1      -8.320   6.479  66.360  1.00  0.00    -0.120 A  
HETATM    6  N   UNL     1      -9.374   5.815  69.959  1.00  0.00    -0.145 NA 
HETATM    7  C   UNL     1      -8.764   5.816  67.517  1.00  0.00    -0.107 A  
HETATM    8  C   UNL     1      -9.115   4.368  69.937  1.00  0.00    -0.111 C  
HETATM    9  C   UNL     1      -8.657   6.511  68.870  1.00  0.00    -0.125 C  
HETATM   10  C   UNL     1      -9.226   7.941  68.831  1.00  0.00    -0.144 C  
HETATM   11  C   UNL     1      -8.947   8.697  70.130  1.00  0.00    -0.154 C  
HETATM   12  C   UNL     1      -9.567   3.703  68.627  1.00  0.00    -0.159 C  
HETATM   13  C   UNL     1      -9.386   7.886  71.367  1.00  0.00    -0.174 C  
HETATM   14  C   UNL     1      -8.974   6.400  71.248  1.00  0.00    -0.142 C  
HETATM   15  C   UNL     1      -9.322   3.921  66.124  1.00  0.00    -0.179 A  
HETATM   16  C   UNL     1      -9.206   4.497  67.400  1.00  0.00    -0.154 A  
BRANCH   4  17
HETATM   17  O   UNL     1      -7.947   6.550  63.970  1.00  0.00    -0.114 OA 
HETATM   18  C   UNL     1      -7.878   7.971  64.030  1.00  0.00    -0.145 C  
ENDBRANCH   4  17
BRANCH  11  19
HETATM   19  O   UNL     1      -9.699   9.938  70.093  1.00  0.00    -0.247 OA 
BRANCH  19  20
HETATM   20  C   UNL     1     -10.804   9.997  69.296  1.00  0.00    -0.230 C  
HETATM   21  O   UNL     1     -10.792   9.783  68.086  1.00  0.00    -0.242 OA 
BRANCH  20  22
HETATM   22  C   UNL     1     -12.091  10.362  70.086  1.00  0.00    -0.256 C  
HETATM   23  C   UNL     1     -11.638  12.876  69.948  1.00  0.00    -0.246 C  
HETATM   24  C   UNL     1     -13.222  12.040  71.667  1.00  0.00    -0.361 C  
HETATM   25  H2  UNL     1     -11.708   8.990  71.615  1.00  0.00     0.000 HD 
HETATM   26  H1  UNL     1     -13.319   9.493  71.513  1.00  0.00     0.000 HD 
HETATM   27  C   UNL     1     -11.953  11.693  70.871  1.00  0.00    -0.167 C  
HETATM   28  N   UNL     1     -12.473   9.253  70.994  1.00  0.00    -0.257 NA 
ENDBRANCH  20  22
ENDBRANCH  19  20
ENDBRANCH  11  19
BRANCH  13  29
HETATM   29  C   UNL     1      -8.794   8.451  72.685  1.00  0.00    -0.288 C  
HETATM   30  C   UNL     1      -6.997   8.536  74.447  1.00  0.00    -0.193 C  
HETATM   31  C   UNL     1      -6.332   8.266  72.051  1.00  0.00    -0.061 C  
HETATM   32  C   UNL     1      -7.401   7.942  73.095  1.00  0.00    -0.135 C  
ENDBRANCH  13  29
ENDBRANCH   2   3
TORSDOF 6
ENDMDL
MODEL      149
REMARK 921   NORMALIZED FREE ENERGY PREDICTED BY IDOCK:   -2.86 KCAL/MOL
REMARK 922        TOTAL FREE ENERGY PREDICTED BY IDOCK:   -4.68 KCAL/MOL
REMARK 923 INTER-LIGAND FREE ENERGY PREDICTED BY IDOCK:   -5.34 KCAL/MOL
REMARK 924 INTRA-LIGAND FREE ENERGY PREDICTED BY IDOCK:    0.65 KCAL/MOL
REMARK 927      BINDING AFFINITY PREDICTED BY RF-SCORE:    0.00 PKD
ROOT
HETATM    1  C   UNL     1     -13.161  11.736  63.206  1.00  0.00     0.467 C  
HETATM    2  O   UNL     1     -13.482  12.314  64.467  1.00  0.00    -0.686 OA 
ENDROOT
BRANCH   2   3
HETATM    3  C   UNL     1     -12.442  12.848  65.184  1.00  0.00    -0.501 A  
HETATM    4  C   UNL     1     -11.071  12.649  64.967  1.00  0.00    -0.291 A  
HETATM    5  C   UNL     1     -10.161  13.313  65.792  1.00  0.00    -0.293 A  
HETATM    6  N   UNL     1     -10.066  15.979  68.510  1.00  0.00    -0.228 NA 
HETATM    7  C   UNL     1     -10.567  14.190  66.811  1.00  0.00    -0.277 A  
HETATM    8  C   UNL     1     -11.276  15.533  69.214  1.00  0.00    -0.310 C  
HETATM    9  C   UNL     1      -9.516  14.912  67.646  1.00  0.00    -0.199 C  
HETATM   10  C   UNL     1      -8.445  15.585  66.769  1.00  0.00    -0.314 C  
HETATM   11  C   UNL     1      -7.295  16.144  67.607  1.00  0.00    -0.142 C  
HETATM   12  C   UNL     1     -12.407  15.126  68.254  1.00  0.00     0.268 C  
HETATM   13  C   UNL     1      -7.810  17.036  68.756  1.00  0.00    -0.253 C  
HETATM   14  C   UNL     1      -9.031  16.406  69.464  1.00  0.00     0.143 C  
HETATM   15  C   UNL     1     -12.857  13.645  66.261  1.00  0.00    -0.035 A  
HETATM   16  C   UNL     1     -11.931  14.302  67.088  1.00  0.00    -0.449 A  
BRANCH   4  17
HETATM   17  O   UNL     1     -10.666  11.761  64.005  1.00  0.00    -0.311 OA 
HETATM   18  C   UNL     1      -9.809  10.709  64.435  1.00  0.00    -0.334 C  
ENDBRANCH   4  17
BRANCH  11  19
HETATM   19  O   UNL     1      -6.454  16.942  66.735  1.00  0.00    -0.186 OA 
BRANCH  19  20
HETATM   20  C   UNL     1      -7.050  17.899  65.968  1.00  0.00    -0.305 C  
HETATM   21  O   UNL     1      -8.264  18.000  65.811  1.00  0.00    -0.519 OA 
BRANCH  20  22
HETATM   22  C   UNL     1      -6.022  18.860  65.309  1.00  0.00    -0.253 C  
HETATM   23  C   UNL     1      -6.604  20.794  66.881  1.00  0.00    -0.353 C  
HETATM   24  C   UNL     1      -5.429  21.297  64.751  1.00  0.00    -0.173 C  
HETATM   25  H2  UNL     1      -6.667  18.443  63.366  1.00  0.00     0.000 HD 
HETATM   26  H1  UNL     1      -5.119  19.116  63.459  1.00  0.00     0.000 HD 
HETATM   27  C   UNL     1      -6.439  20.350  65.422  1.00  0.00    -0.298 C  
HETATM   28  N   UNL     1      -5.795  18.484  63.892  1.00  0.00     0.017 NA 
ENDBRANCH  20  22
ENDBRANCH  19  20
ENDBRANCH  11  19
BRANCH  13  29
HETATM   29  C   UNL     1      -6.718  17.314  69.823  1.00  0.00     0.100 C  
HETATM   30  C   UNL     1      -5.155  18.869  71.040  1.00  0.00    -0.271 C  
HETATM   31  C   UNL     1      -7.445  19.678  70.437  1.00  0.00     0.783 C  
HETATM   32  C   UNL     1      -6.285  18.778  70.010  1.00  0.00    -0.136 C  
ENDBRANCH  13  29
ENDBRANCH   2   3
TORSDOF 6
ENDMDL
MODEL      150
REMARK 921   NORMALIZED FREE ENERGY PREDICTED BY IDOCK:   -2.83 KCAL/MOL
REMARK 922        TOTAL FREE ENERGY PREDICTED BY IDOCK:   -4.64 KCAL/MOL
REMARK 923 INTER-LIGAND FREE ENERGY PREDICTED BY IDOCK:   -3.84 KCAL/MOL
REMARK 924 INTRA-LIGAND FREE ENERGY PREDICTED BY IDOCK:   -0.80 KCAL/MOL
REMARK 927      BINDING AFFINITY PREDICTED BY RF-SCORE:    0.00 PKD
ROOT
HETATM    1  C   UNL     1     -10.710   2.650  62.918  1.00  0.00    -0.195 C  
HETATM    2  O   UNL     1      -9.542   2.168  63.573  1.00  0.00    -0.097 OA 
ENDROOT
BRANCH   2   3
HETATM    3  C   UNL     1      -9.107   2.878  64.662  1.00  0.00    -0.133 A  
HETATM    4  C   UNL     1      -8.361   4.066  64.658  1.00  0.00    -0.102 A  
HETATM    5  C   UNL     1      -8.040   4.658  65.881  1.00  0.00    -0.103 A  
HETATM    6  N   UNL     1      -8.806   4.318  69.596  1.00  0.00    -0.081 NA 
HETATM    7  C   UNL     1      -8.459   4.122  67.111  1.00  0.00    -0.100 A  
HETATM    8  C   UNL     1      -8.778   2.849  69.632  1.00  0.00    -0.075 C  
HETATM    9  C   UNL     1      -8.106   4.846  68.406  1.00  0.00    -0.085 C  
HETATM   10  C   UNL     1      -8.449   6.345  68.340  1.00  0.00    -0.116 C  
HETATM   11  C   UNL     1      -7.923   7.100  69.562  1.00  0.00    -0.128 C  
HETATM   12  C   UNL     1      -9.460   2.211  68.410  1.00  0.00    -0.226 C  
HETATM   13  C   UNL     1      -8.351   6.420  70.879  1.00  0.00    -0.126 C  
HETATM   14  C   UNL     1      -8.189   4.885  70.805  1.00  0.00    -0.094 C  
HETATM   15  C   UNL     1      -9.444   2.285  65.888  1.00  0.00     0.175 A  
HETATM   16  C   UNL     1      -9.109   2.887  67.112  1.00  0.00    -0.194 A  
BRANCH   4  17
HETATM   17  O   UNL     1      -7.910   4.571  63.466  1.00  0.00    -0.072 OA 
HETATM   18  C   UNL     1      -7.981   5.984  63.309  1.00  0.00    -0.109 C  
ENDBRANCH   4  17
BRANCH  11  19
HETATM   19  O   UNL     1      -8.474   8.442  69.527  1.00  0.00    -0.121 OA 
BRANCH  19  20
HETATM   20  C   UNL     1      -7.865   9.366  68.729  1.00  0.00    -0.084 C  
HETATM   21  O   UNL     1      -6.661   9.610  68.752  1.00  0.00    -0.051 OA 
BRANCH  20  22
HETATM   22  C   UNL     1      -8.863  10.082  67.778  1.00  0.00    -0.125 C  
HETATM   23  C   UNL     1     -10.473  10.676  69.676  1.00  0.00    -0.219 C  
HETATM   24  C   UNL     1     -11.312  10.720  67.339  1.00  0.00    -0.239 C  
HETATM   25  H2  UNL     1      -8.899   8.508  66.404  1.00  0.00     0.000 HD 
HETATM   26  H1  UNL     1      -9.424   9.990  65.783  1.00  0.00     0.000 HD 
HETATM   27  C   UNL     1     -10.325  10.028  68.294  1.00  0.00    -0.224 C  
HETATM   28  N   UNL     1      -8.768   9.519  66.408  1.00  0.00    -0.133 NA 
ENDBRANCH  20  22
ENDBRANCH  19  20
ENDBRANCH  11  19
BRANCH  13  29
HETATM   29  C   UNL     1      -7.546   6.937  72.099  1.00  0.00    -0.092 C  
HETATM   30  C   UNL     1      -7.163   8.590  73.961  1.00  0.00    -0.127 C  
HETATM   31  C   UNL     1      -9.506   7.912  73.405  1.00  0.00    -0.341 C  
HETATM   32  C   UNL     1      -8.110   8.165  72.835  1.00  0.00    -0.224 C  
ENDBRANCH  13  29
ENDBRANCH   2   3
TORSDOF 6
ENDMDL
MODEL      151
REMARK 921   NORMALIZED FREE ENERGY PREDICTED BY IDOCK:   -2.79 KCAL/MOL
REMARK 922        TOTAL FREE ENERGY PREDICTED BY IDOCK:   -4.59 KCAL/MOL
REMARK 923 INTER-LIGAND FREE ENERGY PREDICTED BY IDOCK:   -5.11 KCAL/MOL
REMARK 924 INTRA-LIGAND FREE ENERGY PREDICTED BY IDOCK:    0.52 KCAL/MOL
REMARK 927      BINDING AFFINITY PREDICTED BY RF-SCORE:    0.00 PKD
ROOT
HETATM    1  C   UNL     1      -8.172  16.085  66.577  1.00  0.00    -0.299 C  
HETATM    2  O   UNL     1      -9.149  15.286  67.236  1.00  0.00    -0.186 OA 
ENDROOT
BRANCH   2   3
HETATM    3  C   UNL     1      -8.902  13.939  67.304  1.00  0.00    -0.221 A  
HETATM    4  C   UNL     1      -8.135  13.265  68.265  1.00  0.00    -0.156 A  
HETATM    5  C   UNL     1      -8.028  11.876  68.181  1.00  0.00    -0.151 A  
HETATM    6  N   UNL     1      -9.475   8.934  66.242  1.00  0.00    -0.219 NA 
HETATM    7  C   UNL     1      -8.681  11.128  67.186  1.00  0.00    -0.141 A  
HETATM    8  C   UNL     1      -9.495   9.600  64.933  1.00  0.00    -0.220 C  
HETATM    9  C   UNL     1      -8.553   9.609  67.180  1.00  0.00    -0.132 C  
HETATM   10  C   UNL     1      -8.835   9.001  68.566  1.00  0.00    -0.134 C  
HETATM   11  C   UNL     1      -8.522   7.505  68.603  1.00  0.00    -0.129 C  
HETATM   12  C   UNL     1      -9.959  11.064  65.016  1.00  0.00    -0.340 C  
HETATM   13  C   UNL     1      -9.205   6.752  67.442  1.00  0.00    -0.130 C  
HETATM   14  C   UNL     1      -9.076   7.525  66.109  1.00  0.00    -0.137 C  
HETATM   15  C   UNL     1      -9.476  13.211  66.252  1.00  0.00    -0.194 A  
HETATM   16  C   UNL     1      -9.356  11.814  66.174  1.00  0.00    -0.236 A  
BRANCH   4  17
HETATM   17  O   UNL     1      -7.458  13.990  69.212  1.00  0.00    -0.063 OA 
HETATM   18  C   UNL     1      -6.058  13.748  69.314  1.00  0.00    -0.100 C  
ENDBRANCH   4  17
BRANCH  11  19
HETATM   19  O   UNL     1      -9.018   6.977  69.859  1.00  0.00    -0.142 OA 
BRANCH  19  20
HETATM   20  C   UNL     1     -10.267   6.429  69.878  1.00  0.00    -0.183 C  
HETATM   21  O   UNL     1     -11.243   6.920  69.316  1.00  0.00    -0.211 OA 
BRANCH  20  22
HETATM   22  C   UNL     1     -10.326   5.105  70.689  1.00  0.00    -0.235 C  
HETATM   23  C   UNL     1     -11.514   6.201  72.672  1.00  0.00    -0.277 C  
HETATM   24  C   UNL     1     -10.363   4.028  73.021  1.00  0.00    -0.240 C  
HETATM   25  H2  UNL     1      -8.305   4.667  70.384  1.00  0.00     0.000 HD 
HETATM   26  H1  UNL     1      -9.250   3.337  70.829  1.00  0.00     0.000 HD 
HETATM   27  C   UNL     1     -10.326   5.342  72.222  1.00  0.00    -0.265 C  
HETATM   28  N   UNL     1      -9.211   4.207  70.296  1.00  0.00    -0.119 NA 
ENDBRANCH  20  22
ENDBRANCH  19  20
ENDBRANCH  11  19
BRANCH  13  29
HETATM   29  C   UNL     1      -8.624   5.329  67.238  1.00  0.00    -0.105 C  
HETATM   30  C   UNL     1      -6.745   3.773  66.612  1.00  0.00    -0.046 C  
HETATM   31  C   UNL     1      -6.219   5.852  67.901  1.00  0.00    -0.032 C  
HETATM   32  C   UNL     1      -7.139   5.233  66.847  1.00  0.00    -0.066 C  
ENDBRANCH  13  29
ENDBRANCH   2   3
TORSDOF 6
ENDMDL
MODEL      152
REMARK 921   NORMALIZED FREE ENERGY PREDICTED BY IDOCK:   -2.77 KCAL/MOL
REMARK 922        TOTAL FREE ENERGY PREDICTED BY IDOCK:   -4.56 KCAL/MOL
REMARK 923 INTER-LIGAND FREE ENERGY PREDICTED BY IDOCK:   -5.30 KCAL/MOL
REMARK 924 INTRA-LIGAND FREE ENERGY PREDICTED BY IDOCK:    0.74 KCAL/MOL
REMARK 927      BINDING AFFINITY PREDICTED BY RF-SCORE:    0.00 PKD
ROOT
HETATM    1  C   UNL     1     -10.132   2.337  72.012  1.00  0.00    -0.140 C  
HETATM    2  O   UNL     1      -9.089   2.971  71.279  1.00  0.00    -0.090 OA 
ENDROOT
BRANCH   2   3
HETATM    3  C   UNL     1      -9.321   4.255  70.859  1.00  0.00    -0.150 A  
HETATM    4  C   UNL     1      -9.177   5.432  71.608  1.00  0.00    -0.146 A  
HETATM    5  C   UNL     1      -9.433   6.656  70.985  1.00  0.00    -0.168 A  
HETATM    6  N   UNL     1     -10.168   8.097  67.538  1.00  0.00    -0.222 NA 
HETATM    7  C   UNL     1      -9.802   6.751  69.633  1.00  0.00    -0.173 A  
HETATM    8  C   UNL     1     -11.067   7.019  67.102  1.00  0.00    -0.228 C  
HETATM    9  C   UNL     1     -10.026   8.123  69.009  1.00  0.00    -0.189 C  
HETATM   10  C   UNL     1      -8.864   9.088  69.307  1.00  0.00    -0.139 C  
HETATM   11  C   UNL     1      -9.176  10.512  68.843  1.00  0.00    -0.183 C  
HETATM   12  C   UNL     1     -10.568   5.624  67.514  1.00  0.00    -0.296 C  
HETATM   13  C   UNL     1      -9.650  10.541  67.375  1.00  0.00    -0.181 C  
HETATM   14  C   UNL     1     -10.656   9.406  67.079  1.00  0.00    -0.201 C  
HETATM   15  C   UNL     1      -9.783   4.335  69.537  1.00  0.00    -0.272 A  
HETATM   16  C   UNL     1     -10.044   5.572  68.925  1.00  0.00    -0.266 A  
BRANCH   4  17
HETATM   17  O   UNL     1      -8.862   5.346  72.939  1.00  0.00    -0.122 OA 
HETATM   18  C   UNL     1      -8.670   6.578  73.625  1.00  0.00    -0.124 C  
ENDBRANCH   4  17
BRANCH  11  19
HETATM   19  O   UNL     1      -7.961  11.295  68.959  1.00  0.00    -0.132 OA 
BRANCH  19  20
HETATM   20  C   UNL     1      -7.269  11.580  67.819  1.00  0.00    -0.094 C  
HETATM   21  O   UNL     1      -7.547  12.501  67.056  1.00  0.00    -0.119 OA 
BRANCH  20  22
HETATM   22  C   UNL     1      -6.077  10.611  67.588  1.00  0.00    -0.048 C  
HETATM   23  C   UNL     1      -6.845   9.997  65.225  1.00  0.00    -0.128 C  
HETATM   24  C   UNL     1      -5.245   8.497  66.389  1.00  0.00    -0.031 C  
HETATM   25  H2  UNL     1      -6.347   9.621  69.408  1.00  0.00     0.000 HD 
HETATM   26  H1  UNL     1      -4.812   9.426  68.728  1.00  0.00     0.000 HD 
HETATM   27  C   UNL     1      -6.421   9.465  66.600  1.00  0.00    -0.067 C  
HETATM   28  N   UNL     1      -5.595  10.063  68.880  1.00  0.00    -0.035 NA 
ENDBRANCH  20  22
ENDBRANCH  19  20
ENDBRANCH  11  19
BRANCH  13  29
HETATM   29  C   UNL     1     -10.313  11.891  66.995  1.00  0.00    -0.239 C  
HETATM   30  C   UNL     1     -12.241  13.509  67.070  1.00  0.00    -0.351 C  
HETATM   31  C   UNL     1     -11.669  12.209  69.129  1.00  0.00    -0.384 C  
HETATM   32  C   UNL     1     -11.697  12.180  67.601  1.00  0.00    -0.386 C  
ENDBRANCH  13  29
ENDBRANCH   2   3
TORSDOF 6
ENDMDL
MODEL      153
REMARK 921   NORMALIZED FREE ENERGY PREDICTED BY IDOCK:   -2.75 KCAL/MOL
REMARK 922        TOTAL FREE ENERGY PREDICTED BY IDOCK:   -4.53 KCAL/MOL
REMARK 923 INTER-LIGAND FREE ENERGY PREDICTED BY IDOCK:   -4.19 KCAL/MOL
REMARK 924 INTRA-LIGAND FREE ENERGY PREDICTED BY IDOCK:   -0.35 KCAL/MOL
REMARK 927      BINDING AFFINITY PREDICTED BY RF-SCORE:    0.00 PKD
ROOT
HETATM    1  C   UNL     1      -5.439   3.130  64.156  1.00  0.00    -0.009 C  
HETATM    2  O   UNL     1      -6.765   3.536  63.834  1.00  0.00    -0.040 OA 
ENDROOT
BRANCH   2   3
HETATM    3  C   UNL     1      -7.189   4.730  64.357  1.00  0.00    -0.055 A  
HETATM    4  C   UNL     1      -8.393   4.981  65.031  1.00  0.00    -0.140 A  
HETATM    5  C   UNL     1      -8.630   6.267  65.521  1.00  0.00    -0.124 A  
HETATM    6  N   UNL     1      -6.851   9.602  65.988  1.00  0.00    -0.086 NA 
HETATM    7  C   UNL     1      -7.696   7.308  65.387  1.00  0.00    -0.111 A  
HETATM    8  C   UNL     1      -6.143   9.587  64.700  1.00  0.00    -0.081 C  
HETATM    9  C   UNL     1      -8.004   8.677  65.984  1.00  0.00    -0.107 C  
HETATM   10  C   UNL     1      -8.474   8.576  67.446  1.00  0.00    -0.127 C  
HETATM   11  C   UNL     1      -8.961   9.924  67.980  1.00  0.00    -0.121 C  
HETATM   12  C   UNL     1      -5.584   8.200  64.344  1.00  0.00    -0.048 C  
HETATM   13  C   UNL     1      -7.925  11.040  67.734  1.00  0.00    -0.115 C  
HETATM   14  C   UNL     1      -7.324  10.957  66.312  1.00  0.00    -0.127 C  
HETATM   15  C   UNL     1      -6.295   5.788  64.133  1.00  0.00    -0.029 A  
HETATM   16  C   UNL     1      -6.548   7.079  64.626  1.00  0.00    -0.043 A  
BRANCH   4  17
HETATM   17  O   UNL     1      -9.329   3.984  65.127  1.00  0.00    -0.142 OA 
HETATM   18  C   UNL     1     -10.192   3.815  64.007  1.00  0.00    -0.229 C  
ENDBRANCH   4  17
BRANCH  11  19
HETATM   19  O   UNL     1      -9.172   9.787  69.408  1.00  0.00    -0.178 OA 
BRANCH  19  20
HETATM   20  C   UNL     1     -10.445   9.583  69.853  1.00  0.00    -0.240 C  
HETATM   21  O   UNL     1     -11.379  10.353  69.646  1.00  0.00    -0.242 OA 
BRANCH  20  22
HETATM   22  C   UNL     1     -10.592   8.259  70.653  1.00  0.00    -0.215 C  
HETATM   23  C   UNL     1      -8.362   8.575  71.868  1.00  0.00    -0.218 C  
HETATM   24  C   UNL     1      -9.373   6.308  71.796  1.00  0.00    -0.155 C  
HETATM   25  H2  UNL     1     -11.074   7.128  68.963  1.00  0.00     0.000 HD 
HETATM   26  H1  UNL     1     -11.527   6.421  70.429  1.00  0.00     0.000 HD 
HETATM   27  C   UNL     1      -9.223   7.628  71.022  1.00  0.00    -0.152 C  
HETATM   28  N   UNL     1     -11.430   7.290  69.904  1.00  0.00    -0.120 NA 
ENDBRANCH  20  22
ENDBRANCH  19  20
ENDBRANCH  11  19
BRANCH  13  29
HETATM   29  C   UNL     1      -8.527  12.457  67.925  1.00  0.00    -0.166 C  
HETATM   30  C   UNL     1      -9.858  14.428  67.095  1.00  0.00    -0.254 C  
HETATM   31  C   UNL     1     -10.630  12.117  66.526  1.00  0.00    -0.269 C  
HETATM   32  C   UNL     1      -9.407  12.998  66.785  1.00  0.00    -0.244 C  
ENDBRANCH  13  29
ENDBRANCH   2   3
TORSDOF 6
ENDMDL
MODEL      154
REMARK 921   NORMALIZED FREE ENERGY PREDICTED BY IDOCK:   -2.72 KCAL/MOL
REMARK 922        TOTAL FREE ENERGY PREDICTED BY IDOCK:   -4.50 KCAL/MOL
REMARK 923 INTER-LIGAND FREE ENERGY PREDICTED BY IDOCK:   -4.55 KCAL/MOL
REMARK 924 INTRA-LIGAND FREE ENERGY PREDICTED BY IDOCK:    0.05 KCAL/MOL
REMARK 927      BINDING AFFINITY PREDICTED BY RF-SCORE:    0.00 PKD
ROOT
HETATM    1  C   UNL     1      -6.311  15.370  68.503  1.00  0.00    -0.097 C  
HETATM    2  O   UNL     1      -5.317  14.496  69.027  1.00  0.00    -0.087 OA 
ENDROOT
BRANCH   2   3
HETATM    3  C   UNL     1      -5.585  13.152  68.972  1.00  0.00    -0.071 A  
HETATM    4  C   UNL     1      -5.716  12.268  70.052  1.00  0.00    -0.141 A  
HETATM    5  C   UNL     1      -6.025  10.932  69.789  1.00  0.00    -0.076 A  
HETATM    6  N   UNL     1      -7.037   8.669  66.898  1.00  0.00    -0.074 NA 
HETATM    7  C   UNL     1      -6.235  10.449  68.486  1.00  0.00    -0.047 A  
HETATM    8  C   UNL     1      -6.137   9.269  65.903  1.00  0.00    -0.055 C  
HETATM    9  C   UNL     1      -6.609   8.987  68.277  1.00  0.00    -0.060 C  
HETATM   10  C   UNL     1      -7.768   8.552  69.193  1.00  0.00    -0.091 C  
HETATM   11  C   UNL     1      -8.015   7.044  69.118  1.00  0.00    -0.119 C  
HETATM   12  C   UNL     1      -6.083  10.802  65.997  1.00  0.00    -0.133 C  
HETATM   13  C   UNL     1      -8.160   6.564  67.659  1.00  0.00    -0.118 C  
HETATM   14  C   UNL     1      -7.097   7.208  66.739  1.00  0.00    -0.078 C  
HETATM   15  C   UNL     1      -5.696  12.658  67.664  1.00  0.00    -0.136 A  
HETATM   16  C   UNL     1      -6.000  11.309  67.412  1.00  0.00    -0.062 A  
BRANCH   4  17
HETATM   17  O   UNL     1      -5.469  12.720  71.323  1.00  0.00    -0.287 OA 
HETATM   18  C   UNL     1      -6.004  13.997  71.656  1.00  0.00     0.005 C  
ENDBRANCH   4  17
BRANCH  11  19
HETATM   19  O   UNL     1      -9.246   6.758  69.829  1.00  0.00    -0.146 OA 
BRANCH  19  20
HETATM   20  C   UNL     1     -10.378   7.416  69.446  1.00  0.00    -0.210 C  
HETATM   21  O   UNL     1     -10.906   7.294  68.344  1.00  0.00    -0.159 OA 
BRANCH  20  22
HETATM   22  C   UNL     1     -10.936   8.343  70.562  1.00  0.00    -0.242 C  
HETATM   23  C   UNL     1     -12.160   6.430  71.741  1.00  0.00    -0.351 C  
HETATM   24  C   UNL     1     -12.841   8.767  72.231  1.00  0.00    -0.465 C  
HETATM   25  H2  UNL     1     -11.632   9.779  69.213  1.00  0.00     0.000 HD 
HETATM   26  H1  UNL     1     -11.435  10.342  70.795  1.00  0.00     0.000 HD 
HETATM   27  C   UNL     1     -12.283   7.837  71.142  1.00  0.00    -0.289 C  
HETATM   28  N   UNL     1     -11.069   9.734  70.062  1.00  0.00    -0.254 NA 
ENDBRANCH  20  22
ENDBRANCH  19  20
ENDBRANCH  11  19
BRANCH  13  29
HETATM   29  C   UNL     1      -8.044   5.022  67.531  1.00  0.00    -0.099 C  
HETATM   30  C   UNL     1      -9.061   2.749  67.150  1.00  0.00    -0.192 C  
HETATM   31  C   UNL     1      -9.895   4.690  65.810  1.00  0.00    -0.227 C  
HETATM   32  C   UNL     1      -9.327   4.257  67.162  1.00  0.00    -0.187 C  
ENDBRANCH  13  29
ENDBRANCH   2   3
TORSDOF 6
ENDMDL
MODEL      155
REMARK 921   NORMALIZED FREE ENERGY PREDICTED BY IDOCK:   -2.55 KCAL/MOL
REMARK 922        TOTAL FREE ENERGY PREDICTED BY IDOCK:   -4.27 KCAL/MOL
REMARK 923 INTER-LIGAND FREE ENERGY PREDICTED BY IDOCK:   -3.86 KCAL/MOL
REMARK 924 INTRA-LIGAND FREE ENERGY PREDICTED BY IDOCK:   -0.40 KCAL/MOL
REMARK 927      BINDING AFFINITY PREDICTED BY RF-SCORE:    0.00 PKD
ROOT
HETATM    1  C   UNL     1     -10.664   3.898  62.451  1.00  0.00    -0.178 C  
HETATM    2  O   UNL     1      -9.291   3.717  62.780  1.00  0.00    -0.095 OA 
ENDROOT
BRANCH   2   3
HETATM    3  C   UNL     1      -8.862   4.262  63.962  1.00  0.00    -0.138 A  
HETATM    4  C   UNL     1      -7.968   5.330  64.129  1.00  0.00    -0.112 A  
HETATM    5  C   UNL     1      -7.679   5.764  65.424  1.00  0.00    -0.091 A  
HETATM    6  N   UNL     1      -8.803   5.215  69.021  1.00  0.00    -0.092 NA 
HETATM    7  C   UNL     1      -8.270   5.188  66.561  1.00  0.00    -0.108 A  
HETATM    8  C   UNL     1      -8.973   3.759  68.916  1.00  0.00    -0.123 C  
HETATM    9  C   UNL     1      -7.939   5.740  67.943  1.00  0.00    -0.098 C  
HETATM   10  C   UNL     1      -8.073   7.273  67.998  1.00  0.00    -0.120 C  
HETATM   11  C   UNL     1      -7.560   7.839  69.323  1.00  0.00    -0.098 C  
HETATM   12  C   UNL     1      -9.624   3.330  67.591  1.00  0.00    -0.136 C  
HETATM   13  C   UNL     1      -8.188   7.114  70.533  1.00  0.00    -0.125 C  
HETATM   14  C   UNL     1      -8.224   5.583  70.322  1.00  0.00    -0.103 C  
HETATM   15  C   UNL     1      -9.380   3.618  65.095  1.00  0.00    -0.157 A  
HETATM   16  C   UNL     1      -9.076   4.060  66.394  1.00  0.00    -0.140 A  
BRANCH   4  17
HETATM   17  O   UNL     1      -7.353   5.868  63.028  1.00  0.00    -0.049 OA 
HETATM   18  C   UNL     1      -7.867   7.109  62.558  1.00  0.00    -0.129 C  
ENDBRANCH   4  17
BRANCH  11  19
HETATM   19  O   UNL     1      -7.923   9.242  69.378  1.00  0.00    -0.090 OA 
BRANCH  19  20
HETATM   20  C   UNL     1      -7.099  10.144  68.772  1.00  0.00    -0.075 C  
HETATM   21  O   UNL     1      -6.523   9.943  67.706  1.00  0.00    -0.062 OA 
BRANCH  20  22
HETATM   22  C   UNL     1      -6.965  11.465  69.578  1.00  0.00    -0.063 C  
HETATM   23  C   UNL     1      -7.365  12.932  67.520  1.00  0.00    -0.154 C  
HETATM   24  C   UNL     1      -6.295  13.945  69.520  1.00  0.00    -0.118 C  
HETATM   25  H2  UNL     1      -5.188  10.881  70.510  1.00  0.00     0.000 HD 
HETATM   26  H1  UNL     1      -6.010  12.131  71.295  1.00  0.00     0.000 HD 
HETATM   27  C   UNL     1      -6.445  12.644  68.713  1.00  0.00    -0.085 C  
HETATM   28  N   UNL     1      -6.098  11.263  70.766  1.00  0.00    -0.355 NA 
ENDBRANCH  20  22
ENDBRANCH  19  20
ENDBRANCH  11  19
BRANCH  13  29
HETATM   29  C   UNL     1      -7.430   7.406  71.854  1.00  0.00    -0.080 C  
HETATM   30  C   UNL     1      -7.321   8.372  74.178  1.00  0.00    -0.203 C  
HETATM   31  C   UNL     1      -9.430   7.255  73.426  1.00  0.00    -0.252 C  
HETATM   32  C   UNL     1      -8.229   8.088  72.978  1.00  0.00    -0.234 C  
ENDBRANCH  13  29
ENDBRANCH   2   3
TORSDOF 6
ENDMDL
MODEL      156
REMARK 921   NORMALIZED FREE ENERGY PREDICTED BY IDOCK:   -2.23 KCAL/MOL
REMARK 922        TOTAL FREE ENERGY PREDICTED BY IDOCK:   -3.83 KCAL/MOL
REMARK 923 INTER-LIGAND FREE ENERGY PREDICTED BY IDOCK:   -4.76 KCAL/MOL
REMARK 924 INTRA-LIGAND FREE ENERGY PREDICTED BY IDOCK:    0.93 KCAL/MOL
REMARK 927      BINDING AFFINITY PREDICTED BY RF-SCORE:    0.00 PKD
ROOT
HETATM    1  C   UNL     1      -9.670  15.950  67.008  1.00  0.00    -0.228 C  
HETATM    2  O   UNL     1     -10.291  14.809  66.426  1.00  0.00    -0.278 OA 
ENDROOT
BRANCH   2   3
HETATM    3  C   UNL     1      -9.984  13.591  66.976  1.00  0.00    -0.247 A  
HETATM    4  C   UNL     1     -10.768  12.428  66.953  1.00  0.00    -0.240 A  
HETATM    5  C   UNL     1     -10.262  11.270  67.546  1.00  0.00    -0.217 A  
HETATM    6  N   UNL     1      -7.053   9.929  69.098  1.00  0.00    -0.066 NA 
HETATM    7  C   UNL     1      -8.989  11.220  68.138  1.00  0.00    -0.166 A  
HETATM    8  C   UNL     1      -6.700  11.159  69.821  1.00  0.00    -0.121 C  
HETATM    9  C   UNL     1      -8.485   9.909  68.730  1.00  0.00    -0.122 C  
HETATM   10  C   UNL     1      -8.657   8.732  67.753  1.00  0.00    -0.129 C  
HETATM   11  C   UNL     1      -8.328   7.393  68.415  1.00  0.00    -0.125 C  
HETATM   12  C   UNL     1      -6.952  12.429  68.993  1.00  0.00    -0.071 C  
HETATM   13  C   UNL     1      -6.952   7.427  69.114  1.00  0.00    -0.076 C  
HETATM   14  C   UNL     1      -6.749   8.738  69.907  1.00  0.00    -0.045 C  
HETATM   15  C   UNL     1      -8.755  13.576  67.651  1.00  0.00    -0.194 A  
HETATM   16  C   UNL     1      -8.261  12.406  68.250  1.00  0.00    -0.170 A  
BRANCH   4  17
HETATM   17  O   UNL     1     -12.029  12.479  66.417  1.00  0.00    -0.516 OA 
HETATM   18  C   UNL     1     -12.117  12.412  64.997  1.00  0.00    -0.407 C  
ENDBRANCH   4  17
BRANCH  11  19
HETATM   19  O   UNL     1      -8.301   6.378  67.379  1.00  0.00    -0.112 OA 
BRANCH  19  20
HETATM   20  C   UNL     1      -8.132   6.782  66.087  1.00  0.00    -0.115 C  
HETATM   21  O   UNL     1      -7.399   7.707  65.745  1.00  0.00    -0.067 OA 
BRANCH  20  22
HETATM   22  C   UNL     1      -8.969   5.940  65.085  1.00  0.00     0.099 C  
HETATM   23  C   UNL     1     -10.909   5.644  66.727  1.00  0.00    -0.296 C  
HETATM   24  C   UNL     1     -10.730   4.093  64.796  1.00  0.00    -0.151 C  
HETATM   25  H2  UNL     1      -7.379   4.669  64.611  1.00  0.00     0.000 HD 
HETATM   26  H1  UNL     1      -8.628   4.682  63.472  1.00  0.00     0.000 HD 
HETATM   27  C   UNL     1      -9.919   4.938  65.792  1.00  0.00    -0.191 C  
HETATM   28  N   UNL     1      -8.078   5.235  64.130  1.00  0.00    -0.116 NA 
ENDBRANCH  20  22
ENDBRANCH  19  20
ENDBRANCH  11  19
BRANCH  13  29
HETATM   29  C   UNL     1      -6.755   6.235  70.087  1.00  0.00    -0.050 C  
HETATM   30  C   UNL     1      -7.278   5.012  72.226  1.00  0.00    -0.089 C  
HETATM   31  C   UNL     1      -9.136   6.143  70.990  1.00  0.00    -0.151 C  
HETATM   32  C   UNL     1      -7.648   6.203  71.338  1.00  0.00    -0.099 C  
ENDBRANCH  13  29
ENDBRANCH   2   3
TORSDOF 6
ENDMDL
MODEL      157
REMARK 921   NORMALIZED FREE ENERGY PREDICTED BY IDOCK:   -1.91 KCAL/MOL
REMARK 922        TOTAL FREE ENERGY PREDICTED BY IDOCK:   -3.40 KCAL/MOL
REMARK 923 INTER-LIGAND FREE ENERGY PREDICTED BY IDOCK:   -4.34 KCAL/MOL
REMARK 924 INTRA-LIGAND FREE ENERGY PREDICTED BY IDOCK:    0.94 KCAL/MOL
REMARK 927      BINDING AFFINITY PREDICTED BY RF-SCORE:    0.00 PKD
ROOT
HETATM    1  C   UNL     1      -9.030  15.226  67.848  1.00  0.00    -0.170 C  
HETATM    2  O   UNL     1      -9.004  14.231  66.830  1.00  0.00    -0.251 OA 
ENDROOT
BRANCH   2   3
HETATM    3  C   UNL     1      -8.696  12.954  67.221  1.00  0.00    -0.204 A  
HETATM    4  C   UNL     1      -7.973  12.567  68.358  1.00  0.00    -0.139 A  
HETATM    5  C   UNL     1      -7.790  11.204  68.602  1.00  0.00    -0.138 A  
HETATM    6  N   UNL     1      -8.933   7.812  67.302  1.00  0.00    -0.126 NA 
HETATM    7  C   UNL     1      -8.326  10.210  67.766  1.00  0.00    -0.114 A  
HETATM    8  C   UNL     1      -8.886   8.163  65.876  1.00  0.00    -0.158 C  
HETATM    9  C   UNL     1      -8.122   8.741  68.117  1.00  0.00    -0.107 C  
HETATM   10  C   UNL     1      -8.479   8.443  69.585  1.00  0.00    -0.127 C  
HETATM   11  C   UNL     1      -8.095   7.018  69.984  1.00  0.00    -0.128 C  
HETATM   12  C   UNL     1      -9.427   9.574  65.592  1.00  0.00    -0.326 C  
HETATM   13  C   UNL     1      -8.648   5.979  68.985  1.00  0.00    -0.120 C  
HETATM   14  C   UNL     1      -8.455   6.438  67.521  1.00  0.00    -0.116 C  
HETATM   15  C   UNL     1      -9.150  11.971  66.329  1.00  0.00    -0.165 A  
HETATM   16  C   UNL     1      -8.954  10.603  66.583  1.00  0.00    -0.162 A  
BRANCH   4  17
HETATM   17  O   UNL     1      -7.408  13.529  69.154  1.00  0.00    -0.049 OA 
HETATM   18  C   UNL     1      -5.986  13.538  69.226  1.00  0.00    -0.091 C  
ENDBRANCH   4  17
BRANCH  11  19
HETATM   19  O   UNL     1      -8.660   6.754  71.294  1.00  0.00    -0.124 OA 
BRANCH  19  20
HETATM   20  C   UNL     1      -8.261   5.628  71.951  1.00  0.00    -0.119 C  
HETATM   21  O   UNL     1      -7.088   5.306  72.117  1.00  0.00    -0.079 OA 
BRANCH  20  22
HETATM   22  C   UNL     1      -9.459   4.788  72.474  1.00  0.00    -0.136 C  
HETATM   23  C   UNL     1      -7.994   2.756  72.997  1.00  0.00    -0.055 C  
HETATM   24  C   UNL     1     -10.447   2.437  72.780  1.00  0.00    -0.232 C  
HETATM   25  H2  UNL     1     -10.660   5.211  70.817  1.00  0.00     0.000 HD 
HETATM   26  H1  UNL     1     -11.509   4.680  72.179  1.00  0.00     0.000 HD 
HETATM   27  C   UNL     1      -9.251   3.263  72.279  1.00  0.00    -0.156 C  
HETATM   28  N   UNL     1     -10.722   5.232  71.835  1.00  0.00    -0.214 NA 
ENDBRANCH  20  22
ENDBRANCH  19  20
ENDBRANCH  11  19
BRANCH  13  29
HETATM   29  C   UNL     1      -7.982   4.588  69.151  1.00  0.00    -0.069 C  
HETATM   30  C   UNL     1      -8.082   2.072  69.156  1.00  0.00    -0.060 C  
HETATM   31  C   UNL     1      -9.399   3.334  67.444  1.00  0.00    -0.242 C  
HETATM   32  C   UNL     1      -8.864   3.358  68.876  1.00  0.00    -0.164 C  
ENDBRANCH  13  29
ENDBRANCH   2   3
TORSDOF 6
ENDMDL
MODEL      158
REMARK 921   NORMALIZED FREE ENERGY PREDICTED BY IDOCK:   -1.40 KCAL/MOL
REMARK 922        TOTAL FREE ENERGY PREDICTED BY IDOCK:   -2.71 KCAL/MOL
REMARK 923 INTER-LIGAND FREE ENERGY PREDICTED BY IDOCK:   -2.83 KCAL/MOL
REMARK 924 INTRA-LIGAND FREE ENERGY PREDICTED BY IDOCK:    0.12 KCAL/MOL
REMARK 927      BINDING AFFINITY PREDICTED BY RF-SCORE:    0.00 PKD
ROOT
HETATM    1  C   UNL     1     -11.938  10.500  70.576  1.00  0.00    -0.342 C  
HETATM    2  O   UNL     1     -11.388  10.576  69.265  1.00  0.00    -0.240 OA 
ENDROOT
BRANCH   2   3
HETATM    3  C   UNL     1     -10.518   9.580  68.902  1.00  0.00    -0.216 A  
HETATM    4  C   UNL     1      -9.125   9.570  69.064  1.00  0.00    -0.144 A  
HETATM    5  C   UNL     1      -8.413   8.441  68.655  1.00  0.00    -0.128 A  
HETATM    6  N   UNL     1      -9.004   4.893  67.404  1.00  0.00    -0.107 NA 
HETATM    7  C   UNL     1      -9.042   7.308  68.114  1.00  0.00    -0.134 A  
HETATM    8  C   UNL     1     -10.137   5.220  66.527  1.00  0.00    -0.229 C  
HETATM    9  C   UNL     1      -8.205   6.094  67.727  1.00  0.00    -0.117 C  
HETATM   10  C   UNL     1      -7.244   5.674  68.855  1.00  0.00    -0.077 C  
HETATM   11  C   UNL     1      -6.277   4.581  68.397  1.00  0.00    -0.032 C  
HETATM   12  C   UNL     1     -11.109   6.229  67.161  1.00  0.00    -0.389 C  
HETATM   13  C   UNL     1      -7.023   3.400  67.742  1.00  0.00    -0.050 C  
HETATM   14  C   UNL     1      -8.129   3.889  66.780  1.00  0.00    -0.096 C  
HETATM   15  C   UNL     1     -11.143   8.494  68.273  1.00  0.00     0.306 A  
HETATM   16  C   UNL     1     -10.414   7.366  67.860  1.00  0.00    -0.265 A  
BRANCH   4  17
HETATM   17  O   UNL     1      -8.498  10.689  69.549  1.00  0.00    -0.104 OA 
HETATM   18  C   UNL     1      -7.294  11.075  68.894  1.00  0.00    -0.111 C  
ENDBRANCH   4  17
BRANCH  11  19
HETATM   19  O   UNL     1      -5.567   4.097  69.566  1.00  0.00    -0.015 OA 
BRANCH  19  20
HETATM   20  C   UNL     1      -6.151   3.116  70.312  1.00  0.00    -0.023 C  
HETATM   21  O   UNL     1      -5.851   1.927  70.243  1.00  0.00    -0.017 OA 
BRANCH  20  22
HETATM   22  C   UNL     1      -7.243   3.667  71.270  1.00  0.00    -0.033 C  
HETATM   23  C   UNL     1      -5.533   4.459  73.001  1.00  0.00    -0.008 C  
HETATM   24  C   UNL     1      -7.897   4.163  73.704  1.00  0.00    -0.085 C  
HETATM   25  H2  UNL     1      -8.391   1.922  71.188  1.00  0.00     0.000 HD 
HETATM   26  H1  UNL     1      -9.234   3.290  71.711  1.00  0.00     0.000 HD 
HETATM   27  C   UNL     1      -6.805   3.636  72.758  1.00  0.00    -0.038 C  
HETATM   28  N   UNL     1      -8.517   2.928  71.082  1.00  0.00    -0.061 NA 
ENDBRANCH  20  22
ENDBRANCH  19  20
ENDBRANCH  11  19
BRANCH  13  29
HETATM   29  C   UNL     1      -6.069   2.465  66.953  1.00  0.00    -0.024 C  
HETATM   30  C   UNL     1      -5.191   1.508  64.795  1.00  0.00    -0.005 C  
HETATM   31  C   UNL     1      -5.792   3.935  64.890  1.00  0.00    -0.022 C  
HETATM   32  C   UNL     1      -6.134   2.541  65.418  1.00  0.00    -0.023 C  
ENDBRANCH  13  29
ENDBRANCH   2   3
TORSDOF 6
ENDMDL
MODEL      159
REMARK 921   NORMALIZED FREE ENERGY PREDICTED BY IDOCK:   -1.13 KCAL/MOL
REMARK 922        TOTAL FREE ENERGY PREDICTED BY IDOCK:   -2.35 KCAL/MOL
REMARK 923 INTER-LIGAND FREE ENERGY PREDICTED BY IDOCK:   -3.55 KCAL/MOL
REMARK 924 INTRA-LIGAND FREE ENERGY PREDICTED BY IDOCK:    1.19 KCAL/MOL
REMARK 927      BINDING AFFINITY PREDICTED BY RF-SCORE:    0.00 PKD
ROOT
HETATM    1  C   UNL     1     -12.003  11.646  64.209  1.00  0.00    -0.092 C  
HETATM    2  O   UNL     1     -11.056  11.429  65.248  1.00  0.00    -0.230 OA 
ENDROOT
BRANCH   2   3
HETATM    3  C   UNL     1     -10.351  12.522  65.681  1.00  0.00    -0.271 A  
HETATM    4  C   UNL     1     -10.582  13.865  65.351  1.00  0.00    -0.335 A  
HETATM    5  C   UNL     1      -9.768  14.844  65.924  1.00  0.00    -0.366 A  
HETATM    6  N   UNL     1      -7.054  15.224  68.568  1.00  0.00    -0.107 NA 
HETATM    7  C   UNL     1      -8.745  14.535  66.837  1.00  0.00    -0.237 A  
HETATM    8  C   UNL     1      -6.336  13.984  68.240  1.00  0.00    -0.114 C  
HETATM    9  C   UNL     1      -7.922  15.659  67.454  1.00  0.00    -0.178 C  
HETATM   10  C   UNL     1      -8.812  16.781  68.021  1.00  0.00    -0.216 C  
HETATM   11  C   UNL     1      -7.986  17.988  68.467  1.00  0.00    -0.303 C  
HETATM   12  C   UNL     1      -7.283  12.809  67.944  1.00  0.00    -0.120 C  
HETATM   13  C   UNL     1      -6.833  17.574  69.405  1.00  0.00    -0.140 C  
HETATM   14  C   UNL     1      -6.111  16.305  68.894  1.00  0.00    -0.131 C  
HETATM   15  C   UNL     1      -9.270  12.197  66.513  1.00  0.00    -0.216 A  
HETATM   16  C   UNL     1      -8.453  13.191  67.078  1.00  0.00    -0.139 A  
BRANCH   4  17
HETATM   17  O   UNL     1     -11.548  14.173  64.428  1.00  0.00    -0.389 OA 
HETATM   18  C   UNL     1     -12.022  15.515  64.430  1.00  0.00    -0.183 C  
ENDBRANCH   4  17
BRANCH  11  19
HETATM   19  O   UNL     1      -8.868  18.892  69.181  1.00  0.00    -0.186 OA 
BRANCH  19  20
HETATM   20  C   UNL     1      -9.805  19.576  68.464  1.00  0.00    -0.429 C  
HETATM   21  O   UNL     1     -11.010  19.543  68.696  1.00  0.00     0.330 OA 
BRANCH  20  22
HETATM   22  C   UNL     1      -9.180  20.413  67.313  1.00  0.00    -0.394 C  
HETATM   23  C   UNL     1     -10.476  19.156  65.499  1.00  0.00    -0.082 C  
HETATM   24  C   UNL     1      -8.459  20.450  64.848  1.00  0.00     1.530 C  
HETATM   25  H2  UNL     1      -7.225  20.167  68.009  1.00  0.00     0.000 HD 
HETATM   26  H1  UNL     1      -7.432  21.469  66.952  1.00  0.00     0.000 HD 
HETATM   27  C   UNL     1      -9.096  19.626  65.979  1.00  0.00    -0.288 C  
HETATM   28  N   UNL     1      -7.843  20.920  67.708  1.00  0.00    -0.088 NA 
ENDBRANCH  20  22
ENDBRANCH  19  20
ENDBRANCH  11  19
BRANCH  13  29
HETATM   29  C   UNL     1      -5.778  18.698  69.576  1.00  0.00    -0.246 C  
HETATM   30  C   UNL     1      -5.141  21.073  70.123  1.00  0.00    -0.358 C  
HETATM   31  C   UNL     1      -6.937  19.959  71.463  1.00  0.00     0.800 C  
HETATM   32  C   UNL     1      -6.287  20.058  70.082  1.00  0.00    -0.368 C  
ENDBRANCH  13  29
ENDBRANCH   2   3
TORSDOF 6
ENDMDL
MODEL      160
REMARK 921   NORMALIZED FREE ENERGY PREDICTED BY IDOCK:   -0.77 KCAL/MOL
REMARK 922        TOTAL FREE ENERGY PREDICTED BY IDOCK:   -1.86 KCAL/MOL
REMARK 923 INTER-LIGAND FREE ENERGY PREDICTED BY IDOCK:   -6.54 KCAL/MOL
REMARK 924 INTRA-LIGAND FREE ENERGY PREDICTED BY IDOCK:    4.68 KCAL/MOL
REMARK 927      BINDING AFFINITY PREDICTED BY RF-SCORE:    0.00 PKD
ROOT
HETATM    1  C   UNL     1     -12.933  11.979  63.251  1.00  0.00    -0.040 C  
HETATM    2  O   UNL     1     -13.087  12.387  64.606  1.00  0.00    -0.825 OA 
ENDROOT
BRANCH   2   3
HETATM    3  C   UNL     1     -12.052  13.097  65.159  1.00  0.00    -0.421 A  
HETATM    4  C   UNL     1     -10.743  13.209  64.669  1.00  0.00    -0.380 A  
HETATM    5  C   UNL     1      -9.835  14.011  65.363  1.00  0.00    -0.216 A  
HETATM    6  N   UNL     1      -9.724  16.496  68.247  1.00  0.00    -0.226 NA 
HETATM    7  C   UNL     1     -10.192  14.728  66.517  1.00  0.00    -0.281 A  
HETATM    8  C   UNL     1     -10.650  15.765  69.124  1.00  0.00    -0.242 C  
HETATM    9  C   UNL     1      -9.160  15.617  67.201  1.00  0.00    -0.210 C  
HETATM   10  C   UNL     1      -8.448  16.547  66.202  1.00  0.00    -0.320 C  
HETATM   11  C   UNL     1      -7.287  17.298  66.855  1.00  0.00    -0.205 C  
HETATM   12  C   UNL     1     -11.848  15.173  68.363  1.00  0.00    -0.293 C  
HETATM   13  C   UNL     1      -7.725  18.001  68.157  1.00  0.00    -0.274 C  
HETATM   14  C   UNL     1      -8.623  17.087  69.023  1.00  0.00    -0.126 C  
HETATM   15  C   UNL     1     -12.389  13.731  66.364  1.00  0.00    -0.460 A  
HETATM   16  C   UNL     1     -11.465  14.529  67.057  1.00  0.00    -0.383 A  
BRANCH   4  17
HETATM   17  O   UNL     1     -10.373  12.477  63.570  1.00  0.00    -0.407 OA 
HETATM   18  C   UNL     1      -9.903  11.156  63.817  1.00  0.00    -0.331 C  
ENDBRANCH   4  17
BRANCH  11  19
HETATM   19  O   UNL     1      -6.821  18.301  65.916  1.00  0.00    -0.254 OA 
BRANCH  19  20
HETATM   20  C   UNL     1      -7.599  19.402  65.712  1.00  0.00    -0.196 C  
HETATM   21  O   UNL     1      -7.493  20.151  64.745  1.00  0.00    -0.118 OA 
BRANCH  20  22
HETATM   22  C   UNL     1      -8.646  19.609  66.841  1.00  0.00    -0.315 C  
HETATM   23  C   UNL     1     -10.548  18.590  65.465  1.00  0.00     0.009 C  
HETATM   24  C   UNL     1     -11.116  20.020  67.415  1.00  0.00     0.062 C  
HETATM   25  H2  UNL     1      -8.113  21.605  67.160  1.00  0.00     0.000 HD 
HETATM   26  H1  UNL     1      -8.948  20.890  68.444  1.00  0.00     0.000 HD 
HETATM   27  C   UNL     1     -10.086  19.795  66.295  1.00  0.00    -0.601 C  
HETATM   28  N   UNL     1      -8.260  20.754  67.703  1.00  0.00    -0.147 NA 
ENDBRANCH  20  22
ENDBRANCH  19  20
ENDBRANCH  11  19
BRANCH  13  29
HETATM   29  C   UNL     1      -6.517  18.453  69.019  1.00  0.00    -0.254 C  
HETATM   30  C   UNL     1      -5.347  20.136  70.482  1.00  0.00    -0.301 C  
HETATM   31  C   UNL     1      -7.819  19.831  70.722  1.00  0.00     1.573 C  
HETATM   32  C   UNL     1      -6.645  19.804  69.742  1.00  0.00    -0.357 C  
ENDBRANCH  13  29
ENDBRANCH   2   3
TORSDOF 6
ENDMDL
MODEL      161
REMARK 921   NORMALIZED FREE ENERGY PREDICTED BY IDOCK:   -0.60 KCAL/MOL
REMARK 922        TOTAL FREE ENERGY PREDICTED BY IDOCK:   -1.63 KCAL/MOL
REMARK 923 INTER-LIGAND FREE ENERGY PREDICTED BY IDOCK:   -2.33 KCAL/MOL
REMARK 924 INTRA-LIGAND FREE ENERGY PREDICTED BY IDOCK:    0.70 KCAL/MOL
REMARK 927      BINDING AFFINITY PREDICTED BY RF-SCORE:    0.00 PKD
ROOT
HETATM    1  C   UNL     1     -11.118   7.413  74.021  1.00  0.00     1.445 C  
HETATM    2  O   UNL     1     -11.719   7.318  72.735  1.00  0.00    -0.219 OA 
ENDROOT
BRANCH   2   3
HETATM    3  C   UNL     1     -10.911   7.562  71.655  1.00  0.00    -0.219 A  
HETATM    4  C   UNL     1      -9.723   6.898  71.317  1.00  0.00    -0.172 A  
HETATM    5  C   UNL     1      -9.055   7.274  70.150  1.00  0.00    -0.148 A  
HETATM    6  N   UNL     1      -9.522   9.489  67.087  1.00  0.00    -0.145 NA 
HETATM    7  C   UNL     1      -9.543   8.274  69.291  1.00  0.00    -0.164 A  
HETATM    8  C   UNL     1     -10.139  10.617  67.798  1.00  0.00    -0.174 C  
HETATM    9  C   UNL     1      -8.782   8.604  68.012  1.00  0.00    -0.141 C  
HETATM   10  C   UNL     1      -8.435   7.340  67.205  1.00  0.00    -0.118 C  
HETATM   11  C   UNL     1      -7.513   7.656  66.027  1.00  0.00    -0.082 C  
HETATM   12  C   UNL     1     -11.150  10.166  68.866  1.00  0.00    -0.251 C  
HETATM   13  C   UNL     1      -8.064   8.812  65.167  1.00  0.00    -0.133 C  
HETATM   14  C   UNL     1      -8.602   9.967  66.043  1.00  0.00    -0.136 C  
HETATM   15  C   UNL     1     -11.352   8.627  70.855  1.00  0.00    -0.314 A  
HETATM   16  C   UNL     1     -10.667   9.000  69.687  1.00  0.00    -0.228 A  
BRANCH   4  17
HETATM   17  O   UNL     1      -9.216   5.953  72.172  1.00  0.00    -0.146 OA 
HETATM   18  C   UNL     1      -8.101   6.349  72.963  1.00  0.00    -0.106 C  
ENDBRANCH   4  17
BRANCH  11  19
HETATM   19  O   UNL     1      -7.417   6.465  65.204  1.00  0.00    -0.074 OA 
BRANCH  19  20
HETATM   20  C   UNL     1      -8.353   5.488  65.376  1.00  0.00    -0.142 C  
HETATM   21  O   UNL     1      -9.541   5.704  65.602  1.00  0.00    -0.048 OA 
BRANCH  20  22
HETATM   22  C   UNL     1      -7.755   4.060  65.250  1.00  0.00    -0.085 C  
HETATM   23  C   UNL     1      -7.608   3.740  67.785  1.00  0.00    -0.067 C  
HETATM   24  C   UNL     1      -6.243   2.276  66.315  1.00  0.00    -0.024 C  
HETATM   25  H2  UNL     1      -6.302   4.639  63.864  1.00  0.00     0.000 HD 
HETATM   26  H1  UNL     1      -6.622   2.980  63.890  1.00  0.00     0.000 HD 
HETATM   27  C   UNL     1      -6.850   3.683  66.453  1.00  0.00    -0.054 C  
HETATM   28  N   UNL     1      -7.015   3.918  63.972  1.00  0.00    -0.045 NA 
ENDBRANCH  20  22
ENDBRANCH  19  20
ENDBRANCH  11  19
BRANCH  13  29
HETATM   29  C   UNL     1      -6.997   9.391  64.201  1.00  0.00    -0.099 C  
HETATM   30  C   UNL     1      -5.199   9.106  62.460  1.00  0.00    -0.077 C  
HETATM   31  C   UNL     1      -7.222   7.637  62.366  1.00  0.00    -0.084 C  
HETATM   32  C   UNL     1      -6.265   8.388  63.292  1.00  0.00    -0.081 C  
ENDBRANCH  13  29
ENDBRANCH   2   3
TORSDOF 6
ENDMDL
MODEL      162
REMARK 921   NORMALIZED FREE ENERGY PREDICTED BY IDOCK:   -0.19 KCAL/MOL
REMARK 922        TOTAL FREE ENERGY PREDICTED BY IDOCK:   -1.07 KCAL/MOL
REMARK 923 INTER-LIGAND FREE ENERGY PREDICTED BY IDOCK:   -2.10 KCAL/MOL
REMARK 924 INTRA-LIGAND FREE ENERGY PREDICTED BY IDOCK:    1.02 KCAL/MOL
REMARK 927      BINDING AFFINITY PREDICTED BY RF-SCORE:    0.00 PKD
ROOT
HETATM    1  C   UNL     1     -12.895  11.392  70.060  1.00  0.00     0.175 C  
HETATM    2  O   UNL     1     -12.181  11.350  68.829  1.00  0.00    -0.502 OA 
ENDROOT
BRANCH   2   3
HETATM    3  C   UNL     1     -11.183  10.416  68.725  1.00  0.00    -0.241 A  
HETATM    4  C   UNL     1      -9.800  10.647  68.746  1.00  0.00    -0.191 A  
HETATM    5  C   UNL     1      -8.938   9.552  68.658  1.00  0.00    -0.132 A  
HETATM    6  N   UNL     1      -9.020   5.744  68.689  1.00  0.00    -0.113 NA 
HETATM    7  C   UNL     1      -9.406   8.229  68.578  1.00  0.00    -0.138 A  
HETATM    8  C   UNL     1     -10.230   5.604  67.867  1.00  0.00    -0.187 C  
HETATM    9  C   UNL     1      -8.406   7.080  68.526  1.00  0.00    -0.121 C  
HETATM   10  C   UNL     1      -7.339   7.194  69.630  1.00  0.00    -0.085 C  
HETATM   11  C   UNL     1      -6.234   6.150  69.460  1.00  0.00    -0.033 C  
HETATM   12  C   UNL     1     -11.318   6.628  68.231  1.00  0.00    -0.094 C  
HETATM   13  C   UNL     1      -6.813   4.730  69.299  1.00  0.00    -0.050 C  
HETATM   14  C   UNL     1      -8.028   4.715  68.342  1.00  0.00    -0.080 C  
HETATM   15  C   UNL     1     -11.657   9.109  68.546  1.00  0.00     0.934 A  
HETATM   16  C   UNL     1     -10.780   8.016  68.452  1.00  0.00    -0.070 A  
BRANCH   4  17
HETATM   17  O   UNL     1      -9.335  11.936  68.779  1.00  0.00    -0.111 OA 
HETATM   18  C   UNL     1      -9.263  12.616  67.530  1.00  0.00    -0.190 C  
ENDBRANCH   4  17
BRANCH  11  19
HETATM   19  O   UNL     1      -5.402   6.185  70.648  1.00  0.00    -0.013 OA 
BRANCH  19  20
HETATM   20  C   UNL     1      -5.916   5.683  71.807  1.00  0.00    -0.026 C  
HETATM   21  O   UNL     1      -5.365   4.823  72.489  1.00  0.00    -0.007 OA 
BRANCH  20  22
HETATM   22  C   UNL     1      -7.281   6.323  72.181  1.00  0.00    -0.091 C  
HETATM   23  C   UNL     1      -6.207   8.502  72.983  1.00  0.00    -0.102 C  
HETATM   24  C   UNL     1      -8.521   7.971  73.712  1.00  0.00    -0.317 C  
HETATM   25  H2  UNL     1      -7.930   4.650  73.251  1.00  0.00     0.000 HD 
HETATM   26  H1  UNL     1      -9.169   5.691  72.763  1.00  0.00     0.000 HD 
HETATM   27  C   UNL     1      -7.164   7.355  73.332  1.00  0.00    -0.089 C  
HETATM   28  N   UNL     1      -8.272   5.271  72.518  1.00  0.00    -0.113 NA 
ENDBRANCH  20  22
ENDBRANCH  19  20
ENDBRANCH  11  19
BRANCH  13  29
HETATM   29  C   UNL     1      -5.763   3.720  68.767  1.00  0.00    -0.022 C  
HETATM   30  C   UNL     1      -5.129   1.682  67.430  1.00  0.00    -0.004 C  
HETATM   31  C   UNL     1      -6.875   3.230  66.527  1.00  0.00    -0.053 C  
HETATM   32  C   UNL     1      -6.268   2.637  67.799  1.00  0.00    -0.031 C  
ENDBRANCH  13  29
ENDBRANCH   2   3
TORSDOF 6
ENDMDL
MODEL      163
REMARK 921   NORMALIZED FREE ENERGY PREDICTED BY IDOCK:    0.18 KCAL/MOL
REMARK 922        TOTAL FREE ENERGY PREDICTED BY IDOCK:   -0.58 KCAL/MOL
REMARK 923 INTER-LIGAND FREE ENERGY PREDICTED BY IDOCK:   -0.82 KCAL/MOL
REMARK 924 INTRA-LIGAND FREE ENERGY PREDICTED BY IDOCK:    0.24 KCAL/MOL
REMARK 927      BINDING AFFINITY PREDICTED BY RF-SCORE:    0.00 PKD
ROOT
HETATM    1  C   UNL     1     -10.895   4.277  63.711  1.00  0.00     0.198 C  
HETATM    2  O   UNL     1      -9.735   3.809  64.391  1.00  0.00    -0.157 OA 
ENDROOT
BRANCH   2   3
HETATM    3  C   UNL     1      -9.063   4.721  65.165  1.00  0.00    -0.155 A  
HETATM    4  C   UNL     1      -8.284   5.799  64.721  1.00  0.00    -0.135 A  
HETATM    5  C   UNL     1      -7.702   6.640  65.672  1.00  0.00    -0.095 A  
HETATM    6  N   UNL     1      -7.730   7.285  69.426  1.00  0.00    -0.104 NA 
HETATM    7  C   UNL     1      -7.891   6.460  67.053  1.00  0.00    -0.104 A  
HETATM    8  C   UNL     1      -7.757   5.873  69.831  1.00  0.00    -0.088 C  
HETATM    9  C   UNL     1      -7.259   7.441  68.033  1.00  0.00    -0.090 C  
HETATM   10  C   UNL     1      -7.545   8.905  67.649  1.00  0.00    -0.093 C  
HETATM   11  C   UNL     1      -6.757   9.884  68.520  1.00  0.00    -0.055 C  
HETATM   12  C   UNL     1      -8.694   5.021  68.958  1.00  0.00    -0.101 C  
HETATM   13  C   UNL     1      -6.943   9.586  70.022  1.00  0.00    -0.081 C  
HETATM   14  C   UNL     1      -6.863   8.071  70.317  1.00  0.00    -0.037 C  
HETATM   15  C   UNL     1      -9.176   4.477  66.541  1.00  0.00    -0.138 A  
HETATM   16  C   UNL     1      -8.580   5.326  67.488  1.00  0.00    -0.104 A  
BRANCH   4  17
HETATM   17  O   UNL     1      -8.058   5.956  63.378  1.00  0.00    -0.116 OA 
HETATM   18  C   UNL     1      -7.887   7.291  62.916  1.00  0.00    -0.128 C  
ENDBRANCH   4  17
BRANCH  11  19
HETATM   19  O   UNL     1      -7.246  11.221  68.242  1.00  0.00    -0.073 OA 
BRANCH  19  20
HETATM   20  C   UNL     1      -8.367  11.348  67.477  1.00  0.00    -0.137 C  
HETATM   21  O   UNL     1      -8.490  10.875  66.350  1.00  0.00    -0.151 OA 
BRANCH  20  22
HETATM   22  C   UNL     1      -9.485  12.161  68.187  1.00  0.00    -0.205 C  
HETATM   23  C   UNL     1     -10.557  10.073  69.207  1.00  0.00    -0.249 C  
HETATM   24  C   UNL     1     -11.900  12.157  69.064  1.00  0.00    -0.361 C  
HETATM   25  H2  UNL     1      -9.980  13.246  66.471  1.00  0.00     0.000 HD 
HETATM   26  H1  UNL     1     -10.493  13.953  67.918  1.00  0.00     0.000 HD 
HETATM   27  C   UNL     1     -10.789  11.343  68.379  1.00  0.00    -0.248 C  
HETATM   28  N   UNL     1      -9.759  13.420  67.451  1.00  0.00    -0.217 NA 
ENDBRANCH  20  22
ENDBRANCH  19  20
ENDBRANCH  11  19
BRANCH  13  29
HETATM   29  C   UNL     1      -5.891  10.309  70.903  1.00  0.00    -0.074 C  
HETATM   30  C   UNL     1      -5.145  11.310  73.090  1.00  0.00     0.464 C  
HETATM   31  C   UNL     1      -6.490   9.200  73.118  1.00  0.00     0.302 C  
HETATM   32  C   UNL     1      -6.250  10.520  72.383  1.00  0.00     1.708 C  
ENDBRANCH  13  29
ENDBRANCH   2   3
TORSDOF 6
ENDMDL
MODEL      164
REMARK 921   NORMALIZED FREE ENERGY PREDICTED BY IDOCK:    0.33 KCAL/MOL
REMARK 922        TOTAL FREE ENERGY PREDICTED BY IDOCK:   -0.38 KCAL/MOL
REMARK 923 INTER-LIGAND FREE ENERGY PREDICTED BY IDOCK:   -0.24 KCAL/MOL
REMARK 924 INTRA-LIGAND FREE ENERGY PREDICTED BY IDOCK:   -0.14 KCAL/MOL
REMARK 927      BINDING AFFINITY PREDICTED BY RF-SCORE:    0.00 PKD
ROOT
HETATM    1  C   UNL     1     -13.636  11.678  63.520  1.00  0.00     1.259 C  
HETATM    2  O   UNL     1     -13.533  11.922  64.919  1.00  0.00     0.461 OA 
ENDROOT
BRANCH   2   3
HETATM    3  C   UNL     1     -12.514  12.743  65.329  1.00  0.00    -0.465 A  
HETATM    4  C   UNL     1     -11.953  13.817  64.624  1.00  0.00    -0.416 A  
HETATM    5  C   UNL     1     -10.937  14.558  65.231  1.00  0.00    -0.366 A  
HETATM    6  N   UNL     1      -9.173  14.919  68.587  1.00  0.00    -0.188 NA 
HETATM    7  C   UNL     1     -10.476  14.282  66.529  1.00  0.00    -0.287 A  
HETATM    8  C   UNL     1      -9.112  13.482  68.890  1.00  0.00     0.221 C  
HETATM    9  C   UNL     1      -9.392  15.159  67.144  1.00  0.00    -0.212 C  
HETATM   10  C   UNL     1      -9.715  16.658  67.007  1.00  0.00    -0.253 C  
HETATM   11  C   UNL     1      -8.544  17.534  67.453  1.00  0.00    -0.220 C  
HETATM   12  C   UNL     1     -10.406  12.739  68.519  1.00  0.00    -0.231 C  
HETATM   13  C   UNL     1      -8.033  17.132  68.853  1.00  0.00    -0.208 C  
HETATM   14  C   UNL     1      -7.936  15.597  69.004  1.00  0.00    -0.208 C  
HETATM   15  C   UNL     1     -11.992  12.400  66.586  1.00  0.00    -0.300 A  
HETATM   16  C   UNL     1     -10.965  13.149  67.183  1.00  0.00    -0.289 A  
BRANCH   4  17
HETATM   17  O   UNL     1     -12.365  14.065  63.340  1.00  0.00    -0.748 OA 
HETATM   18  C   UNL     1     -12.573  15.430  62.994  1.00  0.00     3.127 C  
ENDBRANCH   4  17
BRANCH  11  19
HETATM   19  O   UNL     1      -9.007  18.908  67.500  1.00  0.00    -0.281 OA 
BRANCH  19  20
HETATM   20  C   UNL     1      -9.010  19.625  66.340  1.00  0.00    -0.378 C  
HETATM   21  O   UNL     1      -9.868  19.520  65.467  1.00  0.00    -0.303 OA 
BRANCH  20  22
HETATM   22  C   UNL     1      -7.806  20.601  66.239  1.00  0.00     0.110 C  
HETATM   23  C   UNL     1      -6.578  19.140  64.534  1.00  0.00     0.386 C  
HETATM   24  C   UNL     1      -5.287  20.847  65.795  1.00  0.00    -0.245 C  
HETATM   25  H2  UNL     1      -7.580  20.758  68.311  1.00  0.00     0.000 HD 
HETATM   26  H1  UNL     1      -6.863  22.011  67.433  1.00  0.00     0.000 HD 
HETATM   27  C   UNL     1      -6.481  19.880  65.874  1.00  0.00    -0.240 C  
HETATM   28  N   UNL     1      -7.654  21.370  67.499  1.00  0.00    -0.245 NA 
ENDBRANCH  20  22
ENDBRANCH  19  20
ENDBRANCH  11  19
BRANCH  13  29
HETATM   29  C   UNL     1      -6.642  17.741  69.171  1.00  0.00    -0.246 C  
HETATM   30  C   UNL     1      -5.147  19.706  69.670  1.00  0.00    -0.199 C  
HETATM   31  C   UNL     1      -7.446  19.652  70.654  1.00  0.00     1.070 C  
HETATM   32  C   UNL     1      -6.593  19.253  69.449  1.00  0.00    -0.348 C  
ENDBRANCH  13  29
ENDBRANCH   2   3
TORSDOF 6
ENDMDL
MODEL      165
REMARK 921   NORMALIZED FREE ENERGY PREDICTED BY IDOCK:    0.45 KCAL/MOL
REMARK 922        TOTAL FREE ENERGY PREDICTED BY IDOCK:   -0.21 KCAL/MOL
REMARK 923 INTER-LIGAND FREE ENERGY PREDICTED BY IDOCK:   -3.41 KCAL/MOL
REMARK 924 INTRA-LIGAND FREE ENERGY PREDICTED BY IDOCK:    3.20 KCAL/MOL
REMARK 927      BINDING AFFINITY PREDICTED BY RF-SCORE:    0.00 PKD
ROOT
HETATM    1  C   UNL     1     -10.551   2.192  72.694  1.00  0.00    -0.112 C  
HETATM    2  O   UNL     1     -11.141   3.486  72.633  1.00  0.00     0.084 OA 
ENDROOT
BRANCH   2   3
HETATM    3  C   UNL     1     -10.482   4.431  71.890  1.00  0.00    -0.031 A  
HETATM    4  C   UNL     1      -9.719   4.220  70.733  1.00  0.00    -0.204 A  
HETATM    5  C   UNL     1      -9.149   5.325  70.097  1.00  0.00    -0.168 A  
HETATM    6  N   UNL     1      -9.185   9.131  70.236  1.00  0.00    -0.199 NA 
HETATM    7  C   UNL     1      -9.335   6.639  70.559  1.00  0.00    -0.167 A  
HETATM    8  C   UNL     1      -9.192   9.238  71.701  1.00  0.00     0.165 C  
HETATM    9  C   UNL     1      -8.717   7.801  69.791  1.00  0.00    -0.139 C  
HETATM   10  C   UNL     1      -9.023   7.725  68.284  1.00  0.00    -0.131 C  
HETATM   11  C   UNL     1      -8.249   8.780  67.493  1.00  0.00    -0.110 C  
HETATM   12  C   UNL     1     -10.117   8.206  72.369  1.00  0.00    -0.355 C  
HETATM   13  C   UNL     1      -8.431  10.189  68.095  1.00  0.00    -0.118 C  
HETATM   14  C   UNL     1      -8.329  10.167  69.638  1.00  0.00    -0.161 C  
HETATM   15  C   UNL     1     -10.591   5.728  72.413  1.00  0.00    -0.264 A  
HETATM   16  C   UNL     1     -10.007   6.831  71.768  1.00  0.00    -0.184 A  
BRANCH   4  17
HETATM   17  O   UNL     1      -9.495   2.938  70.301  1.00  0.00    -0.154 OA 
HETATM   18  C   UNL     1      -8.137   2.575  70.073  1.00  0.00    -0.041 C  
ENDBRANCH   4  17
BRANCH  11  19
HETATM   19  O   UNL     1      -8.758   8.781  66.135  1.00  0.00    -0.142 OA 
BRANCH  19  20
HETATM   20  C   UNL     1      -8.010   9.388  65.169  1.00  0.00    -0.116 C  
HETATM   21  O   UNL     1      -7.600  10.544  65.239  1.00  0.00    -0.141 OA 
BRANCH  20  22
HETATM   22  C   UNL     1      -7.724   8.453  63.961  1.00  0.00    -0.139 C  
HETATM   23  C   UNL     1      -7.814   6.334  65.393  1.00  0.00    -0.104 C  
HETATM   24  C   UNL     1      -6.702   6.232  63.174  1.00  0.00    -0.040 C  
HETATM   25  H2  UNL     1      -6.095   9.580  63.296  1.00  0.00     0.000 HD 
HETATM   26  H1  UNL     1      -6.763   8.560  62.127  1.00  0.00     0.000 HD 
HETATM   27  C   UNL     1      -7.001   7.145  64.375  1.00  0.00    -0.052 C  
HETATM   28  N   UNL     1      -6.951   9.174  62.920  1.00  0.00    -0.093 NA 
ENDBRANCH  20  22
ENDBRANCH  19  20
ENDBRANCH  11  19
BRANCH  13  29
HETATM   29  C   UNL     1      -7.389  11.202  67.553  1.00  0.00    -0.102 C  
HETATM   30  C   UNL     1      -5.383  12.694  67.861  1.00  0.00    -0.098 C  
HETATM   31  C   UNL     1      -5.425  10.468  69.002  1.00  0.00    -0.041 C  
HETATM   32  C   UNL     1      -6.278  11.643  68.522  1.00  0.00    -0.051 C  
ENDBRANCH  13  29
ENDBRANCH   2   3
TORSDOF 6
ENDMDL
MODEL      166
REMARK 921   NORMALIZED FREE ENERGY PREDICTED BY IDOCK:    0.76 KCAL/MOL
REMARK 922        TOTAL FREE ENERGY PREDICTED BY IDOCK:    0.21 KCAL/MOL
REMARK 923 INTER-LIGAND FREE ENERGY PREDICTED BY IDOCK:   -2.71 KCAL/MOL
REMARK 924 INTRA-LIGAND FREE ENERGY PREDICTED BY IDOCK:    2.92 KCAL/MOL
REMARK 927      BINDING AFFINITY PREDICTED BY RF-SCORE:    0.00 PKD
ROOT
HETATM    1  C   UNL     1      -8.642  15.173  67.502  1.00  0.00    -0.180 C  
HETATM    2  O   UNL     1      -8.275  14.102  66.638  1.00  0.00     0.055 OA 
ENDROOT
BRANCH   2   3
HETATM    3  C   UNL     1      -7.850  12.944  67.235  1.00  0.00    -0.131 A  
HETATM    4  C   UNL     1      -7.537  12.753  68.589  1.00  0.00    -0.085 A  
HETATM    5  C   UNL     1      -7.150  11.480  69.012  1.00  0.00    -0.115 A  
HETATM    6  N   UNL     1      -6.908   7.905  67.719  1.00  0.00    -0.068 NA 
HETATM    7  C   UNL     1      -7.089  10.381  68.138  1.00  0.00    -0.082 A  
HETATM    8  C   UNL     1      -6.412   8.253  66.380  1.00  0.00    -0.054 C  
HETATM    9  C   UNL     1      -6.698   9.010  68.679  1.00  0.00    -0.058 C  
HETATM   10  C   UNL     1      -7.501   8.637  69.939  1.00  0.00    -0.056 C  
HETATM   11  C   UNL     1      -6.977   7.354  70.585  1.00  0.00    -0.052 C  
HETATM   12  C   UNL     1      -7.117   9.483  65.785  1.00  0.00    -0.096 C  
HETATM   13  C   UNL     1      -6.859   6.207  69.559  1.00  0.00    -0.065 C  
HETATM   14  C   UNL     1      -6.243   6.696  68.228  1.00  0.00    -0.030 C  
HETATM   15  C   UNL     1      -7.697  11.876  66.339  1.00  0.00     0.198 A  
HETATM   16  C   UNL     1      -7.300  10.602  66.776  1.00  0.00    -0.120 A  
BRANCH   4  17
HETATM   17  O   UNL     1      -7.550  13.828  69.439  1.00  0.00     0.108 OA 
HETATM   18  C   UNL     1      -6.784  14.960  69.041  1.00  0.00    -0.117 C  
ENDBRANCH   4  17
BRANCH  11  19
HETATM   19  O   UNL     1      -7.914   6.961  71.620  1.00  0.00    -0.100 OA 
BRANCH  19  20
HETATM   20  C   UNL     1      -9.236   6.887  71.295  1.00  0.00    -0.157 C  
HETATM   21  O   UNL     1      -9.681   6.214  70.369  1.00  0.00    -0.165 OA 
BRANCH  20  22
HETATM   22  C   UNL     1     -10.130   7.747  72.231  1.00  0.00    -0.220 C  
HETATM   23  C   UNL     1     -12.304   6.809  71.260  1.00  0.00    -0.395 C  
HETATM   24  C   UNL     1     -12.383   8.945  72.525  1.00  0.00    -0.325 C  
HETATM   25  H2  UNL     1      -9.103   9.519  71.812  1.00  0.00     0.000 HD 
HETATM   26  H1  UNL     1     -10.009   9.556  73.238  1.00  0.00     0.000 HD 
HETATM   27  C   UNL     1     -11.510   8.076  71.604  1.00  0.00    -0.310 C  
HETATM   28  N   UNL     1      -9.422   8.991  72.624  1.00  0.00     0.025 NA 
ENDBRANCH  20  22
ENDBRANCH  19  20
ENDBRANCH  11  19
BRANCH  13  29
HETATM   29  C   UNL     1      -6.002   5.027  70.087  1.00  0.00    -0.018 C  
HETATM   30  C   UNL     1      -5.685   2.586  70.622  1.00  0.00    -0.017 C  
HETATM   31  C   UNL     1      -6.937   3.222  68.551  1.00  0.00    -0.049 C  
HETATM   32  C   UNL     1      -6.621   3.622  69.992  1.00  0.00    -0.033 C  
ENDBRANCH  13  29
ENDBRANCH   2   3
TORSDOF 6
ENDMDL
MODEL      167
REMARK 921   NORMALIZED FREE ENERGY PREDICTED BY IDOCK:    1.94 KCAL/MOL
REMARK 922        TOTAL FREE ENERGY PREDICTED BY IDOCK:    1.81 KCAL/MOL
REMARK 923 INTER-LIGAND FREE ENERGY PREDICTED BY IDOCK:    2.54 KCAL/MOL
REMARK 924 INTRA-LIGAND FREE ENERGY PREDICTED BY IDOCK:   -0.73 KCAL/MOL
REMARK 927      BINDING AFFINITY PREDICTED BY RF-SCORE:    0.00 PKD
ROOT
HETATM    1  C   UNL     1     -13.634  12.090  62.860  1.00  0.00     1.945 C  
HETATM    2  O   UNL     1     -13.366  11.804  64.229  1.00  0.00    -0.447 OA 
ENDROOT
BRANCH   2   3
HETATM    3  C   UNL     1     -12.435  12.593  64.854  1.00  0.00    -0.494 A  
HETATM    4  C   UNL     1     -12.327  13.990  64.791  1.00  0.00    -0.413 A  
HETATM    5  C   UNL     1     -11.322  14.617  65.530  1.00  0.00    -0.341 A  
HETATM    6  N   UNL     1      -8.688  13.822  68.163  1.00  0.00    -0.177 NA 
HETATM    7  C   UNL     1     -10.435  13.903  66.353  1.00  0.00    -0.284 A  
HETATM    8  C   UNL     1      -8.277  12.531  67.594  1.00  0.00    -0.172 C  
HETATM    9  C   UNL     1      -9.388  14.657  67.164  1.00  0.00    -0.223 C  
HETATM   10  C   UNL     1     -10.002  15.832  67.947  1.00  0.00    -0.227 C  
HETATM   11  C   UNL     1      -8.927  16.698  68.606  1.00  0.00    -0.246 C  
HETATM   12  C   UNL     1      -9.467  11.697  67.090  1.00  0.00    -0.183 C  
HETATM   13  C   UNL     1      -7.939  15.848  69.432  1.00  0.00    -0.184 C  
HETATM   14  C   UNL     1      -7.526  14.563  68.678  1.00  0.00    -0.128 C  
HETATM   15  C   UNL     1     -11.492  11.865  65.595  1.00  0.00    -0.314 A  
HETATM   16  C   UNL     1     -10.482  12.507  66.329  1.00  0.00    -0.268 A  
BRANCH   4  17
HETATM   17  O   UNL     1     -13.159  14.690  63.956  1.00  0.00    -0.228 OA 
HETATM   18  C   UNL     1     -12.672  15.939  63.478  1.00  0.00     2.311 C  
ENDBRANCH   4  17
BRANCH  11  19
HETATM   19  O   UNL     1      -9.591  17.636  69.491  1.00  0.00     0.125 OA 
BRANCH  19  20
HETATM   20  C   UNL     1      -9.686  18.937  69.094  1.00  0.00    -0.217 C  
HETATM   21  O   UNL     1     -10.486  19.744  69.561  1.00  0.00    -0.050 OA 
BRANCH  20  22
HETATM   22  C   UNL     1      -8.664  19.297  67.981  1.00  0.00    -0.317 C  
HETATM   23  C   UNL     1      -6.912  20.125  69.653  1.00  0.00    -0.104 C  
HETATM   24  C   UNL     1      -6.720  20.822  67.278  1.00  0.00    -0.391 C  
HETATM   25  H2  UNL     1     -10.064  20.350  66.842  1.00  0.00     0.000 HD 
HETATM   26  H1  UNL     1      -8.696  19.852  65.983  1.00  0.00     0.000 HD 
HETATM   27  C   UNL     1      -7.717  20.456  68.390  1.00  0.00     0.039 C  
HETATM   28  N   UNL     1      -9.367  19.616  66.714  1.00  0.00    -0.343 NA 
ENDBRANCH  20  22
ENDBRANCH  19  20
ENDBRANCH  11  19
BRANCH  13  29
HETATM   29  C   UNL     1      -6.652  16.631  69.801  1.00  0.00    -0.066 C  
HETATM   30  C   UNL     1      -5.127  17.713  71.488  1.00  0.00     0.079 C  
HETATM   31  C   UNL     1      -6.251  15.558  72.078  1.00  0.00     1.610 C  
HETATM   32  C   UNL     1      -6.388  16.866  71.298  1.00  0.00     2.249 C  
ENDBRANCH  13  29
ENDBRANCH   2   3
TORSDOF 6
ENDMDL
MODEL      168
REMARK 921   NORMALIZED FREE ENERGY PREDICTED BY IDOCK:    2.40 KCAL/MOL
REMARK 922        TOTAL FREE ENERGY PREDICTED BY IDOCK:    2.42 KCAL/MOL
REMARK 923 INTER-LIGAND FREE ENERGY PREDICTED BY IDOCK:   -0.51 KCAL/MOL
REMARK 924 INTRA-LIGAND FREE ENERGY PREDICTED BY IDOCK:    2.94 KCAL/MOL
REMARK 927      BINDING AFFINITY PREDICTED BY RF-SCORE:    0.00 PKD
ROOT
HETATM    1  C   UNL     1     -10.340   2.874  62.608  1.00  0.00    -0.126 C  
HETATM    2  O   UNL     1     -10.873   3.257  63.871  1.00  0.00    -0.237 OA 
ENDROOT
BRANCH   2   3
HETATM    3  C   UNL     1     -10.036   3.943  64.713  1.00  0.00    -0.198 A  
HETATM    4  C   UNL     1      -8.775   4.475  64.408  1.00  0.00    -0.149 A  
HETATM    5  C   UNL     1      -8.086   5.173  65.401  1.00  0.00    -0.118 A  
HETATM    6  N   UNL     1      -8.600   6.547  68.916  1.00  0.00    -0.124 NA 
HETATM    7  C   UNL     1      -8.621   5.385  66.683  1.00  0.00    -0.115 A  
HETATM    8  C   UNL     1      -9.358   5.397  69.428  1.00  0.00    -0.124 C  
HETATM    9  C   UNL     1      -7.830   6.193  67.704  1.00  0.00    -0.105 C  
HETATM   10  C   UNL     1      -7.323   7.524  67.119  1.00  0.00    -0.094 C  
HETATM   11  C   UNL     1      -6.375   8.242  68.081  1.00  0.00    -0.055 C  
HETATM   12  C   UNL     1     -10.375   4.853  68.411  1.00  0.00    -0.033 C  
HETATM   13  C   UNL     1      -6.987   8.374  69.490  1.00  0.00    -0.045 C  
HETATM   14  C   UNL     1      -7.677   7.065  69.937  1.00  0.00    -0.108 C  
HETATM   15  C   UNL     1     -10.534   4.065  66.019  1.00  0.00     0.310 A  
HETATM   16  C   UNL     1      -9.828   4.765  67.011  1.00  0.00    -0.224 A  
BRANCH   4  17
HETATM   17  O   UNL     1      -8.226   4.234  63.175  1.00  0.00    -0.083 OA 
HETATM   18  C   UNL     1      -7.160   5.091  62.778  1.00  0.00    -0.038 C  
ENDBRANCH   4  17
BRANCH  11  19
HETATM   19  O   UNL     1      -6.124   9.569  67.552  1.00  0.00    -0.052 OA 
BRANCH  19  20
HETATM   20  C   UNL     1      -7.059  10.537  67.774  1.00  0.00    -0.083 C  
HETATM   21  O   UNL     1      -6.855  11.554  68.430  1.00  0.00    -0.063 OA 
BRANCH  20  22
HETATM   22  C   UNL     1      -8.422  10.215  67.100  1.00  0.00    -0.125 C  
HETATM   23  C   UNL     1      -8.419  12.374  65.727  1.00  0.00     0.845 C  
HETATM   24  C   UNL     1     -10.565  11.168  66.054  1.00  0.00    -0.298 C  
HETATM   25  H2  UNL     1      -9.364   9.751  68.907  1.00  0.00     0.000 HD 
HETATM   26  H1  UNL     1     -10.137   9.134  67.537  1.00  0.00     0.000 HD 
HETATM   27  C   UNL     1      -9.208  11.491  66.702  1.00  0.00    -0.194 C  
HETATM   28  N   UNL     1      -9.242   9.345  67.979  1.00  0.00    -0.130 NA 
ENDBRANCH  20  22
ENDBRANCH  19  20
ENDBRANCH  11  19
BRANCH  13  29
HETATM   29  C   UNL     1      -5.931   8.757  70.560  1.00  0.00    -0.032 C  
HETATM   30  C   UNL     1      -5.190  10.098  72.559  1.00  0.00     0.099 C  
HETATM   31  C   UNL     1      -7.551   9.277  72.458  1.00  0.00     0.922 C  
HETATM   32  C   UNL     1      -6.363   9.773  71.632  1.00  0.00     0.264 C  
ENDBRANCH  13  29
ENDBRANCH   2   3
TORSDOF 6
ENDMDL
MODEL      169
REMARK 921   NORMALIZED FREE ENERGY PREDICTED BY IDOCK:    3.28 KCAL/MOL
REMARK 922        TOTAL FREE ENERGY PREDICTED BY IDOCK:    3.61 KCAL/MOL
REMARK 923 INTER-LIGAND FREE ENERGY PREDICTED BY IDOCK:    1.12 KCAL/MOL
REMARK 924 INTRA-LIGAND FREE ENERGY PREDICTED BY IDOCK:    2.49 KCAL/MOL
REMARK 927      BINDING AFFINITY PREDICTED BY RF-SCORE:    0.00 PKD
ROOT
HETATM    1  C   UNL     1      -5.774  20.984  71.527  1.00  0.00     0.456 C  
HETATM    2  O   UNL     1      -6.034  21.209  70.146  1.00  0.00    -0.196 OA 
ENDROOT
BRANCH   2   3
HETATM    3  C   UNL     1      -6.612  20.179  69.450  1.00  0.00    -0.265 A  
HETATM    4  C   UNL     1      -6.286  18.817  69.523  1.00  0.00    -0.256 A  
HETATM    5  C   UNL     1      -7.019  17.912  68.752  1.00  0.00    -0.262 A  
HETATM    6  N   UNL     1     -10.103  17.782  66.521  1.00  0.00    -0.343 NA 
HETATM    7  C   UNL     1      -8.086  18.313  67.930  1.00  0.00    -0.260 A  
HETATM    8  C   UNL     1      -9.869  19.068  65.849  1.00  0.00    -0.092 C  
HETATM    9  C   UNL     1      -8.868  17.265  67.148  1.00  0.00    -0.226 C  
HETATM   10  C   UNL     1      -9.304  16.087  68.039  1.00  0.00    -0.202 C  
HETATM   11  C   UNL     1      -9.921  14.954  67.219  1.00  0.00    -0.230 C  
HETATM   12  C   UNL     1      -9.380  20.163  66.812  1.00  0.00    -0.513 C  
HETATM   13  C   UNL     1     -11.031  15.469  66.280  1.00  0.00    -0.242 C  
HETATM   14  C   UNL     1     -10.617  16.781  65.575  1.00  0.00    -0.230 C  
HETATM   15  C   UNL     1      -7.610  20.599  68.558  1.00  0.00     0.307 A  
HETATM   16  C   UNL     1      -8.335  19.679  67.783  1.00  0.00    -0.346 A  
BRANCH   4  17
HETATM   17  O   UNL     1      -5.219  18.423  70.288  1.00  0.00    -0.206 OA 
HETATM   18  C   UNL     1      -5.514  17.991  71.612  1.00  0.00     0.274 C  
ENDBRANCH   4  17
BRANCH  11  19
HETATM   19  O   UNL     1     -10.497  13.996  68.145  1.00  0.00    -0.232 OA 
BRANCH  19  20
HETATM   20  C   UNL     1      -9.869  13.799  69.339  1.00  0.00     0.540 C  
HETATM   21  O   UNL     1      -8.965  12.987  69.517  1.00  0.00     1.074 OA 
BRANCH  20  22
HETATM   22  C   UNL     1     -10.419  14.722  70.461  1.00  0.00     0.321 C  
HETATM   23  C   UNL     1     -12.686  13.536  70.526  1.00  0.00    -0.227 C  
HETATM   24  C   UNL     1     -12.500  15.812  71.502  1.00  0.00    -0.515 C  
HETATM   25  H2  UNL     1      -9.829  16.480  69.498  1.00  0.00     0.000 HD 
HETATM   26  H1  UNL     1     -10.114  16.653  71.155  1.00  0.00     0.000 HD 
HETATM   27  C   UNL     1     -11.962  14.882  70.402  1.00  0.00    -0.368 C  
HETATM   28  N   UNL     1      -9.752  16.046  70.418  1.00  0.00     0.600 NA 
ENDBRANCH  20  22
ENDBRANCH  19  20
ENDBRANCH  11  19
BRANCH  13  29
HETATM   29  C   UNL     1     -11.414  14.431  65.193  1.00  0.00    -0.362 C  
HETATM   30  C   UNL     1     -12.983  13.544  63.434  1.00  0.00     0.901 C  
HETATM   31  C   UNL     1     -12.675  16.017  63.647  1.00  0.00     2.163 C  
HETATM   32  C   UNL     1     -12.712  14.692  64.409  1.00  0.00     0.058 C  
ENDBRANCH  13  29
ENDBRANCH   2   3
TORSDOF 6
ENDMDL
MODEL      170
REMARK 921   NORMALIZED FREE ENERGY PREDICTED BY IDOCK:    4.01 KCAL/MOL
REMARK 922        TOTAL FREE ENERGY PREDICTED BY IDOCK:    4.59 KCAL/MOL
REMARK 923 INTER-LIGAND FREE ENERGY PREDICTED BY IDOCK:    4.09 KCAL/MOL
REMARK 924 INTRA-LIGAND FREE ENERGY PREDICTED BY IDOCK:    0.50 KCAL/MOL
REMARK 927      BINDING AFFINITY PREDICTED BY RF-SCORE:    0.00 PKD
ROOT
HETATM    1  C   UNL     1      -6.425   2.700  67.621  1.00  0.00    -0.036 C  
HETATM    2  O   UNL     1      -6.973   3.129  66.379  1.00  0.00    -0.052 OA 
ENDROOT
BRANCH   2   3
HETATM    3  C   UNL     1      -7.302   4.456  66.275  1.00  0.00    -0.081 A  
HETATM    4  C   UNL     1      -8.572   5.030  66.429  1.00  0.00    -0.111 A  
HETATM    5  C   UNL     1      -8.698   6.416  66.316  1.00  0.00    -0.146 A  
HETATM    6  N   UNL     1      -6.545   9.542  66.002  1.00  0.00    -0.076 NA 
HETATM    7  C   UNL     1      -7.597   7.256  66.080  1.00  0.00    -0.088 A  
HETATM    8  C   UNL     1      -5.561   8.965  65.075  1.00  0.00    -0.050 C  
HETATM    9  C   UNL     1      -7.803   8.765  66.009  1.00  0.00    -0.105 C  
HETATM   10  C   UNL     1      -8.621   9.292  67.202  1.00  0.00    -0.130 C  
HETATM   11  C   UNL     1      -8.986  10.767  67.032  1.00  0.00    -0.141 C  
HETATM   12  C   UNL     1      -5.176   7.521  65.437  1.00  0.00    -0.029 C  
HETATM   13  C   UNL     1      -7.747  11.625  66.699  1.00  0.00    -0.065 C  
HETATM   14  C   UNL     1      -6.845  10.937  65.648  1.00  0.00     0.054 C  
HETATM   15  C   UNL     1      -6.214   5.278  65.943  1.00  0.00    -0.034 A  
HETATM   16  C   UNL     1      -6.356   6.670  65.825  1.00  0.00    -0.042 A  
BRANCH   4  17
HETATM   17  O   UNL     1      -9.659   4.215  66.615  1.00  0.00    -0.182 OA 
HETATM   18  C   UNL     1     -10.918   4.861  66.764  1.00  0.00     0.571 C  
ENDBRANCH   4  17
BRANCH  11  19
HETATM   19  O   UNL     1      -9.555  11.232  68.282  1.00  0.00    -0.178 OA 
BRANCH  19  20
HETATM   20  C   UNL     1     -10.862  10.940  68.541  1.00  0.00    -0.220 C  
HETATM   21  O   UNL     1     -11.795  11.713  68.337  1.00  0.00    -0.398 OA 
BRANCH  20  22
HETATM   22  C   UNL     1     -11.049   9.513  69.125  1.00  0.00    -0.053 C  
HETATM   23  C   UNL     1      -9.372   9.907  71.017  1.00  0.00     0.675 C  
HETATM   24  C   UNL     1      -9.965   7.572  70.413  1.00  0.00    -0.184 C  
HETATM   25  H2  UNL     1     -10.817   8.574  67.272  1.00  0.00     0.000 HD 
HETATM   26  H1  UNL     1     -11.588   7.630  68.442  1.00  0.00     0.000 HD 
HETATM   27  C   UNL     1      -9.783   8.994  69.855  1.00  0.00    -0.194 C  
HETATM   28  N   UNL     1     -11.465   8.568  68.059  1.00  0.00     0.989 NA 
ENDBRANCH  20  22
ENDBRANCH  19  20
ENDBRANCH  11  19
BRANCH  13  29
HETATM   29  C   UNL     1      -8.129  13.031  66.167  1.00  0.00     1.279 C  
HETATM   30  C   UNL     1      -8.022  15.545  66.280  1.00  0.00     0.411 C  
HETATM   31  C   UNL     1      -5.960  14.220  66.782  1.00  0.00     2.187 C  
HETATM   32  C   UNL     1      -7.486  14.238  66.872  1.00  0.00     0.515 C  
ENDBRANCH  13  29
ENDBRANCH   2   3
TORSDOF 6
ENDMDL
MODEL      171
REMARK 921   NORMALIZED FREE ENERGY PREDICTED BY IDOCK:    5.04 KCAL/MOL
REMARK 922        TOTAL FREE ENERGY PREDICTED BY IDOCK:    5.99 KCAL/MOL
REMARK 923 INTER-LIGAND FREE ENERGY PREDICTED BY IDOCK:    4.21 KCAL/MOL
REMARK 924 INTRA-LIGAND FREE ENERGY PREDICTED BY IDOCK:    1.79 KCAL/MOL
REMARK 927      BINDING AFFINITY PREDICTED BY RF-SCORE:    0.00 PKD
ROOT
HETATM    1  C   UNL     1      -9.787   1.575  69.150  1.00  0.00     0.143 C  
HETATM    2  O   UNL     1      -9.244   2.524  68.239  1.00  0.00    -0.165 OA 
ENDROOT
BRANCH   2   3
HETATM    3  C   UNL     1      -9.352   3.846  68.586  1.00  0.00    -0.164 A  
HETATM    4  C   UNL     1      -8.593   4.537  69.541  1.00  0.00    -0.080 A  
HETATM    5  C   UNL     1      -8.835   5.900  69.728  1.00  0.00    -0.129 A  
HETATM    6  N   UNL     1     -10.823   8.765  68.197  1.00  0.00    -0.057 NA 
HETATM    7  C   UNL     1      -9.790   6.606  68.978  1.00  0.00    -0.149 A  
HETATM    8  C   UNL     1     -12.039   7.987  67.922  1.00  0.00     4.165 C  
HETATM    9  C   UNL     1      -9.971   8.102  69.208  1.00  0.00    -0.188 C  
HETATM   10  C   UNL     1      -8.628   8.855  69.192  1.00  0.00    -0.134 C  
HETATM   11  C   UNL     1      -8.793  10.317  69.609  1.00  0.00    -0.103 C  
HETATM   12  C   UNL     1     -11.736   6.581  67.379  1.00  0.00     0.950 C  
HETATM   13  C   UNL     1      -9.908  11.016  68.803  1.00  0.00    -0.206 C  
HETATM   14  C   UNL     1     -11.159  10.118  68.666  1.00  0.00    -0.205 C  
HETATM   15  C   UNL     1     -10.375   4.521  67.903  1.00  0.00     0.142 A  
HETATM   16  C   UNL     1     -10.612   5.891  68.105  1.00  0.00    -0.312 A  
BRANCH   4  17
HETATM   17  O   UNL     1      -7.691   3.847  70.308  1.00  0.00    -0.048 OA 
HETATM   18  C   UNL     1      -7.227   2.609  69.781  1.00  0.00    -0.044 C  
ENDBRANCH   4  17
BRANCH  11  19
HETATM   19  O   UNL     1      -7.537  10.997  69.357  1.00  0.00    -0.128 OA 
BRANCH  19  20
HETATM   20  C   UNL     1      -6.811  10.621  68.265  1.00  0.00    -0.068 C  
HETATM   21  O   UNL     1      -6.079   9.635  68.231  1.00  0.00    -0.050 OA 
BRANCH  20  22
HETATM   22  C   UNL     1      -7.011  11.577  67.057  1.00  0.00    -0.145 C  
HETATM   23  C   UNL     1      -6.554  13.672  68.454  1.00  0.00    -0.096 C  
HETATM   24  C   UNL     1      -7.735  13.917  66.283  1.00  0.00     2.075 C  
HETATM   25  H2  UNL     1      -8.814  10.693  66.478  1.00  0.00     0.000 HD 
HETATM   26  H1  UNL     1      -8.057  11.596  65.266  1.00  0.00     0.000 HD 
HETATM   27  C   UNL     1      -7.519  12.980  67.483  1.00  0.00    -0.158 C  
HETATM   28  N   UNL     1      -7.925  10.968  66.060  1.00  0.00    -0.133 NA 
ENDBRANCH  20  22
ENDBRANCH  19  20
ENDBRANCH  11  19
BRANCH  13  29
HETATM   29  C   UNL     1     -10.343  12.361  69.441  1.00  0.00     0.423 C  
HETATM   30  C   UNL     1     -10.894  14.813  69.278  1.00  0.00    -0.275 C  
HETATM   31  C   UNL     1     -11.622  13.282  67.438  1.00  0.00    -0.396 C  
HETATM   32  C   UNL     1     -10.541  13.551  68.487  1.00  0.00    -0.257 C  
ENDBRANCH  13  29
ENDBRANCH   2   3
TORSDOF 6
ENDMDL
MODEL      172
REMARK 921   NORMALIZED FREE ENERGY PREDICTED BY IDOCK:    5.67 KCAL/MOL
REMARK 922        TOTAL FREE ENERGY PREDICTED BY IDOCK:    6.84 KCAL/MOL
REMARK 923 INTER-LIGAND FREE ENERGY PREDICTED BY IDOCK:    5.06 KCAL/MOL
REMARK 924 INTRA-LIGAND FREE ENERGY PREDICTED BY IDOCK:    1.79 KCAL/MOL
REMARK 927      BINDING AFFINITY PREDICTED BY RF-SCORE:    0.00 PKD
ROOT
HETATM    1  C   UNL     1      -5.137  16.981  66.785  1.00  0.00    -0.133 C  
HETATM    2  O   UNL     1      -6.146  16.139  66.238  1.00  0.00     0.261 OA 
ENDROOT
BRANCH   2   3
HETATM    3  C   UNL     1      -6.802  15.311  67.113  1.00  0.00     0.060 A  
HETATM    4  C   UNL     1      -7.744  15.679  68.084  1.00  0.00    -0.124 A  
HETATM    5  C   UNL     1      -8.329  14.678  68.862  1.00  0.00    -0.142 A  
HETATM    6  N   UNL     1      -8.512  10.881  69.102  1.00  0.00    -0.105 NA 
HETATM    7  C   UNL     1      -8.027  13.316  68.688  1.00  0.00    -0.042 A  
HETATM    8  C   UNL     1      -7.097  10.633  68.794  1.00  0.00    -0.076 C  
HETATM    9  C   UNL     1      -8.735  12.274  69.546  1.00  0.00     1.526 C  
HETATM   10  C   UNL     1     -10.261  12.478  69.559  1.00  0.00     0.780 C  
HETATM   11  C   UNL     1     -10.947  11.553  70.565  1.00  0.00     1.130 C  
HETATM   12  C   UNL     1      -6.565  11.537  67.670  1.00  0.00    -0.078 C  
HETATM   13  C   UNL     1     -10.517  10.084  70.374  1.00  0.00    -0.304 C  
HETATM   14  C   UNL     1      -8.992   9.962  70.145  1.00  0.00    -0.114 C  
HETATM   15  C   UNL     1      -6.423  13.966  67.000  1.00  0.00     0.968 A  
HETATM   16  C   UNL     1      -7.014  12.968  67.793  1.00  0.00    -0.143 A  
BRANCH   4  17
HETATM   17  O   UNL     1      -8.011  17.008  68.291  1.00  0.00    -0.204 OA 
HETATM   18  C   UNL     1      -9.361  17.420  68.104  1.00  0.00    -0.277 C  
ENDBRANCH   4  17
BRANCH  11  19
HETATM   19  O   UNL     1     -12.379  11.652  70.357  1.00  0.00    -0.321 OA 
BRANCH  19  20
HETATM   20  C   UNL     1     -12.894  12.862  69.994  1.00  0.00     0.482 C  
HETATM   21  O   UNL     1     -13.960  13.008  69.402  1.00  0.00     4.512 OA 
BRANCH  20  22
HETATM   22  C   UNL     1     -11.982  14.048  70.415  1.00  0.00    -0.328 C  
HETATM   23  C   UNL     1     -12.481  13.737  72.906  1.00  0.00     0.211 C  
HETATM   24  C   UNL     1     -11.556  15.909  72.134  1.00  0.00    -0.515 C  
HETATM   25  H2  UNL     1     -12.807  15.361  69.014  1.00  0.00     0.000 HD 
HETATM   26  H1  UNL     1     -11.289  15.822  69.596  1.00  0.00     0.000 HD 
HETATM   27  C   UNL     1     -12.449  14.723  71.731  1.00  0.00    -0.410 C  
HETATM   28  N   UNL     1     -11.887  15.043  69.319  1.00  0.00    -0.312 NA 
ENDBRANCH  20  22
ENDBRANCH  19  20
ENDBRANCH  11  19
BRANCH  13  29
HETATM   29  C   UNL     1     -10.900   9.193  71.585  1.00  0.00    -0.442 C  
HETATM   30  C   UNL     1     -10.455   7.267  73.145  1.00  0.00    -0.385 C  
HETATM   31  C   UNL     1      -8.534   8.675  72.380  1.00  0.00    -0.121 C  
HETATM   32  C   UNL     1      -9.896   8.100  71.988  1.00  0.00    -0.298 C  
ENDBRANCH  13  29
ENDBRANCH   2   3
TORSDOF 6
ENDMDL
MODEL      173
REMARK 921   NORMALIZED FREE ENERGY PREDICTED BY IDOCK:    6.24 KCAL/MOL
REMARK 922        TOTAL FREE ENERGY PREDICTED BY IDOCK:    7.61 KCAL/MOL
REMARK 923 INTER-LIGAND FREE ENERGY PREDICTED BY IDOCK:    3.87 KCAL/MOL
REMARK 924 INTRA-LIGAND FREE ENERGY PREDICTED BY IDOCK:    3.74 KCAL/MOL
REMARK 927      BINDING AFFINITY PREDICTED BY RF-SCORE:    0.00 PKD
ROOT
HETATM    1  C   UNL     1     -10.116   5.113  74.259  1.00  0.00    -0.238 C  
HETATM    2  O   UNL     1     -11.040   5.455  73.231  1.00  0.00    -0.286 OA 
ENDROOT
BRANCH   2   3
HETATM    3  C   UNL     1     -10.618   6.368  72.300  1.00  0.00    -0.214 A  
HETATM    4  C   UNL     1      -9.471   6.294  71.498  1.00  0.00    -0.151 A  
HETATM    5  C   UNL     1      -9.230   7.318  70.579  1.00  0.00    -0.158 A  
HETATM    6  N   UNL     1     -10.914  10.406  69.119  1.00  0.00    -0.227 NA 
HETATM    7  C   UNL     1     -10.107   8.402  70.412  1.00  0.00    -0.202 A  
HETATM    8  C   UNL     1     -11.504  10.877  70.380  1.00  0.00    -0.275 C  
HETATM    9  C   UNL     1      -9.801   9.463  69.360  1.00  0.00    -0.178 C  
HETATM   10  C   UNL     1      -9.468   8.839  67.993  1.00  0.00    -0.158 C  
HETATM   11  C   UNL     1      -8.979   9.890  66.995  1.00  0.00    -0.138 C  
HETATM   12  C   UNL     1     -12.082   9.735  71.231  1.00  0.00    -0.470 C  
HETATM   13  C   UNL     1      -9.946  11.090  66.913  1.00  0.00    -0.231 C  
HETATM   14  C   UNL     1     -10.420  11.535  68.316  1.00  0.00    -0.197 C  
HETATM   15  C   UNL     1     -11.447   7.496  72.208  1.00  0.00    -0.348 A  
HETATM   16  C   UNL     1     -11.190   8.523  71.285  1.00  0.00    -0.321 A  
BRANCH   4  17
HETATM   17  O   UNL     1      -8.586   5.264  71.686  1.00  0.00    -0.130 OA 
HETATM   18  C   UNL     1      -8.047   5.122  72.996  1.00  0.00    -0.105 C  
ENDBRANCH   4  17
BRANCH  11  19
HETATM   19  O   UNL     1      -8.901   9.262  65.689  1.00  0.00    -0.156 OA 
BRANCH  19  20
HETATM   20  C   UNL     1      -9.159   7.925  65.602  1.00  0.00     0.037 C  
HETATM   21  O   UNL     1     -10.287   7.439  65.622  1.00  0.00     1.259 OA 
BRANCH  20  22
HETATM   22  C   UNL     1      -7.865   7.076  65.471  1.00  0.00    -0.115 C  
HETATM   23  C   UNL     1      -8.087   6.107  67.829  1.00  0.00    -0.113 C  
HETATM   24  C   UNL     1      -5.878   6.007  66.698  1.00  0.00    -0.017 C  
HETATM   25  H2  UNL     1      -6.723   8.673  64.756  1.00  0.00     0.000 HD 
HETATM   26  H1  UNL     1      -6.077   7.147  64.422  1.00  0.00     0.000 HD 
HETATM   27  C   UNL     1      -7.169   6.831  66.835  1.00  0.00    -0.081 C  
HETATM   28  N   UNL     1      -6.927   7.705  64.508  1.00  0.00    -0.054 NA 
ENDBRANCH  20  22
ENDBRANCH  19  20
ENDBRANCH  11  19
BRANCH  13  29
HETATM   29  C   UNL     1      -9.309  12.314  66.204  1.00  0.00    -0.177 C  
HETATM   30  C   UNL     1      -7.344  13.807  65.702  1.00  0.00     6.493 C  
HETATM   31  C   UNL     1      -6.975  11.339  65.888  1.00  0.00     0.220 C  
HETATM   32  C   UNL     1      -7.797  12.522  66.400  1.00  0.00     0.602 C  
ENDBRANCH  13  29
ENDBRANCH   2   3
TORSDOF 6
ENDMDL
MODEL      174
REMARK 921   NORMALIZED FREE ENERGY PREDICTED BY IDOCK:    6.33 KCAL/MOL
REMARK 922        TOTAL FREE ENERGY PREDICTED BY IDOCK:    7.73 KCAL/MOL
REMARK 923 INTER-LIGAND FREE ENERGY PREDICTED BY IDOCK:    6.09 KCAL/MOL
REMARK 924 INTRA-LIGAND FREE ENERGY PREDICTED BY IDOCK:    1.64 KCAL/MOL
REMARK 927      BINDING AFFINITY PREDICTED BY RF-SCORE:    0.00 PKD
ROOT
HETATM    1  C   UNL     1      -9.025   2.086  62.500  1.00  0.00    -0.073 C  
HETATM    2  O   UNL     1      -7.791   2.063  63.210  1.00  0.00    -0.055 OA 
ENDROOT
BRANCH   2   3
HETATM    3  C   UNL     1      -7.744   2.763  64.388  1.00  0.00    -0.077 A  
HETATM    4  C   UNL     1      -7.795   4.155  64.550  1.00  0.00    -0.085 A  
HETATM    5  C   UNL     1      -7.764   4.679  65.844  1.00  0.00    -0.094 A  
HETATM    6  N   UNL     1      -7.908   3.539  69.475  1.00  0.00    -0.051 NA 
HETATM    7  C   UNL     1      -7.711   3.863  66.987  1.00  0.00    -0.084 A  
HETATM    8  C   UNL     1      -7.059   2.352  69.304  1.00  0.00    -0.043 C  
HETATM    9  C   UNL     1      -7.722   4.503  68.370  1.00  0.00    -0.079 C  
HETATM   10  C   UNL     1      -8.850   5.541  68.516  1.00  0.00    -0.104 C  
HETATM   11  C   UNL     1      -8.743   6.314  69.831  1.00  0.00    -0.141 C  
HETATM   12  C   UNL     1      -7.361   1.586  68.005  1.00  0.00    -0.046 C  
HETATM   13  C   UNL     1      -8.609   5.364  71.040  1.00  0.00    -0.127 C  
HETATM   14  C   UNL     1      -7.621   4.211  70.751  1.00  0.00    -0.048 C  
HETATM   15  C   UNL     1      -7.591   1.946  65.518  1.00  0.00    -0.070 A  
HETATM   16  C   UNL     1      -7.555   2.486  66.814  1.00  0.00    -0.070 A  
BRANCH   4  17
HETATM   17  O   UNL     1      -7.801   4.960  63.440  1.00  0.00    -0.068 OA 
HETATM   18  C   UNL     1      -9.000   4.972  62.673  1.00  0.00    -0.047 C  
ENDBRANCH   4  17
BRANCH  11  19
HETATM   19  O   UNL     1      -9.951   7.101  69.985  1.00  0.00    -0.178 OA 
BRANCH  19  20
HETATM   20  C   UNL     1     -11.055   6.729  69.276  1.00  0.00    -0.239 C  
HETATM   21  O   UNL     1     -11.354   5.564  69.027  1.00  0.00     0.197 OA 
BRANCH  20  22
HETATM   22  C   UNL     1     -11.906   7.946  68.816  1.00  0.00     1.917 C  
HETATM   23  C   UNL     1      -9.981   9.600  69.140  1.00  0.00    -0.189 C  
HETATM   24  C   UNL     1     -12.302  10.475  69.023  1.00  0.00     0.333 C  
HETATM   25  H2  UNL     1     -13.515   7.468  70.061  1.00  0.00     0.000 HD 
HETATM   26  H1  UNL     1     -13.904   8.501  68.781  1.00  0.00     0.000 HD 
HETATM   27  C   UNL     1     -11.445   9.277  69.465  1.00  0.00     0.186 C  
HETATM   28  N   UNL     1     -13.345   7.702  69.083  1.00  0.00     6.079 NA 
ENDBRANCH  20  22
ENDBRANCH  19  20
ENDBRANCH  11  19
BRANCH  13  29
HETATM   29  C   UNL     1      -8.137   6.101  72.321  1.00  0.00    -0.109 C  
HETATM   30  C   UNL     1      -8.593   7.172  74.554  1.00  0.00    -0.230 C  
HETATM   31  C   UNL     1      -9.834   5.091  73.932  1.00  0.00    -0.172 C  
HETATM   32  C   UNL     1      -9.202   6.376  73.396  1.00  0.00    -0.140 C  
ENDBRANCH  13  29
ENDBRANCH   2   3
TORSDOF 6
ENDMDL
MODEL      175
REMARK 921   NORMALIZED FREE ENERGY PREDICTED BY IDOCK:    9.57 KCAL/MOL
REMARK 922        TOTAL FREE ENERGY PREDICTED BY IDOCK:   12.11 KCAL/MOL
REMARK 923 INTER-LIGAND FREE ENERGY PREDICTED BY IDOCK:   10.61 KCAL/MOL
REMARK 924 INTRA-LIGAND FREE ENERGY PREDICTED BY IDOCK:    1.50 KCAL/MOL
REMARK 927      BINDING AFFINITY PREDICTED BY RF-SCORE:    0.00 PKD
ROOT
HETATM    1  C   UNL     1      -9.820   6.308  64.491  1.00  0.00     2.581 C  
HETATM    2  O   UNL     1     -10.480   6.964  65.568  1.00  0.00     1.690 OA 
ENDROOT
BRANCH   2   3
HETATM    3  C   UNL     1      -9.797   7.980  66.185  1.00  0.00     0.013 A  
HETATM    4  C   UNL     1      -9.169   9.074  65.573  1.00  0.00    -0.198 A  
HETATM    5  C   UNL     1      -8.548  10.027  66.382  1.00  0.00    -0.136 A  
HETATM    6  N   UNL     1      -8.177  10.964  70.055  1.00  0.00     0.525 NA 
HETATM    7  C   UNL     1      -8.554   9.944  67.785  1.00  0.00    -0.121 A  
HETATM    8  C   UNL     1      -8.038   9.590  70.557  1.00  0.00    -0.166 C  
HETATM    9  C   UNL     1      -7.891  11.043  68.607  1.00  0.00    -0.136 C  
HETATM   10  C   UNL     1      -8.340  12.447  68.161  1.00  0.00    -0.178 C  
HETATM   11  C   UNL     1      -7.536  13.547  68.855  1.00  0.00    -0.017 C  
HETATM   12  C   UNL     1      -9.000   8.605  69.871  1.00  0.00    -0.149 C  
HETATM   13  C   UNL     1      -7.515  13.356  70.386  1.00  0.00     2.193 C  
HETATM   14  C   UNL     1      -7.276  11.878  70.773  1.00  0.00     3.358 C  
HETATM   15  C   UNL     1      -9.723   7.838  67.579  1.00  0.00    -0.201 A  
HETATM   16  C   UNL     1      -9.089   8.801  68.381  1.00  0.00    -0.141 A  
BRANCH   4  17
HETATM   17  O   UNL     1      -9.120   9.140  64.204  1.00  0.00    -0.107 OA 
HETATM   18  C   UNL     1      -8.618  10.350  63.646  1.00  0.00    -0.186 C  
ENDBRANCH   4  17
BRANCH  11  19
HETATM   19  O   UNL     1      -8.164  14.818  68.550  1.00  0.00    -0.139 OA 
BRANCH  19  20
HETATM   20  C   UNL     1      -8.298  15.171  67.240  1.00  0.00    -0.201 C  
HETATM   21  O   UNL     1      -8.316  14.369  66.309  1.00  0.00     0.346 OA 
BRANCH  20  22
HETATM   22  C   UNL     1      -8.428  16.707  67.046  1.00  0.00    -0.198 C  
HETATM   23  C   UNL     1      -6.466  17.218  68.607  1.00  0.00    -0.178 C  
HETATM   24  C   UNL     1      -8.086  19.028  68.091  1.00  0.00    -0.347 C  
HETATM   25  H2  UNL     1     -10.488  16.716  67.398  1.00  0.00     0.000 HD 
HETATM   26  H1  UNL     1      -9.912  18.078  66.580  1.00  0.00     0.000 HD 
HETATM   27  C   UNL     1      -7.936  17.509  68.279  1.00  0.00    -0.259 C  
HETATM   28  N   UNL     1      -9.827  17.070  66.707  1.00  0.00    -0.266 NA 
ENDBRANCH  20  22
ENDBRANCH  19  20
ENDBRANCH  11  19
BRANCH  13  29
HETATM   29  C   UNL     1      -6.427  14.222  71.075  1.00  0.00     0.227 C  
HETATM   30  C   UNL     1      -5.206  15.024  73.126  1.00  0.00     0.164 C  
HETATM   31  C   UNL     1      -5.883  12.620  72.981  1.00  0.00     1.837 C  
HETATM   32  C   UNL     1      -6.261  14.050  72.594  1.00  0.00     1.000 C  
ENDBRANCH  13  29
ENDBRANCH   2   3
TORSDOF 6
ENDMDL
MODEL      176
REMARK 921   NORMALIZED FREE ENERGY PREDICTED BY IDOCK:    9.67 KCAL/MOL
REMARK 922        TOTAL FREE ENERGY PREDICTED BY IDOCK:   12.24 KCAL/MOL
REMARK 923 INTER-LIGAND FREE ENERGY PREDICTED BY IDOCK:    7.88 KCAL/MOL
REMARK 924 INTRA-LIGAND FREE ENERGY PREDICTED BY IDOCK:    4.37 KCAL/MOL
REMARK 927      BINDING AFFINITY PREDICTED BY RF-SCORE:    0.00 PKD
ROOT
HETATM    1  C   UNL     1     -13.187  17.014  64.768  1.00  0.00     7.817 C  
HETATM    2  O   UNL     1     -13.463  15.618  64.749  1.00  0.00     1.036 OA 
ENDROOT
BRANCH   2   3
HETATM    3  C   UNL     1     -12.389  14.774  64.874  1.00  0.00    -0.252 A  
HETATM    4  C   UNL     1     -11.143  15.066  65.446  1.00  0.00    -0.374 A  
HETATM    5  C   UNL     1     -10.182  14.055  65.509  1.00  0.00    -0.362 A  
HETATM    6  N   UNL     1      -9.814  10.316  64.884  1.00  0.00    -0.321 NA 
HETATM    7  C   UNL     1     -10.429  12.751  65.045  1.00  0.00    -0.334 A  
HETATM    8  C   UNL     1     -10.626  10.278  63.660  1.00  0.00     1.067 C  
HETATM    9  C   UNL     1      -9.347  11.686  65.182  1.00  0.00    -0.061 C  
HETATM   10  C   UNL     1      -8.765  11.637  66.607  1.00  0.00    -0.187 C  
HETATM   11  C   UNL     1      -7.556  10.704  66.693  1.00  0.00    -0.129 C  
HETATM   12  C   UNL     1     -11.886  11.154  63.753  1.00  0.00     0.550 C  
HETATM   13  C   UNL     1      -7.866   9.315  66.098  1.00  0.00    -0.099 C  
HETATM   14  C   UNL     1      -8.648   9.426  64.769  1.00  0.00    -0.180 C  
HETATM   15  C   UNL     1     -12.609  13.504  64.320  1.00  0.00    -0.206 A  
HETATM   16  C   UNL     1     -11.632  12.497  64.383  1.00  0.00    -0.419 A  
BRANCH   4  17
HETATM   17  O   UNL     1     -10.878  16.346  65.860  1.00  0.00    -0.237 OA 
HETATM   18  C   UNL     1     -10.144  17.165  64.956  1.00  0.00     1.002 C  
ENDBRANCH   4  17
BRANCH  11  19
HETATM   19  O   UNL     1      -7.213  10.548  68.094  1.00  0.00    -0.084 OA 
BRANCH  19  20
HETATM   20  C   UNL     1      -7.396   9.324  68.668  1.00  0.00    -0.076 C  
HETATM   21  O   UNL     1      -7.825   8.340  68.071  1.00  0.00    -0.114 OA 
BRANCH  20  22
HETATM   22  C   UNL     1      -6.997   9.304  70.169  1.00  0.00    -0.067 C  
HETATM   23  C   UNL     1      -5.623   7.159  69.926  1.00  0.00    -0.023 C  
HETATM   24  C   UNL     1      -6.365   7.852  72.192  1.00  0.00    -0.050 C  
HETATM   25  H2  UNL     1      -8.955   9.599  70.837  1.00  0.00     0.000 HD 
HETATM   26  H1  UNL     1      -7.764   9.978  71.975  1.00  0.00     0.000 HD 
HETATM   27  C   UNL     1      -6.740   7.869  70.701  1.00  0.00    -0.038 C  
HETATM   28  N   UNL     1      -8.026   9.991  70.988  1.00  0.00     0.234 NA 
ENDBRANCH  20  22
ENDBRANCH  19  20
ENDBRANCH  11  19
BRANCH  13  29
HETATM   29  C   UNL     1      -6.582   8.484  65.839  1.00  0.00    -0.053 C  
HETATM   30  C   UNL     1      -5.339   6.294  65.764  1.00  0.00    -0.014 C  
HETATM   31  C   UNL     1      -7.721   6.363  65.000  1.00  0.00    -0.098 C  
HETATM   32  C   UNL     1      -6.704   6.956  65.976  1.00  0.00    -0.052 C  
ENDBRANCH  13  29
ENDBRANCH   2   3
TORSDOF 6
ENDMDL
MODEL      177
REMARK 921   NORMALIZED FREE ENERGY PREDICTED BY IDOCK:   16.98 KCAL/MOL
REMARK 922        TOTAL FREE ENERGY PREDICTED BY IDOCK:   22.11 KCAL/MOL
REMARK 923 INTER-LIGAND FREE ENERGY PREDICTED BY IDOCK:   21.55 KCAL/MOL
REMARK 924 INTRA-LIGAND FREE ENERGY PREDICTED BY IDOCK:    0.56 KCAL/MOL
REMARK 927      BINDING AFFINITY PREDICTED BY RF-SCORE:    0.00 PKD
ROOT
HETATM    1  C   UNL     1     -11.401  11.793  72.702  1.00  0.00     8.598 C  
HETATM    2  O   UNL     1     -11.609  11.947  71.302  1.00  0.00     0.840 OA 
ENDROOT
BRANCH   2   3
HETATM    3  C   UNL     1     -11.186  10.920  70.498  1.00  0.00     0.005 A  
HETATM    4  C   UNL     1     -11.974  10.114  69.665  1.00  0.00     0.017 A  
HETATM    5  C   UNL     1     -11.347   9.134  68.894  1.00  0.00     0.347 A  
HETATM    6  N   UNL     1      -7.859   7.949  67.926  1.00  0.00    -0.124 NA 
HETATM    7  C   UNL     1      -9.955   8.944  68.903  1.00  0.00    -0.199 A  
HETATM    8  C   UNL     1      -7.257   8.124  69.255  1.00  0.00    -0.072 C  
HETATM    9  C   UNL     1      -9.334   7.882  68.004  1.00  0.00    -0.145 C  
HETATM   10  C   UNL     1      -9.841   7.985  66.554  1.00  0.00    -0.289 C  
HETATM   11  C   UNL     1      -9.366   6.808  65.701  1.00  0.00     0.307 C  
HETATM   12  C   UNL     1      -7.713   9.416  69.951  1.00  0.00    -0.114 C  
HETATM   13  C   UNL     1      -7.840   6.603  65.815  1.00  0.00    -0.105 C  
HETATM   14  C   UNL     1      -7.356   6.729  67.277  1.00  0.00    -0.091 C  
HETATM   15  C   UNL     1      -9.808  10.672  70.588  1.00  0.00     1.523 A  
HETATM   16  C   UNL     1      -9.189   9.678  69.811  1.00  0.00    -0.237 A  
BRANCH   4  17
HETATM   17  O   UNL     1     -13.337  10.262  69.683  1.00  0.00     0.294 OA 
HETATM   18  C   UNL     1     -14.082   9.202  70.274  1.00  0.00     1.425 C  
ENDBRANCH   4  17
BRANCH  11  19
HETATM   19  O   UNL     1      -9.698   7.095  64.319  1.00  0.00     2.738 OA 
BRANCH  19  20
HETATM   20  C   UNL     1      -8.716   7.586  63.510  1.00  0.00     0.693 C  
HETATM   21  O   UNL     1      -7.962   6.886  62.840  1.00  0.00    -0.113 OA 
BRANCH  20  22
HETATM   22  C   UNL     1      -8.653   9.138  63.523  1.00  0.00    -0.165 C  
HETATM   23  C   UNL     1     -11.053   9.388  62.669  1.00  0.00     6.878 C  
HETATM   24  C   UNL     1      -9.505  11.319  62.465  1.00  0.00    -0.173 C  
HETATM   25  H2  UNL     1      -6.831   9.212  62.503  1.00  0.00     0.000 HD 
HETATM   26  H1  UNL     1      -7.214  10.622  63.352  1.00  0.00     0.000 HD 
HETATM   27  C   UNL     1      -9.585   9.783  62.463  1.00  0.00     0.110 C  
HETATM   28  N   UNL     1      -7.255   9.602  63.344  1.00  0.00    -0.108 NA 
ENDBRANCH  20  22
ENDBRANCH  19  20
ENDBRANCH  11  19
BRANCH  13  29
HETATM   29  C   UNL     1      -7.387   5.224  65.268  1.00  0.00    -0.068 C  
HETATM   30  C   UNL     1      -6.731   2.816  65.606  1.00  0.00    -0.040 C  
HETATM   31  C   UNL     1      -8.580   3.774  66.992  1.00  0.00    -0.110 C  
HETATM   32  C   UNL     1      -7.257   4.081  66.290  1.00  0.00    -0.068 C  
ENDBRANCH  13  29
ENDBRANCH   2   3
TORSDOF 6
ENDMDL
MODEL      178
REMARK 921   NORMALIZED FREE ENERGY PREDICTED BY IDOCK:   18.54 KCAL/MOL
REMARK 922        TOTAL FREE ENERGY PREDICTED BY IDOCK:   24.23 KCAL/MOL
REMARK 923 INTER-LIGAND FREE ENERGY PREDICTED BY IDOCK:    9.98 KCAL/MOL
REMARK 924 INTRA-LIGAND FREE ENERGY PREDICTED BY IDOCK:   14.25 KCAL/MOL
REMARK 927      BINDING AFFINITY PREDICTED BY RF-SCORE:    0.00 PKD
ROOT
HETATM    1  C   UNL     1     -10.871  17.447  70.283  1.00  0.00     0.968 C  
HETATM    2  O   UNL     1     -11.678  16.277  70.211  1.00  0.00    -0.259 OA 
ENDROOT
BRANCH   2   3
HETATM    3  C   UNL     1     -11.022  15.081  70.067  1.00  0.00    -0.244 A  
HETATM    4  C   UNL     1     -10.460  14.295  71.083  1.00  0.00     2.277 A  
HETATM    5  C   UNL     1      -9.858  13.084  70.735  1.00  0.00     6.535 A  
HETATM    6  N   UNL     1      -9.417  10.782  67.733  1.00  0.00    -0.154 NA 
HETATM    7  C   UNL     1      -9.818  12.615  69.411  1.00  0.00     0.892 A  
HETATM    8  C   UNL     1      -9.204  11.848  66.744  1.00  0.00    -0.194 C  
HETATM    9  C   UNL     1      -9.179  11.264  69.110  1.00  0.00     0.114 C  
HETATM   10  C   UNL     1      -9.702  10.158  70.044  1.00  0.00    -0.144 C  
HETATM   11  C   UNL     1      -8.926   8.852  69.867  1.00  0.00    -0.156 C  
HETATM   12  C   UNL     1     -10.142  13.049  66.951  1.00  0.00    -0.243 C  
HETATM   13  C   UNL     1      -8.851   8.432  68.385  1.00  0.00    -0.140 C  
HETATM   14  C   UNL     1      -8.536   9.635  67.467  1.00  0.00    -0.125 C  
HETATM   15  C   UNL     1     -10.899  14.668  68.732  1.00  0.00    -0.261 A  
HETATM   16  C   UNL     1     -10.284  13.451  68.395  1.00  0.00    -0.251 A  
BRANCH   4  17
HETATM   17  O   UNL     1     -10.455  14.765  72.371  1.00  0.00     1.489 OA 
HETATM   18  C   UNL     1     -11.500  14.300  73.219  1.00  0.00     1.453 C  
ENDBRANCH   4  17
BRANCH  11  19
HETATM   19  O   UNL     1      -9.618   7.818  70.613  1.00  0.00    -0.167 OA 
BRANCH  19  20
HETATM   20  C   UNL     1      -9.523   7.835  71.974  1.00  0.00    -0.163 C  
HETATM   21  O   UNL     1     -10.477   8.006  72.729  1.00  0.00    -0.307 OA 
BRANCH  20  22
HETATM   22  C   UNL     1      -8.070   7.609  72.473  1.00  0.00    -0.113 C  
HETATM   23  C   UNL     1      -7.809   5.418  71.177  1.00  0.00    -0.104 C  
HETATM   24  C   UNL     1      -6.255   5.887  73.056  1.00  0.00    -0.061 C  
HETATM   25  H2  UNL     1      -8.555   7.957  74.476  1.00  0.00     0.000 HD 
HETATM   26  H1  UNL     1      -6.911   8.115  74.117  1.00  0.00     0.000 HD 
HETATM   27  C   UNL     1      -7.687   6.107  72.542  1.00  0.00    -0.103 C  
HETATM   28  N   UNL     1      -7.866   8.263  73.789  1.00  0.00    -0.281 NA 
ENDBRANCH  20  22
ENDBRANCH  19  20
ENDBRANCH  11  19
BRANCH  13  29
HETATM   29  C   UNL     1      -7.782   7.336  68.135  1.00  0.00    -0.117 C  
HETATM   30  C   UNL     1      -5.823   5.942  68.886  1.00  0.00    -0.016 C  
HETATM   31  C   UNL     1      -7.645   6.454  70.522  1.00  0.00    -0.096 C  
HETATM   32  C   UNL     1      -6.864   6.979  69.317  1.00  0.00    -0.054 C  
ENDBRANCH  13  29
ENDBRANCH   2   3
TORSDOF 6
ENDMDL
MODEL      179
REMARK 921   NORMALIZED FREE ENERGY PREDICTED BY IDOCK:   26.75 KCAL/MOL
REMARK 922        TOTAL FREE ENERGY PREDICTED BY IDOCK:   35.31 KCAL/MOL
REMARK 923 INTER-LIGAND FREE ENERGY PREDICTED BY IDOCK:   19.73 KCAL/MOL
REMARK 924 INTRA-LIGAND FREE ENERGY PREDICTED BY IDOCK:   15.58 KCAL/MOL
REMARK 927      BINDING AFFINITY PREDICTED BY RF-SCORE:    0.00 PKD
ROOT
HETATM    1  C   UNL     1     -11.766  18.263  71.089  1.00  0.00     6.393 C  
HETATM    2  O   UNL     1     -12.641  17.196  70.742  1.00  0.00     3.248 OA 
ENDROOT
BRANCH   2   3
HETATM    3  C   UNL     1     -12.114  16.187  69.977  1.00  0.00     0.031 A  
HETATM    4  C   UNL     1     -11.392  16.318  68.782  1.00  0.00    -0.329 A  
HETATM    5  C   UNL     1     -10.907  15.163  68.165  1.00  0.00    -0.266 A  
HETATM    6  N   UNL     1     -10.556  11.424  68.797  1.00  0.00    -0.198 NA 
HETATM    7  C   UNL     1     -11.093  13.882  68.710  1.00  0.00    -0.291 A  
HETATM    8  C   UNL     1     -11.873  11.244  69.424  1.00  0.00    -0.355 C  
HETATM    9  C   UNL     1     -10.499  12.669  68.002  1.00  0.00    -0.224 C  
HETATM   10  C   UNL     1      -9.017  12.879  67.644  1.00  0.00    -0.192 C  
HETATM   11  C   UNL     1      -8.478  11.745  66.771  1.00  0.00    -0.177 C  
HETATM   12  C   UNL     1     -12.237  12.388  70.384  1.00  0.00    -0.370 C  
HETATM   13  C   UNL     1      -8.782  10.362  67.385  1.00  0.00    -0.125 C  
HETATM   14  C   UNL     1     -10.227  10.284  67.927  1.00  0.00    -0.183 C  
HETATM   15  C   UNL     1     -12.388  14.905  70.476  1.00  0.00    -0.400 A  
HETATM   16  C   UNL     1     -11.900  13.751  69.841  1.00  0.00    -0.394 A  
BRANCH   4  17
HETATM   17  O   UNL     1     -11.244  17.560  68.220  1.00  0.00    -0.102 OA 
HETATM   18  C   UNL     1     -12.442  18.243  67.869  1.00  0.00     5.090 C  
ENDBRANCH   4  17
BRANCH  11  19
HETATM   19  O   UNL     1      -7.040  11.906  66.668  1.00  0.00    -0.060 OA 
BRANCH  19  20
HETATM   20  C   UNL     1      -6.545  13.166  66.502  1.00  0.00     2.163 C  
HETATM   21  O   UNL     1      -5.372  13.416  66.237  1.00  0.00     2.102 OA 
BRANCH  20  22
HETATM   22  C   UNL     1      -7.632  14.262  66.681  1.00  0.00     1.038 C  
HETATM   23  C   UNL     1      -6.173  15.658  68.253  1.00  0.00    -0.120 C  
HETATM   24  C   UNL     1      -8.625  16.052  68.233  1.00  0.00    -0.179 C  
HETATM   25  H2  UNL     1      -9.150  12.886  67.093  1.00  0.00     0.000 HD 
HETATM   26  H1  UNL     1      -9.699  14.407  66.601  1.00  0.00     0.000 HD 
HETATM   27  C   UNL     1      -7.535  14.982  68.052  1.00  0.00    -0.130 C  
HETATM   28  N   UNL     1      -8.985  13.687  66.484  1.00  0.00    -0.118 NA 
ENDBRANCH  20  22
ENDBRANCH  19  20
ENDBRANCH  11  19
BRANCH  13  29
HETATM   29  C   UNL     1      -8.581   9.208  66.368  1.00  0.00    -0.135 C  
HETATM   30  C   UNL     1      -9.477   7.352  64.920  1.00  0.00     1.563 C  
HETATM   31  C   UNL     1     -10.790   9.471  65.124  1.00  0.00     2.457 C  
HETATM   32  C   UNL     1      -9.850   8.509  65.851  1.00  0.00    -0.012 C  
ENDBRANCH  13  29
ENDBRANCH   2   3
TORSDOF 6
ENDMDL
MODEL      180
REMARK 921   NORMALIZED FREE ENERGY PREDICTED BY IDOCK:   27.85 KCAL/MOL
REMARK 922        TOTAL FREE ENERGY PREDICTED BY IDOCK:   36.80 KCAL/MOL
REMARK 923 INTER-LIGAND FREE ENERGY PREDICTED BY IDOCK:   37.29 KCAL/MOL
REMARK 924 INTRA-LIGAND FREE ENERGY PREDICTED BY IDOCK:   -0.49 KCAL/MOL
REMARK 927      BINDING AFFINITY PREDICTED BY RF-SCORE:    0.00 PKD
ROOT
HETATM    1  C   UNL     1     -10.902  17.435  70.268  1.00  0.00     0.968 C  
HETATM    2  O   UNL     1     -12.045  16.602  70.106  1.00  0.00     0.445 OA 
ENDROOT
BRANCH   2   3
HETATM    3  C   UNL     1     -11.813  15.295  69.760  1.00  0.00    -0.332 A  
HETATM    4  C   UNL     1     -11.548  14.223  70.624  1.00  0.00    -0.148 A  
HETATM    5  C   UNL     1     -11.369  12.951  70.076  1.00  0.00     0.052 A  
HETATM    6  N   UNL     1     -11.674  11.120  66.750  1.00  0.00    -0.247 NA 
HETATM    7  C   UNL     1     -11.471  12.704  68.696  1.00  0.00    -0.347 A  
HETATM    8  C   UNL     1     -11.116  12.198  65.922  1.00  0.00    -0.318 C  
HETATM    9  C   UNL     1     -11.305  11.282  68.173  1.00  0.00    -0.303 C  
HETATM   10  C   UNL     1     -12.169  10.275  68.954  1.00  0.00     0.571 C  
HETATM   11  C   UNL     1     -11.859   8.832  68.554  1.00  0.00     2.121 C  
HETATM   12  C   UNL     1     -11.614  13.591  66.343  1.00  0.00    -0.381 C  
HETATM   13  C   UNL     1     -11.911   8.642  67.023  1.00  0.00     5.243 C  
HETATM   14  C   UNL     1     -11.213   9.805  66.281  1.00  0.00     1.077 C  
HETATM   15  C   UNL     1     -11.819  15.074  68.375  1.00  0.00    -0.298 A  
HETATM   16  C   UNL     1     -11.631  13.791  67.835  1.00  0.00    -0.376 A  
BRANCH   4  17
HETATM   17  O   UNL     1     -11.402  14.463  71.966  1.00  0.00     0.393 OA 
HETATM   18  C   UNL     1     -12.548  14.236  72.778  1.00  0.00    -0.221 C  
ENDBRANCH   4  17
BRANCH  11  19
HETATM   19  O   UNL     1     -12.857   7.976  69.166  1.00  0.00     3.843 OA 
BRANCH  19  20
HETATM   20  C   UNL     1     -12.743   7.707  70.498  1.00  0.00     0.392 C  
HETATM   21  O   UNL     1     -13.554   8.072  71.346  1.00  0.00    -0.304 OA 
BRANCH  20  22
HETATM   22  C   UNL     1     -11.471   6.881  70.834  1.00  0.00    -0.323 C  
HETATM   23  C   UNL     1     -12.052   5.033  69.162  1.00  0.00     7.571 C  
HETATM   24  C   UNL     1     -10.415   4.543  70.964  1.00  0.00     0.033 C  
HETATM   25  H2  UNL     1     -11.772   6.994  72.899  1.00  0.00     0.000 HD 
HETATM   26  H1  UNL     1     -10.190   6.613  72.443  1.00  0.00     0.000 HD 
HETATM   27  C   UNL     1     -11.670   5.359  70.611  1.00  0.00     1.387 C  
HETATM   28  N   UNL     1     -11.026   7.155  72.223  1.00  0.00    -0.234 NA 
ENDBRANCH  20  22
ENDBRANCH  19  20
ENDBRANCH  11  19
BRANCH  13  29
HETATM   29  C   UNL     1     -11.255   7.311  66.570  1.00  0.00     1.116 C  
HETATM   30  C   UNL     1     -11.403   4.903  65.850  1.00  0.00     0.706 C  
HETATM   31  C   UNL     1     -13.131   6.519  65.039  1.00  0.00    11.089 C  
HETATM   32  C   UNL     1     -12.205   6.159  66.200  1.00  0.00     4.117 C  
ENDBRANCH  13  29
ENDBRANCH   2   3
TORSDOF 6
ENDMDL
MODEL      181
REMARK 921   NORMALIZED FREE ENERGY PREDICTED BY IDOCK:   29.81 KCAL/MOL
REMARK 922        TOTAL FREE ENERGY PREDICTED BY IDOCK:   39.45 KCAL/MOL
REMARK 923 INTER-LIGAND FREE ENERGY PREDICTED BY IDOCK:   37.61 KCAL/MOL
REMARK 924 INTRA-LIGAND FREE ENERGY PREDICTED BY IDOCK:    1.84 KCAL/MOL
REMARK 927      BINDING AFFINITY PREDICTED BY RF-SCORE:    0.00 PKD
ROOT
HETATM    1  C   UNL     1     -12.333  10.681  64.452  1.00  0.00     3.984 C  
HETATM    2  O   UNL     1     -13.089  11.325  65.472  1.00  0.00     3.347 OA 
ENDROOT
BRANCH   2   3
HETATM    3  C   UNL     1     -12.485  12.371  66.122  1.00  0.00     0.488 A  
HETATM    4  C   UNL     1     -11.141  12.465  66.512  1.00  0.00    -0.301 A  
HETATM    5  C   UNL     1     -10.708  13.635  67.139  1.00  0.00    -0.279 A  
HETATM    6  N   UNL     1     -11.935  17.140  67.983  1.00  0.00     1.105 NA 
HETATM    7  C   UNL     1     -11.560  14.728  67.368  1.00  0.00    -0.377 A  
HETATM    8  C   UNL     1     -13.300  16.745  68.359  1.00  0.00     5.550 C  
HETATM    9  C   UNL     1     -11.008  15.990  68.021  1.00  0.00    -0.341 C  
HETATM   10  C   UNL     1      -9.709  16.467  67.346  1.00  0.00    -0.246 C  
HETATM   11  C   UNL     1      -9.059  17.616  68.117  1.00  0.00    -0.276 C  
HETATM   12  C   UNL     1     -13.892  15.680  67.422  1.00  0.00     7.857 C  
HETATM   13  C   UNL     1     -10.065  18.750  68.405  1.00  0.00    -0.443 C  
HETATM   14  C   UNL     1     -11.429  18.195  68.874  1.00  0.00     2.222 C  
HETATM   15  C   UNL     1     -13.365  13.418  66.435  1.00  0.00     2.211 A  
HETATM   16  C   UNL     1     -12.917  14.587  67.073  1.00  0.00     1.529 A  
BRANCH   4  17
HETATM   17  O   UNL     1     -10.313  11.387  66.334  1.00  0.00    -0.226 OA 
HETATM   18  C   UNL     1      -9.540  11.374  65.139  1.00  0.00    -0.229 C  
ENDBRANCH   4  17
BRANCH  11  19
HETATM   19  O   UNL     1      -7.979  18.144  67.304  1.00  0.00    -0.216 OA 
BRANCH  19  20
HETATM   20  C   UNL     1      -6.823  17.424  67.225  1.00  0.00    -0.168 C  
HETATM   21  O   UNL     1      -5.701  17.905  67.361  1.00  0.00    -0.143 OA 
BRANCH  20  22
HETATM   22  C   UNL     1      -7.077  15.917  66.946  1.00  0.00    -0.096 C  
HETATM   23  C   UNL     1      -6.140  15.189  69.214  1.00  0.00    -0.109 C  
HETATM   24  C   UNL     1      -6.321  13.503  67.399  1.00  0.00     0.045 C  
HETATM   25  H2  UNL     1      -6.185  15.973  65.058  1.00  0.00     0.000 HD 
HETATM   26  H1  UNL     1      -7.217  14.658  65.304  1.00  0.00     0.000 HD 
HETATM   27  C   UNL     1      -6.079  14.993  67.693  1.00  0.00    -0.110 C  
HETATM   28  N   UNL     1      -7.050  15.647  65.487  1.00  0.00     4.282 NA 
ENDBRANCH  20  22
ENDBRANCH  19  20
ENDBRANCH  11  19
BRANCH  13  29
HETATM   29  C   UNL     1      -9.546  19.741  69.480  1.00  0.00     0.021 C  
HETATM   30  C   UNL     1      -8.552  20.233  71.741  1.00  0.00     2.285 C  
HETATM   31  C   UNL     1      -7.729  18.247  70.461  1.00  0.00     3.189 C  
HETATM   32  C   UNL     1      -8.944  19.128  70.756  1.00  0.00     3.052 C  
ENDBRANCH  13  29
ENDBRANCH   2   3
TORSDOF 6
ENDMDL
MODEL      182
REMARK 921   NORMALIZED FREE ENERGY PREDICTED BY IDOCK:   33.77 KCAL/MOL
REMARK 922        TOTAL FREE ENERGY PREDICTED BY IDOCK:   44.80 KCAL/MOL
REMARK 923 INTER-LIGAND FREE ENERGY PREDICTED BY IDOCK:   42.20 KCAL/MOL
REMARK 924 INTRA-LIGAND FREE ENERGY PREDICTED BY IDOCK:    2.60 KCAL/MOL
REMARK 927      BINDING AFFINITY PREDICTED BY RF-SCORE:    0.00 PKD
ROOT
HETATM    1  C   UNL     1     -13.018   9.800  64.847  1.00  0.00    14.434 C  
HETATM    2  O   UNL     1     -12.907  10.089  66.236  1.00  0.00     8.365 OA 
ENDROOT
BRANCH   2   3
HETATM    3  C   UNL     1     -11.986  11.037  66.599  1.00  0.00     1.442 A  
HETATM    4  C   UNL     1     -11.533  12.118  65.829  1.00  0.00    -0.361 A  
HETATM    5  C   UNL     1     -10.609  13.000  66.393  1.00  0.00    -0.294 A  
HETATM    6  N   UNL     1      -8.935  13.758  69.729  1.00  0.00     1.384 NA 
HETATM    7  C   UNL     1     -10.138  12.858  67.709  1.00  0.00    -0.229 A  
HETATM    8  C   UNL     1      -8.726  12.358  70.125  1.00  0.00     4.172 C  
HETATM    9  C   UNL     1      -9.159  13.882  68.273  1.00  0.00    -0.191 C  
HETATM   10  C   UNL     1      -9.638  15.326  68.038  1.00  0.00    -0.203 C  
HETATM   11  C   UNL     1      -8.571  16.348  68.433  1.00  0.00    -0.209 C  
HETATM   12  C   UNL     1      -9.930  11.460  69.794  1.00  0.00     0.793 C  
HETATM   13  C   UNL     1      -8.038  16.092  69.859  1.00  0.00     0.657 C  
HETATM   14  C   UNL     1      -7.782  14.588  70.109  1.00  0.00     0.630 C  
HETATM   15  C   UNL     1     -11.447  10.833  67.878  1.00  0.00    -0.306 A  
HETATM   16  C   UNL     1     -10.512  11.723  68.431  1.00  0.00    -0.231 A  
BRANCH   4  17
HETATM   17  O   UNL     1     -11.953  12.239  64.530  1.00  0.00    -0.380 OA 
HETATM   18  C   UNL     1     -13.348  12.442  64.331  1.00  0.00     0.563 C  
ENDBRANCH   4  17
BRANCH  11  19
HETATM   19  O   UNL     1      -9.177  17.665  68.389  1.00  0.00    -0.273 OA 
BRANCH  19  20
HETATM   20  C   UNL     1     -10.324  17.821  67.668  1.00  0.00    -0.373 C  
HETATM   21  O   UNL     1     -11.454  17.712  68.138  1.00  0.00     0.266 OA 
BRANCH  20  22
HETATM   22  C   UNL     1     -10.049  18.157  66.176  1.00  0.00    -0.336 C  
HETATM   23  C   UNL     1      -7.711  19.075  66.662  1.00  0.00    -0.260 C  
HETATM   24  C   UNL     1      -8.814  19.688  64.524  1.00  0.00     4.331 C  
HETATM   25  H2  UNL     1     -11.873  19.144  65.918  1.00  0.00     0.000 HD 
HETATM   26  H1  UNL     1     -11.142  18.639  64.480  1.00  0.00     0.000 HD 
HETATM   27  C   UNL     1      -9.068  19.346  66.002  1.00  0.00    -0.194 C  
HETATM   28  N   UNL     1     -11.323  18.418  65.460  1.00  0.00     0.570 NA 
ENDBRANCH  20  22
ENDBRANCH  19  20
ENDBRANCH  11  19
BRANCH  13  29
HETATM   29  C   UNL     1      -6.724  16.865  70.146  1.00  0.00     0.622 C  
HETATM   30  C   UNL     1      -5.192  18.130  71.693  1.00  0.00     0.021 C  
HETATM   31  C   UNL     1      -6.440  16.149  72.575  1.00  0.00     4.233 C  
HETATM   32  C   UNL     1      -6.489  17.322  71.595  1.00  0.00     3.558 C  
ENDBRANCH  13  29
ENDBRANCH   2   3
TORSDOF 6
ENDMDL
MODEL      183
REMARK 921   NORMALIZED FREE ENERGY PREDICTED BY IDOCK:   36.35 KCAL/MOL
REMARK 922        TOTAL FREE ENERGY PREDICTED BY IDOCK:   48.28 KCAL/MOL
REMARK 923 INTER-LIGAND FREE ENERGY PREDICTED BY IDOCK:   42.88 KCAL/MOL
REMARK 924 INTRA-LIGAND FREE ENERGY PREDICTED BY IDOCK:    5.40 KCAL/MOL
REMARK 927      BINDING AFFINITY PREDICTED BY RF-SCORE:    0.00 PKD
ROOT
HETATM    1  C   UNL     1     -10.097   5.133  74.302  1.00  0.00    -0.238 C  
HETATM    2  O   UNL     1     -10.920   5.879  73.410  1.00  0.00    -0.260 OA 
ENDROOT
BRANCH   2   3
HETATM    3  C   UNL     1     -10.349   6.973  72.812  1.00  0.00    -0.222 A  
HETATM    4  C   UNL     1      -9.236   6.988  71.958  1.00  0.00    -0.138 A  
HETATM    5  C   UNL     1      -8.824   8.209  71.420  1.00  0.00    -0.185 A  
HETATM    6  N   UNL     1      -9.946  11.841  71.185  1.00  0.00     6.345 NA 
HETATM    7  C   UNL     1      -9.498   9.414  71.681  1.00  0.00     0.248 A  
HETATM    8  C   UNL     1     -10.438  11.946  72.566  1.00  0.00    14.941 C  
HETATM    9  C   UNL     1      -9.016  10.703  71.025  1.00  0.00     3.792 C  
HETATM   10  C   UNL     1      -8.805  10.535  69.509  1.00  0.00    -0.043 C  
HETATM   11  C   UNL     1      -8.144  11.767  68.889  1.00  0.00     0.030 C  
HETATM   12  C   UNL     1     -11.203  10.693  73.022  1.00  0.00     8.400 C  
HETATM   13  C   UNL     1      -8.885  13.064  69.275  1.00  0.00     0.937 C  
HETATM   14  C   UNL     1      -9.266  13.078  70.773  1.00  0.00     8.249 C  
HETATM   15  C   UNL     1     -10.967   8.184  73.155  1.00  0.00    -0.021 A  
HETATM   16  C   UNL     1     -10.538   9.406  72.612  1.00  0.00     1.736 A  
BRANCH   4  17
HETATM   17  O   UNL     1      -8.546   5.825  71.734  1.00  0.00    -0.130 OA 
HETATM   18  C   UNL     1      -8.037   5.159  72.885  1.00  0.00    -0.105 C  
ENDBRANCH   4  17
BRANCH  11  19
HETATM   19  O   UNL     1      -8.185  11.616  67.447  1.00  0.00    -0.139 OA 
BRANCH  19  20
HETATM   20  C   UNL     1      -8.676  10.451  66.937  1.00  0.00    -0.126 C  
HETATM   21  O   UNL     1      -9.872  10.181  66.861  1.00  0.00    -0.179 OA 
BRANCH  20  22
HETATM   22  C   UNL     1      -7.553   9.492  66.452  1.00  0.00    -0.097 C  
HETATM   23  C   UNL     1      -6.995   8.712  68.825  1.00  0.00    -0.063 C  
HETATM   24  C   UNL     1      -5.322   8.354  67.024  1.00  0.00    -0.037 C  
HETATM   25  H2  UNL     1      -6.648  10.937  65.245  1.00  0.00     0.000 HD 
HETATM   26  H1  UNL     1      -6.238   9.344  64.856  1.00  0.00     0.000 HD 
HETATM   27  C   UNL     1      -6.442   9.287  67.515  1.00  0.00    -0.063 C  
HETATM   28  N   UNL     1      -6.975   9.974  65.174  1.00  0.00    -0.129 NA 
ENDBRANCH  20  22
ENDBRANCH  19  20
ENDBRANCH  11  19
BRANCH  13  29
HETATM   29  C   UNL     1      -8.046  14.335  68.975  1.00  0.00    -0.003 C  
HETATM   30  C   UNL     1      -5.939  15.459  68.175  1.00  0.00    -0.141 C  
HETATM   31  C   UNL     1      -6.752  13.416  66.981  1.00  0.00     0.624 C  
HETATM   32  C   UNL     1      -6.664  14.120  68.336  1.00  0.00    -0.105 C  
ENDBRANCH  13  29
ENDBRANCH   2   3
TORSDOF 6
ENDMDL
