MODEL        1
REMARK 921   NORMALIZED FREE ENERGY PREDICTED BY IDOCK:   -7.46 KCAL/MOL
REMARK 922        TOTAL FREE ENERGY PREDICTED BY IDOCK:  -12.17 KCAL/MOL
REMARK 923 INTER-LIGAND FREE ENERGY PREDICTED BY IDOCK:  -10.95 KCAL/MOL
REMARK 924 INTRA-LIGAND FREE ENERGY PREDICTED BY IDOCK:   -1.22 KCAL/MOL
REMARK 927      BINDING AFFINITY PREDICTED BY RF-SCORE:    0.00 PKD
ROOT
HETATM    1  C   UNL     1      -8.201  20.447  67.078  1.00  0.00    -0.349 C  
HETATM    2  C   UNL     1      -7.873  19.184  67.884  1.00  0.00    -0.318 C  
HETATM    3  C   UNL     1      -6.358  19.069  68.075  1.00  0.00    -0.231 C  
HETATM    4  C   UNL     1      -8.477  17.897  67.268  1.00  0.00    -0.236 C  
HETATM    5  N   UNL     1      -7.988  17.662  65.891  1.00  0.00    -0.555 NA 
HETATM    6  H1  UNL     1      -8.385  16.814  65.486  1.00  0.00     0.000 HD 
HETATM    7  H2  UNL     1      -6.969  17.646  65.856  1.00  0.00     0.000 HD 
ENDROOT
BRANCH   4   8
HETATM    8  C   UNL     1     -10.018  17.930  67.317  1.00  0.00    -0.325 C  
HETATM    9  O   UNL     1     -10.736  18.233  66.372  1.00  0.00    -0.321 OA 
BRANCH   8  10
HETATM   10  O   UNL     1     -10.488  17.648  68.569  1.00  0.00    -0.359 OA 
BRANCH  10  11
HETATM   11  C   UNL     1     -11.440  16.574  68.664  1.00  0.00    -0.146 C  
BRANCH  11  12
HETATM   12  C   UNL     1     -11.071  15.648  69.834  1.00  0.00    -0.319 C  
BRANCH  12  13
HETATM   13  O   UNL     1     -10.956  14.260  69.445  1.00  0.00    -0.248 OA 
BRANCH  13  14
HETATM   14  C   UNL     1     -10.032  14.053  68.378  1.00  0.00    -0.236 C  
BRANCH  14  15
HETATM   15  N   UNL     1     -10.688  13.319  67.320  1.00  0.00    -0.254 NA 
HETATM   16  C   UNL     1     -11.115  12.016  67.410  1.00  0.00    -0.281 A  
HETATM   17  N   UNL     1     -11.797  11.640  66.344  1.00  0.00    -0.405 NA 
HETATM   18  C   UNL     1     -11.817  12.751  65.530  1.00  0.00    -0.422 A  
HETATM   19  C   UNL     1     -11.132  13.780  66.128  1.00  0.00    -0.296 A  
HETATM   20  N   UNL     1     -11.013  14.985  65.559  1.00  0.00    -0.342 NA 
HETATM   21  C   UNL     1     -11.635  15.159  64.347  1.00  0.00    -0.271 C  
HETATM   22  N   UNL     1     -11.527  16.420  63.861  1.00  0.00    -1.618 NA 
HETATM   23  N   UNL     1     -12.308  14.257  63.692  1.00  0.00    -1.109 N  
HETATM   24  H2  UNL     1     -11.032  17.167  64.349  1.00  0.00     0.000 HD 
HETATM   25  H1  UNL     1     -11.988  16.549  62.961  1.00  0.00     0.000 HD 
HETATM   26  H   UNL     1     -12.733  14.492  62.795  1.00  0.00     0.000 HD 
HETATM   27  C   UNL     1     -12.448  12.967  64.217  1.00  0.00    -0.349 C  
HETATM   28  O   UNL     1     -13.060  12.082  63.632  1.00  0.00    -0.756 OA 
ENDBRANCH  14  15
ENDBRANCH  13  14
ENDBRANCH  12  13
BRANCH  12  29
HETATM   29  C   UNL     1     -12.139  15.731  70.935  1.00  0.00    -0.416 C  
HETATM   30  O   UNL     1     -13.432  15.542  70.357  1.00  0.00    -0.791 OA 
HETATM   31  H   UNL     1     -14.093  15.593  71.038  1.00  0.00     0.000 HD 
ENDBRANCH  12  29
ENDBRANCH  11  12
ENDBRANCH  10  11
ENDBRANCH   8  10
ENDBRANCH   4   8
TORSDOF 8
ENDMDL
MODEL        2
REMARK 921   NORMALIZED FREE ENERGY PREDICTED BY IDOCK:   -7.17 KCAL/MOL
REMARK 922        TOTAL FREE ENERGY PREDICTED BY IDOCK:  -11.74 KCAL/MOL
REMARK 923 INTER-LIGAND FREE ENERGY PREDICTED BY IDOCK:  -10.74 KCAL/MOL
REMARK 924 INTRA-LIGAND FREE ENERGY PREDICTED BY IDOCK:   -1.00 KCAL/MOL
REMARK 927      BINDING AFFINITY PREDICTED BY RF-SCORE:    0.00 PKD
ROOT
HETATM    1  C   UNL     1     -14.330  15.097  71.774  1.00  0.00    -0.696 C  
HETATM    2  C   UNL     1     -12.973  14.562  72.248  1.00  0.00    -0.441 C  
HETATM    3  C   UNL     1     -12.702  15.032  73.680  1.00  0.00    -0.650 C  
HETATM    4  C   UNL     1     -11.809  14.925  71.291  1.00  0.00    -0.339 C  
HETATM    5  N   UNL     1     -11.659  16.390  71.135  1.00  0.00    -0.605 NA 
HETATM    6  H1  UNL     1     -10.893  16.628  70.505  1.00  0.00     0.000 HD 
HETATM    7  H2  UNL     1     -11.552  16.850  72.038  1.00  0.00     0.000 HD 
ENDROOT
BRANCH   4   8
HETATM    8  C   UNL     1     -11.979  14.231  69.924  1.00  0.00    -0.339 C  
HETATM    9  O   UNL     1     -12.076  14.819  68.854  1.00  0.00    -0.279 OA 
BRANCH   8  10
HETATM   10  O   UNL     1     -12.083  12.875  70.059  1.00  0.00    -0.324 OA 
BRANCH  10  11
HETATM   11  C   UNL     1     -11.896  12.102  68.859  1.00  0.00    -0.304 C  
BRANCH  11  12
HETATM   12  C   UNL     1     -10.453  11.575  68.795  1.00  0.00    -0.204 C  
BRANCH  12  13
HETATM   13  O   UNL     1     -10.049  11.184  67.463  1.00  0.00    -0.179 OA 
BRANCH  13  14
HETATM   14  C   UNL     1      -9.027  12.018  66.921  1.00  0.00    -0.199 C  
BRANCH  14  15
HETATM   15  N   UNL     1      -9.630  13.218  66.385  1.00  0.00    -0.268 NA 
HETATM   16  C   UNL     1      -9.224  14.500  66.669  1.00  0.00    -0.266 A  
HETATM   17  N   UNL     1      -9.864  15.397  65.943  1.00  0.00    -0.328 NA 
HETATM   18  C   UNL     1     -10.719  14.663  65.150  1.00  0.00    -0.414 A  
HETATM   19  C   UNL     1     -10.577  13.326  65.425  1.00  0.00    -0.296 A  
HETATM   20  N   UNL     1     -11.278  12.385  64.782  1.00  0.00    -0.301 NA 
HETATM   21  C   UNL     1     -12.138  12.819  63.803  1.00  0.00    -0.517 C  
HETATM   22  N   UNL     1     -12.765  11.810  63.150  1.00  0.00    -0.906 NA 
HETATM   23  N   UNL     1     -12.350  14.056  63.460  1.00  0.00    -1.118 N  
HETATM   24  H2  UNL     1     -12.613  10.825  63.365  1.00  0.00     0.000 HD 
HETATM   25  H1  UNL     1     -13.404  12.132  62.423  1.00  0.00     0.000 HD 
HETATM   26  H   UNL     1     -13.013  14.271  62.715  1.00  0.00     0.000 HD 
HETATM   27  C   UNL     1     -11.670  15.093  64.112  1.00  0.00    -0.110 C  
HETATM   28  O   UNL     1     -11.847  16.273  63.833  1.00  0.00    -0.994 OA 
ENDBRANCH  14  15
ENDBRANCH  13  14
ENDBRANCH  12  13
BRANCH  12  29
HETATM   29  C   UNL     1     -10.294  10.347  69.704  1.00  0.00    -0.226 C  
HETATM   30  O   UNL     1     -11.440   9.504  69.566  1.00  0.00    -0.438 OA 
HETATM   31  H   UNL     1     -11.342   8.744  70.128  1.00  0.00     0.000 HD 
ENDBRANCH  12  29
ENDBRANCH  11  12
ENDBRANCH  10  11
ENDBRANCH   8  10
ENDBRANCH   4   8
TORSDOF 8
ENDMDL
MODEL        3
REMARK 921   NORMALIZED FREE ENERGY PREDICTED BY IDOCK:   -6.97 KCAL/MOL
REMARK 922        TOTAL FREE ENERGY PREDICTED BY IDOCK:  -11.44 KCAL/MOL
REMARK 923 INTER-LIGAND FREE ENERGY PREDICTED BY IDOCK:  -10.50 KCAL/MOL
REMARK 924 INTRA-LIGAND FREE ENERGY PREDICTED BY IDOCK:   -0.94 KCAL/MOL
REMARK 927      BINDING AFFINITY PREDICTED BY RF-SCORE:    0.00 PKD
ROOT
HETATM    1  C   UNL     1     -10.537   5.106  70.984  1.00  0.00    -0.201 C  
HETATM    2  C   UNL     1     -10.602   5.683  72.403  1.00  0.00    -0.270 C  
HETATM    3  C   UNL     1     -11.143   4.625  73.369  1.00  0.00    -0.418 C  
HETATM    4  C   UNL     1     -11.407   7.005  72.484  1.00  0.00    -0.263 C  
HETATM    5  N   UNL     1     -12.806   6.829  72.032  1.00  0.00    -0.547 NA 
HETATM    6  H1  UNL     1     -13.335   7.698  72.086  1.00  0.00     0.000 HD 
HETATM    7  H2  UNL     1     -13.270   6.080  72.545  1.00  0.00     0.000 HD 
ENDROOT
BRANCH   4   8
HETATM    8  C   UNL     1     -10.703   8.131  71.701  1.00  0.00    -0.241 C  
HETATM    9  O   UNL     1      -9.567   8.531  71.930  1.00  0.00    -0.228 OA 
BRANCH   8  10
HETATM   10  O   UNL     1     -11.528   8.683  70.761  1.00  0.00    -0.271 OA 
BRANCH  10  11
HETATM   11  C   UNL     1     -11.171   9.997  70.296  1.00  0.00    -0.313 C  
BRANCH  11  12
HETATM   12  C   UNL     1     -12.429  10.873  70.183  1.00  0.00    -0.283 C  
BRANCH  12  13
HETATM   13  O   UNL     1     -12.204  12.099  69.451  1.00  0.00    -0.207 OA 
BRANCH  13  14
HETATM   14  C   UNL     1     -11.581  11.889  68.185  1.00  0.00    -0.334 C  
BRANCH  14  15
HETATM   15  N   UNL     1     -11.712  13.088  67.389  1.00  0.00    -0.361 NA 
HETATM   16  C   UNL     1     -11.421  14.360  67.823  1.00  0.00    -0.336 A  
HETATM   17  N   UNL     1     -11.506  15.249  66.851  1.00  0.00    -0.215 NA 
HETATM   18  C   UNL     1     -11.862  14.520  65.737  1.00  0.00    -0.327 A  
HETATM   19  C   UNL     1     -11.992  13.195  66.069  1.00  0.00    -0.433 A  
HETATM   20  N   UNL     1     -12.314  12.260  65.168  1.00  0.00    -0.532 NA 
HETATM   21  C   UNL     1     -12.485  12.685  63.873  1.00  0.00    -0.407 C  
HETATM   22  N   UNL     1     -12.745  11.678  63.004  1.00  0.00    -0.865 NA 
HETATM   23  N   UNL     1     -12.386  13.911  63.448  1.00  0.00    -1.139 N  
HETATM   24  H2  UNL     1     -12.806  10.699  63.285  1.00  0.00     0.000 HD 
HETATM   25  H1  UNL     1     -12.872  11.993  62.043  1.00  0.00     0.000 HD 
HETATM   26  H   UNL     1     -12.532  14.121  62.461  1.00  0.00     0.000 HD 
HETATM   27  C   UNL     1     -12.079  14.943  64.344  1.00  0.00    -0.401 C  
HETATM   28  O   UNL     1     -11.989  16.114  63.994  1.00  0.00    -0.897 OA 
ENDBRANCH  14  15
ENDBRANCH  13  14
ENDBRANCH  12  13
BRANCH  12  29
HETATM   29  C   UNL     1     -12.938  11.257  71.581  1.00  0.00    -0.432 C  
HETATM   30  O   UNL     1     -13.440  10.092  72.240  1.00  0.00    -0.583 OA 
HETATM   31  H   UNL     1     -13.754  10.330  73.104  1.00  0.00     0.000 HD 
ENDBRANCH  12  29
ENDBRANCH  11  12
ENDBRANCH  10  11
ENDBRANCH   8  10
ENDBRANCH   4   8
TORSDOF 8
ENDMDL
MODEL        4
REMARK 921   NORMALIZED FREE ENERGY PREDICTED BY IDOCK:   -6.91 KCAL/MOL
REMARK 922        TOTAL FREE ENERGY PREDICTED BY IDOCK:  -11.36 KCAL/MOL
REMARK 923 INTER-LIGAND FREE ENERGY PREDICTED BY IDOCK:   -9.90 KCAL/MOL
REMARK 924 INTRA-LIGAND FREE ENERGY PREDICTED BY IDOCK:   -1.47 KCAL/MOL
REMARK 927      BINDING AFFINITY PREDICTED BY RF-SCORE:    0.00 PKD
ROOT
HETATM    1  C   UNL     1     -12.935  13.797  65.544  1.00  0.00    -0.363 C  
HETATM    2  C   UNL     1     -11.897  13.613  64.431  1.00  0.00    -0.460 C  
HETATM    3  C   UNL     1     -11.671  12.119  64.174  1.00  0.00    -0.478 C  
HETATM    4  C   UNL     1     -10.568  14.358  64.710  1.00  0.00    -0.393 C  
HETATM    5  N   UNL     1      -9.931  13.901  65.966  1.00  0.00    -0.307 NA 
HETATM    6  H1  UNL     1      -9.056  14.392  66.149  1.00  0.00     0.000 HD 
HETATM    7  H2  UNL     1      -9.796  12.891  65.966  1.00  0.00     0.000 HD 
ENDROOT
BRANCH   4   8
HETATM    8  C   UNL     1     -10.781  15.886  64.714  1.00  0.00    -0.229 C  
HETATM    9  O   UNL     1     -11.652  16.467  64.078  1.00  0.00    -1.154 OA 
BRANCH   8  10
HETATM   10  O   UNL     1      -9.830  16.525  65.460  1.00  0.00    -0.537 OA 
BRANCH  10  11
HETATM   11  C   UNL     1     -10.311  17.503  66.399  1.00  0.00    -0.334 C  
BRANCH  11  12
HETATM   12  C   UNL     1      -9.758  17.199  67.801  1.00  0.00    -0.271 C  
BRANCH  12  13
HETATM   13  O   UNL     1     -10.213  15.932  68.328  1.00  0.00    -0.220 OA 
BRANCH  13  14
HETATM   14  C   UNL     1     -11.633  15.846  68.429  1.00  0.00    -0.315 C  
BRANCH  14  15
HETATM   15  N   UNL     1     -11.977  14.980  69.534  1.00  0.00    -0.315 NA 
HETATM   16  C   UNL     1     -12.455  15.404  70.751  1.00  0.00    -0.423 A  
HETATM   17  N   UNL     1     -12.808  14.396  71.526  1.00  0.00    -0.322 NA 
HETATM   18  C   UNL     1     -12.552  13.269  70.777  1.00  0.00    -0.280 A  
HETATM   19  C   UNL     1     -12.038  13.628  69.556  1.00  0.00    -0.314 A  
HETATM   20  N   UNL     1     -11.717  12.726  68.622  1.00  0.00    -0.307 NA 
HETATM   21  C   UNL     1     -11.952  11.408  68.931  1.00  0.00    -0.304 C  
HETATM   22  N   UNL     1     -11.665  10.557  67.916  1.00  0.00    -0.714 NA 
HETATM   23  N   UNL     1     -12.435  10.957  70.052  1.00  0.00    -0.342 N  
HETATM   24  H2  UNL     1     -11.310  10.864  67.011  1.00  0.00     0.000 HD 
HETATM   25  H1  UNL     1     -11.839   9.578  68.145  1.00  0.00     0.000 HD 
HETATM   26  H   UNL     1     -12.572   9.954  70.180  1.00  0.00     0.000 HD 
HETATM   27  C   UNL     1     -12.766  11.845  71.083  1.00  0.00    -0.284 C  
HETATM   28  O   UNL     1     -13.210  11.466  72.160  1.00  0.00    -0.490 OA 
ENDBRANCH  14  15
ENDBRANCH  13  14
ENDBRANCH  12  13
BRANCH  12  29
HETATM   29  C   UNL     1     -10.191  18.292  68.791  1.00  0.00    -0.318 C  
HETATM   30  O   UNL     1     -10.385  19.520  68.087  1.00  0.00    -0.421 OA 
HETATM   31  H   UNL     1     -10.652  20.196  68.699  1.00  0.00     0.000 HD 
ENDBRANCH  12  29
ENDBRANCH  11  12
ENDBRANCH  10  11
ENDBRANCH   8  10
ENDBRANCH   4   8
TORSDOF 8
ENDMDL
MODEL        5
REMARK 921   NORMALIZED FREE ENERGY PREDICTED BY IDOCK:   -6.85 KCAL/MOL
REMARK 922        TOTAL FREE ENERGY PREDICTED BY IDOCK:  -11.26 KCAL/MOL
REMARK 923 INTER-LIGAND FREE ENERGY PREDICTED BY IDOCK:  -10.72 KCAL/MOL
REMARK 924 INTRA-LIGAND FREE ENERGY PREDICTED BY IDOCK:   -0.54 KCAL/MOL
REMARK 927      BINDING AFFINITY PREDICTED BY RF-SCORE:    0.00 PKD
ROOT
HETATM    1  C   UNL     1     -10.777  19.106  66.529  1.00  0.00    -0.456 C  
HETATM    2  C   UNL     1     -10.422  17.839  67.318  1.00  0.00    -0.356 C  
HETATM    3  C   UNL     1      -9.504  18.199  68.490  1.00  0.00    -0.339 C  
HETATM    4  C   UNL     1      -9.817  16.722  66.432  1.00  0.00    -0.297 C  
HETATM    5  N   UNL     1      -8.577  17.163  65.755  1.00  0.00    -0.487 NA 
HETATM    6  H1  UNL     1      -8.179  16.427  65.172  1.00  0.00     0.000 HD 
HETATM    7  H2  UNL     1      -7.894  17.514  66.426  1.00  0.00     0.000 HD 
ENDROOT
BRANCH   4   8
HETATM    8  C   UNL     1     -10.854  16.199  65.416  1.00  0.00    -0.307 C  
HETATM    9  O   UNL     1     -11.131  16.753  64.359  1.00  0.00    -1.072 OA 
BRANCH   8  10
HETATM   10  O   UNL     1     -11.483  15.074  65.873  1.00  0.00    -0.321 OA 
BRANCH  10  11
HETATM   11  C   UNL     1     -12.132  14.262  64.878  1.00  0.00    -0.435 C  
BRANCH  11  12
HETATM   12  C   UNL     1     -11.965  12.774  65.226  1.00  0.00    -0.429 C  
BRANCH  12  13
HETATM   13  O   UNL     1     -12.260  12.477  66.610  1.00  0.00    -0.552 OA 
BRANCH  13  14
HETATM   14  C   UNL     1     -11.153  12.706  67.479  1.00  0.00    -0.272 C  
BRANCH  14  15
HETATM   15  N   UNL     1     -11.645  13.147  68.765  1.00  0.00    -0.286 NA 
HETATM   16  C   UNL     1     -11.812  14.460  69.138  1.00  0.00    -0.323 A  
HETATM   17  N   UNL     1     -12.398  14.572  70.316  1.00  0.00    -0.333 NA 
HETATM   18  C   UNL     1     -12.625  13.275  70.721  1.00  0.00    -0.280 A  
HETATM   19  C   UNL     1     -12.158  12.401  69.770  1.00  0.00    -0.223 A  
HETATM   20  N   UNL     1     -12.269  11.075  69.903  1.00  0.00    -0.339 NA 
HETATM   21  C   UNL     1     -12.901  10.619  71.033  1.00  0.00    -0.402 C  
HETATM   22  N   UNL     1     -13.035   9.270  71.070  1.00  0.00    -0.525 NA 
HETATM   23  N   UNL     1     -13.381  11.354  71.995  1.00  0.00    -0.518 N  
HETATM   24  H2  UNL     1     -12.699   8.654  70.330  1.00  0.00     0.000 HD 
HETATM   25  H1  UNL     1     -13.504   8.931  71.910  1.00  0.00     0.000 HD 
HETATM   26  H   UNL     1     -13.835  10.912  72.794  1.00  0.00     0.000 HD 
HETATM   27  C   UNL     1     -13.274  12.748  71.933  1.00  0.00    -0.412 C  
HETATM   28  O   UNL     1     -13.697  13.481  72.819  1.00  0.00    -0.710 OA 
ENDBRANCH  14  15
ENDBRANCH  13  14
ENDBRANCH  12  13
BRANCH  12  29
HETATM   29  C   UNL     1     -10.521  12.325  64.956  1.00  0.00    -0.290 C  
HETATM   30  O   UNL     1      -9.956  13.136  63.924  1.00  0.00    -0.760 OA 
HETATM   31  H   UNL     1      -9.063  12.858  63.758  1.00  0.00     0.000 HD 
ENDBRANCH  12  29
ENDBRANCH  11  12
ENDBRANCH  10  11
ENDBRANCH   8  10
ENDBRANCH   4   8
TORSDOF 8
ENDMDL
MODEL        6
REMARK 921   NORMALIZED FREE ENERGY PREDICTED BY IDOCK:   -6.84 KCAL/MOL
REMARK 922        TOTAL FREE ENERGY PREDICTED BY IDOCK:  -11.26 KCAL/MOL
REMARK 923 INTER-LIGAND FREE ENERGY PREDICTED BY IDOCK:  -10.31 KCAL/MOL
REMARK 924 INTRA-LIGAND FREE ENERGY PREDICTED BY IDOCK:   -0.95 KCAL/MOL
REMARK 927      BINDING AFFINITY PREDICTED BY RF-SCORE:    0.00 PKD
ROOT
HETATM    1  C   UNL     1     -13.321   9.869  72.069  1.00  0.00    -0.532 C  
HETATM    2  C   UNL     1     -13.068   8.531  71.364  1.00  0.00    -0.255 C  
HETATM    3  C   UNL     1     -14.278   7.609  71.551  1.00  0.00    -0.564 C  
HETATM    4  C   UNL     1     -11.749   7.849  71.810  1.00  0.00    -0.287 C  
HETATM    5  N   UNL     1     -11.733   7.574  73.265  1.00  0.00    -0.546 NA 
HETATM    6  H1  UNL     1     -10.866   7.126  73.557  1.00  0.00     0.000 HD 
HETATM    7  H2  UNL     1     -12.547   7.028  73.548  1.00  0.00     0.000 HD 
ENDROOT
BRANCH   4   8
HETATM    8  C   UNL     1     -10.524   8.684  71.384  1.00  0.00    -0.257 C  
HETATM    9  O   UNL     1      -9.559   8.916  72.103  1.00  0.00    -0.301 OA 
BRANCH   8  10
HETATM   10  O   UNL     1     -10.677   9.197  70.127  1.00  0.00    -0.216 OA 
BRANCH  10  11
HETATM   11  C   UNL     1      -9.653  10.106  69.683  1.00  0.00    -0.210 C  
BRANCH  11  12
HETATM   12  C   UNL     1     -10.231  11.079  68.643  1.00  0.00    -0.199 C  
BRANCH  12  13
HETATM   13  O   UNL     1      -9.410  12.253  68.446  1.00  0.00    -0.203 OA 
BRANCH  13  14
HETATM   14  C   UNL     1      -8.926  12.378  67.110  1.00  0.00    -0.195 C  
BRANCH  14  15
HETATM   15  N   UNL     1      -9.472  13.579  66.520  1.00  0.00    -0.271 NA 
HETATM   16  C   UNL     1      -8.960  14.844  66.688  1.00  0.00    -0.270 A  
HETATM   17  N   UNL     1      -9.576  15.734  65.933  1.00  0.00    -0.340 NA 
HETATM   18  C   UNL     1     -10.524  15.013  65.241  1.00  0.00    -0.403 A  
HETATM   19  C   UNL     1     -10.462  13.691  65.605  1.00  0.00    -0.299 A  
HETATM   20  N   UNL     1     -11.263  12.764  65.069  1.00  0.00    -0.291 NA 
HETATM   21  C   UNL     1     -12.144  13.192  64.106  1.00  0.00    -0.430 C  
HETATM   22  N   UNL     1     -12.877  12.190  63.562  1.00  0.00    -0.796 NA 
HETATM   23  N   UNL     1     -12.287  14.415  63.685  1.00  0.00    -1.106 N  
HETATM   24  H2  UNL     1     -12.783  11.213  63.840  1.00  0.00     0.000 HD 
HETATM   25  H1  UNL     1     -13.532  12.507  62.847  1.00  0.00     0.000 HD 
HETATM   26  H   UNL     1     -12.974  14.627  62.962  1.00  0.00     0.000 HD 
HETATM   27  C   UNL     1     -11.500  15.440  64.224  1.00  0.00    -0.171 C  
HETATM   28  O   UNL     1     -11.608  16.608  63.870  1.00  0.00    -1.204 OA 
ENDBRANCH  14  15
ENDBRANCH  13  14
ENDBRANCH  12  13
BRANCH  12  29
HETATM   29  C   UNL     1     -11.624  11.559  69.080  1.00  0.00    -0.316 C  
HETATM   30  O   UNL     1     -12.608  10.618  68.648  1.00  0.00    -0.645 OA 
HETATM   31  H   UNL     1     -13.469  10.915  68.917  1.00  0.00     0.000 HD 
ENDBRANCH  12  29
ENDBRANCH  11  12
ENDBRANCH  10  11
ENDBRANCH   8  10
ENDBRANCH   4   8
TORSDOF 8
ENDMDL
MODEL        7
REMARK 921   NORMALIZED FREE ENERGY PREDICTED BY IDOCK:   -6.83 KCAL/MOL
REMARK 922        TOTAL FREE ENERGY PREDICTED BY IDOCK:  -11.25 KCAL/MOL
REMARK 923 INTER-LIGAND FREE ENERGY PREDICTED BY IDOCK:  -10.10 KCAL/MOL
REMARK 924 INTRA-LIGAND FREE ENERGY PREDICTED BY IDOCK:   -1.15 KCAL/MOL
REMARK 927      BINDING AFFINITY PREDICTED BY RF-SCORE:    0.00 PKD
ROOT
HETATM    1  C   UNL     1     -10.281  19.711  68.513  1.00  0.00    -0.529 C  
HETATM    2  C   UNL     1      -9.104  18.852  68.031  1.00  0.00    -0.340 C  
HETATM    3  C   UNL     1      -7.801  19.363  68.653  1.00  0.00    -0.399 C  
HETATM    4  C   UNL     1      -9.011  18.762  66.487  1.00  0.00    -0.319 C  
HETATM    5  N   UNL     1      -8.848  20.096  65.865  1.00  0.00    -0.538 NA 
HETATM    6  H1  UNL     1      -8.786  20.036  64.848  1.00  0.00     0.000 HD 
HETATM    7  H2  UNL     1      -8.048  20.593  66.256  1.00  0.00     0.000 HD 
ENDROOT
BRANCH   4   8
HETATM    8  C   UNL     1     -10.227  18.015  65.901  1.00  0.00    -0.229 C  
HETATM    9  O   UNL     1     -10.954  18.457  65.020  1.00  0.00    -0.644 OA 
BRANCH   8  10
HETATM   10  O   UNL     1     -10.440  16.825  66.538  1.00  0.00    -0.305 OA 
BRANCH  10  11
HETATM   11  C   UNL     1     -10.235  15.638  65.750  1.00  0.00    -0.367 C  
BRANCH  11  12
HETATM   12  C   UNL     1     -11.502  14.768  65.774  1.00  0.00    -0.322 C  
BRANCH  12  13
HETATM   13  O   UNL     1     -11.251  13.411  66.207  1.00  0.00    -0.298 OA 
BRANCH  13  14
HETATM   14  C   UNL     1     -10.408  13.339  67.356  1.00  0.00    -0.243 C  
BRANCH  14  15
HETATM   15  N   UNL     1     -11.033  12.492  68.347  1.00  0.00    -0.235 NA 
HETATM   16  C   UNL     1     -10.835  11.136  68.465  1.00  0.00    -0.203 A  
HETATM   17  N   UNL     1     -11.427  10.639  69.535  1.00  0.00    -0.269 NA 
HETATM   18  C   UNL     1     -12.030  11.721  70.139  1.00  0.00    -0.339 A  
HETATM   19  C   UNL     1     -11.790  12.857  69.407  1.00  0.00    -0.312 A  
HETATM   20  N   UNL     1     -12.247  14.057  69.781  1.00  0.00    -0.342 NA 
HETATM   21  C   UNL     1     -12.953  14.109  70.958  1.00  0.00    -0.329 C  
HETATM   22  N   UNL     1     -13.328  15.365  71.307  1.00  0.00    -0.498 NA 
HETATM   23  N   UNL     1     -13.236  13.100  71.729  1.00  0.00    -0.421 N  
HETATM   24  H2  UNL     1     -13.107  16.190  70.749  1.00  0.00     0.000 HD 
HETATM   25  H1  UNL     1     -13.852  15.404  72.181  1.00  0.00     0.000 HD 
HETATM   26  H   UNL     1     -13.768  13.248  72.586  1.00  0.00     0.000 HD 
HETATM   27  C   UNL     1     -12.813  11.811  71.383  1.00  0.00    -0.335 C  
HETATM   28  O   UNL     1     -13.067  10.828  72.069  1.00  0.00    -0.483 OA 
ENDBRANCH  14  15
ENDBRANCH  13  14
ENDBRANCH  12  13
BRANCH  12  29
HETATM   29  C   UNL     1     -12.123  14.696  64.371  1.00  0.00    -0.462 C  
HETATM   30  O   UNL     1     -12.009  15.971  63.735  1.00  0.00    -1.339 OA 
HETATM   31  H   UNL     1     -12.394  15.926  62.868  1.00  0.00     0.000 HD 
ENDBRANCH  12  29
ENDBRANCH  11  12
ENDBRANCH  10  11
ENDBRANCH   8  10
ENDBRANCH   4   8
TORSDOF 8
ENDMDL
MODEL        8
REMARK 921   NORMALIZED FREE ENERGY PREDICTED BY IDOCK:   -6.82 KCAL/MOL
REMARK 922        TOTAL FREE ENERGY PREDICTED BY IDOCK:  -11.23 KCAL/MOL
REMARK 923 INTER-LIGAND FREE ENERGY PREDICTED BY IDOCK:   -9.50 KCAL/MOL
REMARK 924 INTRA-LIGAND FREE ENERGY PREDICTED BY IDOCK:   -1.73 KCAL/MOL
REMARK 927      BINDING AFFINITY PREDICTED BY RF-SCORE:    0.00 PKD
ROOT
HETATM    1  C   UNL     1      -8.351  18.556  66.296  1.00  0.00    -0.235 C  
HETATM    2  C   UNL     1      -9.849  18.851  66.437  1.00  0.00    -0.412 C  
HETATM    3  C   UNL     1     -10.071  19.884  67.546  1.00  0.00    -0.566 C  
HETATM    4  C   UNL     1     -10.702  17.576  66.656  1.00  0.00    -0.097 C  
HETATM    5  N   UNL     1     -10.296  16.843  67.876  1.00  0.00    -0.318 NA 
HETATM    6  H1  UNL     1     -10.857  16.004  68.020  1.00  0.00     0.000 HD 
HETATM    7  H2  UNL     1     -10.317  17.447  68.697  1.00  0.00     0.000 HD 
ENDROOT
BRANCH   4   8
HETATM    8  C   UNL     1     -10.661  16.663  65.414  1.00  0.00    -0.237 C  
HETATM    9  O   UNL     1     -11.245  16.895  64.362  1.00  0.00    -1.159 OA 
BRANCH   8  10
HETATM   10  O   UNL     1      -9.949  15.520  65.652  1.00  0.00    -0.328 OA 
BRANCH  10  11
HETATM   11  C   UNL     1     -10.314  14.370  64.869  1.00  0.00    -0.389 C  
BRANCH  11  12
HETATM   12  C   UNL     1     -11.476  13.624  65.545  1.00  0.00    -0.305 C  
BRANCH  12  13
HETATM   13  O   UNL     1     -11.108  12.307  66.015  1.00  0.00    -0.284 OA 
BRANCH  13  14
HETATM   14  C   UNL     1     -10.311  12.338  67.198  1.00  0.00    -0.218 C  
BRANCH  14  15
HETATM   15  N   UNL     1     -11.155  12.083  68.343  1.00  0.00    -0.226 NA 
HETATM   16  C   UNL     1     -11.550  10.838  68.771  1.00  0.00    -0.280 A  
HETATM   17  N   UNL     1     -12.208  10.890  69.914  1.00  0.00    -0.342 NA 
HETATM   18  C   UNL     1     -12.235  12.228  70.244  1.00  0.00    -0.262 A  
HETATM   19  C   UNL     1     -11.592  12.960  69.277  1.00  0.00    -0.310 A  
HETATM   20  N   UNL     1     -11.456  14.288  69.359  1.00  0.00    -0.276 NA 
HETATM   21  C   UNL     1     -11.970  14.893  70.479  1.00  0.00    -0.309 C  
HETATM   22  N   UNL     1     -11.739  16.228  70.525  1.00  0.00    -0.479 NA 
HETATM   23  N   UNL     1     -12.596  14.299  71.454  1.00  0.00    -0.340 N  
HETATM   24  H2  UNL     1     -11.232  16.733  69.799  1.00  0.00     0.000 HD 
HETATM   25  H1  UNL     1     -12.122  16.678  71.357  1.00  0.00     0.000 HD 
HETATM   26  H   UNL     1     -12.939  14.844  72.245  1.00  0.00     0.000 HD 
HETATM   27  C   UNL     1     -12.798  12.914  71.419  1.00  0.00    -0.283 C  
HETATM   28  O   UNL     1     -13.392  12.313  72.306  1.00  0.00    -0.515 OA 
ENDBRANCH  14  15
ENDBRANCH  13  14
ENDBRANCH  12  13
BRANCH  12  29
HETATM   29  C   UNL     1     -12.642  13.452  64.559  1.00  0.00    -0.226 C  
HETATM   30  O   UNL     1     -12.505  14.393  63.493  1.00  0.00    -1.102 OA 
HETATM   31  H   UNL     1     -13.226  14.287  62.884  1.00  0.00     0.000 HD 
ENDBRANCH  12  29
ENDBRANCH  11  12
ENDBRANCH  10  11
ENDBRANCH   8  10
ENDBRANCH   4   8
TORSDOF 8
ENDMDL
MODEL        9
REMARK 921   NORMALIZED FREE ENERGY PREDICTED BY IDOCK:   -6.81 KCAL/MOL
REMARK 922        TOTAL FREE ENERGY PREDICTED BY IDOCK:  -11.20 KCAL/MOL
REMARK 923 INTER-LIGAND FREE ENERGY PREDICTED BY IDOCK:  -10.42 KCAL/MOL
REMARK 924 INTRA-LIGAND FREE ENERGY PREDICTED BY IDOCK:   -0.78 KCAL/MOL
REMARK 927      BINDING AFFINITY PREDICTED BY RF-SCORE:    0.00 PKD
ROOT
HETATM    1  C   UNL     1     -10.610   8.562  69.642  1.00  0.00    -0.221 C  
HETATM    2  C   UNL     1     -10.295   9.203  70.999  1.00  0.00    -0.363 C  
HETATM    3  C   UNL     1      -9.100   8.493  71.643  1.00  0.00    -0.296 C  
HETATM    4  C   UNL     1     -11.519   9.249  71.948  1.00  0.00    -0.311 C  
HETATM    5  N   UNL     1     -12.051   7.896  72.229  1.00  0.00    -0.417 NA 
HETATM    6  H1  UNL     1     -12.857   7.927  72.853  1.00  0.00     0.000 HD 
HETATM    7  H2  UNL     1     -11.325   7.280  72.592  1.00  0.00     0.000 HD 
ENDROOT
BRANCH   4   8
HETATM    8  C   UNL     1     -12.617  10.178  71.390  1.00  0.00    -0.422 C  
HETATM    9  O   UNL     1     -13.778   9.840  71.193  1.00  0.00    -0.294 OA 
BRANCH   8  10
HETATM   10  O   UNL     1     -12.119  11.410  71.072  1.00  0.00    -0.318 OA 
BRANCH  10  11
HETATM   11  C   UNL     1     -12.939  12.538  71.429  1.00  0.00    -0.251 C  
BRANCH  11  12
HETATM   12  C   UNL     1     -12.434  13.800  70.713  1.00  0.00    -0.370 C  
BRANCH  12  13
HETATM   13  O   UNL     1     -11.317  13.545  69.831  1.00  0.00    -0.165 OA 
BRANCH  13  14
HETATM   14  C   UNL     1     -11.343  14.344  68.650  1.00  0.00    -0.273 C  
BRANCH  14  15
HETATM   15  N   UNL     1     -11.528  13.485  67.502  1.00  0.00    -0.311 NA 
HETATM   16  C   UNL     1     -11.732  12.126  67.557  1.00  0.00    -0.315 A  
HETATM   17  N   UNL     1     -12.001  11.615  66.371  1.00  0.00    -0.328 NA 
HETATM   18  C   UNL     1     -11.975  12.690  65.509  1.00  0.00    -0.456 A  
HETATM   19  C   UNL     1     -11.681  13.837  66.204  1.00  0.00    -0.370 A  
HETATM   20  N   UNL     1     -11.610  15.033  65.611  1.00  0.00    -0.253 NA 
HETATM   21  C   UNL     1     -11.875  15.070  64.264  1.00  0.00    -0.275 C  
HETATM   22  N   UNL     1     -11.850  16.322  63.743  1.00  0.00    -1.413 NA 
HETATM   23  N   UNL     1     -12.164  14.050  63.509  1.00  0.00    -1.079 N  
HETATM   24  H2  UNL     1     -11.654  17.155  64.298  1.00  0.00     0.000 HD 
HETATM   25  H1  UNL     1     -12.046  16.350  62.742  1.00  0.00     0.000 HD 
HETATM   26  H   UNL     1     -12.345  14.187  62.515  1.00  0.00     0.000 HD 
HETATM   27  C   UNL     1     -12.227  12.764  64.061  1.00  0.00    -0.441 C  
HETATM   28  O   UNL     1     -12.481  11.772  63.389  1.00  0.00    -0.555 OA 
ENDBRANCH  14  15
ENDBRANCH  13  14
ENDBRANCH  12  13
BRANCH  12  29
HETATM   29  C   UNL     1     -11.979  14.849  71.740  1.00  0.00    -0.367 C  
HETATM   30  O   UNL     1     -12.601  16.102  71.446  1.00  0.00    -0.560 OA 
HETATM   31  H   UNL     1     -12.320  16.750  72.080  1.00  0.00     0.000 HD 
ENDBRANCH  12  29
ENDBRANCH  11  12
ENDBRANCH  10  11
ENDBRANCH   8  10
ENDBRANCH   4   8
TORSDOF 8
ENDMDL
MODEL       10
REMARK 921   NORMALIZED FREE ENERGY PREDICTED BY IDOCK:   -6.71 KCAL/MOL
REMARK 922        TOTAL FREE ENERGY PREDICTED BY IDOCK:  -11.07 KCAL/MOL
REMARK 923 INTER-LIGAND FREE ENERGY PREDICTED BY IDOCK:  -10.33 KCAL/MOL
REMARK 924 INTRA-LIGAND FREE ENERGY PREDICTED BY IDOCK:   -0.74 KCAL/MOL
REMARK 927      BINDING AFFINITY PREDICTED BY RF-SCORE:    0.00 PKD
ROOT
HETATM    1  C   UNL     1     -11.866  16.018  72.012  1.00  0.00    -0.623 C  
HETATM    2  C   UNL     1     -12.984  15.574  71.060  1.00  0.00    -0.550 C  
HETATM    3  C   UNL     1     -14.192  15.089  71.869  1.00  0.00    -0.649 C  
HETATM    4  C   UNL     1     -12.518  14.515  70.028  1.00  0.00    -0.298 C  
HETATM    5  N   UNL     1     -12.006  13.291  70.684  1.00  0.00    -0.532 NA 
HETATM    6  H1  UNL     1     -11.700  12.595  70.005  1.00  0.00     0.000 HD 
HETATM    7  H2  UNL     1     -12.693  12.902  71.330  1.00  0.00     0.000 HD 
ENDROOT
BRANCH   4   8
HETATM    8  C   UNL     1     -11.475  15.110  69.059  1.00  0.00    -0.309 C  
HETATM    9  O   UNL     1     -10.582  15.881  69.388  1.00  0.00    -0.222 OA 
BRANCH   8  10
HETATM   10  O   UNL     1     -11.713  14.727  67.768  1.00  0.00    -0.346 OA 
BRANCH  10  11
HETATM   11  C   UNL     1     -10.573  14.715  66.890  1.00  0.00    -0.281 C  
BRANCH  11  12
HETATM   12  C   UNL     1     -11.037  14.813  65.428  1.00  0.00    -0.357 C  
BRANCH  12  13
HETATM   13  O   UNL     1     -10.297  13.947  64.538  1.00  0.00    -0.436 OA 
BRANCH  13  14
HETATM   14  C   UNL     1     -11.105  12.929  63.949  1.00  0.00    -0.411 C  
BRANCH  14  15
HETATM   15  N   UNL     1     -10.616  11.635  64.370  1.00  0.00    -0.300 NA 
HETATM   16  C   UNL     1      -9.765  10.838  63.642  1.00  0.00    -0.327 A  
HETATM   17  N   UNL     1      -9.379   9.773  64.320  1.00  0.00    -0.244 NA 
HETATM   18  C   UNL     1     -10.003   9.889  65.543  1.00  0.00    -0.292 A  
HETATM   19  C   UNL     1     -10.766  11.030  65.571  1.00  0.00    -0.148 A  
HETATM   20  N   UNL     1     -11.466  11.396  66.651  1.00  0.00    -0.408 NA 
HETATM   21  C   UNL     1     -11.367  10.584  67.754  1.00  0.00    -0.190 C  
HETATM   22  N   UNL     1     -12.049  11.049  68.829  1.00  0.00    -0.712 NA 
HETATM   23  N   UNL     1     -10.676   9.484  67.839  1.00  0.00    -0.373 N  
HETATM   24  H2  UNL     1     -12.583  11.917  68.820  1.00  0.00     0.000 HD 
HETATM   25  H1  UNL     1     -11.976  10.446  69.649  1.00  0.00     0.000 HD 
HETATM   26  H   UNL     1     -10.669   8.953  68.709  1.00  0.00     0.000 HD 
HETATM   27  C   UNL     1      -9.942   9.029  66.736  1.00  0.00    -0.263 C  
HETATM   28  O   UNL     1      -9.288   7.993  66.763  1.00  0.00    -0.158 OA 
ENDBRANCH  14  15
ENDBRANCH  13  14
ENDBRANCH  12  13
BRANCH  12  29
HETATM   29  C   UNL     1     -10.872  16.252  64.913  1.00  0.00    -0.296 C  
HETATM   30  O   UNL     1     -11.658  16.426  63.732  1.00  0.00    -1.605 OA 
HETATM   31  H   UNL     1     -11.556  17.315  63.414  1.00  0.00     0.000 HD 
ENDBRANCH  12  29
ENDBRANCH  11  12
ENDBRANCH  10  11
ENDBRANCH   8  10
ENDBRANCH   4   8
TORSDOF 8
ENDMDL
MODEL       11
REMARK 921   NORMALIZED FREE ENERGY PREDICTED BY IDOCK:   -6.69 KCAL/MOL
REMARK 922        TOTAL FREE ENERGY PREDICTED BY IDOCK:  -11.03 KCAL/MOL
REMARK 923 INTER-LIGAND FREE ENERGY PREDICTED BY IDOCK:   -9.90 KCAL/MOL
REMARK 924 INTRA-LIGAND FREE ENERGY PREDICTED BY IDOCK:   -1.14 KCAL/MOL
REMARK 927      BINDING AFFINITY PREDICTED BY RF-SCORE:    0.00 PKD
ROOT
HETATM    1  C   UNL     1     -11.791  15.716  72.315  1.00  0.00    -0.578 C  
HETATM    2  C   UNL     1     -12.625  15.705  71.029  1.00  0.00    -0.515 C  
HETATM    3  C   UNL     1     -13.985  15.053  71.297  1.00  0.00    -0.525 C  
HETATM    4  C   UNL     1     -11.892  15.043  69.835  1.00  0.00    -0.324 C  
HETATM    5  N   UNL     1     -11.532  13.636  70.120  1.00  0.00    -0.505 NA 
HETATM    6  H1  UNL     1     -11.050  13.200  69.334  1.00  0.00     0.000 HD 
HETATM    7  H2  UNL     1     -12.349  13.093  70.400  1.00  0.00     0.000 HD 
ENDROOT
BRANCH   4   8
HETATM    8  C   UNL     1     -10.655  15.865  69.420  1.00  0.00    -0.263 C  
HETATM    9  O   UNL     1      -9.509  15.625  69.782  1.00  0.00    -0.277 OA 
BRANCH   8  10
HETATM   10  O   UNL     1     -11.000  16.943  68.654  1.00  0.00    -0.330 OA 
BRANCH  10  11
HETATM   11  C   UNL     1      -9.913  17.736  68.146  1.00  0.00    -0.342 C  
BRANCH  11  12
HETATM   12  C   UNL     1     -10.423  18.686  67.051  1.00  0.00    -0.407 C  
BRANCH  12  13
HETATM   13  O   UNL     1     -10.528  18.053  65.755  1.00  0.00    -0.573 OA 
BRANCH  13  14
HETATM   14  C   UNL     1      -9.920  16.764  65.711  1.00  0.00    -0.215 C  
BRANCH  14  15
HETATM   15  N   UNL     1     -10.896  15.797  65.259  1.00  0.00    -0.396 NA 
HETATM   16  C   UNL     1     -11.761  15.982  64.206  1.00  0.00    -0.081 A  
HETATM   17  N   UNL     1     -12.449  14.890  63.931  1.00  0.00    -0.769 NA 
HETATM   18  C   UNL     1     -12.008  13.956  64.843  1.00  0.00    -0.395 A  
HETATM   19  C   UNL     1     -11.057  14.515  65.660  1.00  0.00    -0.327 A  
HETATM   20  N   UNL     1     -10.446  13.819  66.625  1.00  0.00    -0.270 NA 
HETATM   21  C   UNL     1     -10.796  12.497  66.748  1.00  0.00    -0.249 C  
HETATM   22  N   UNL     1     -10.091  11.839  67.701  1.00  0.00    -0.191 NA 
HETATM   23  N   UNL     1     -11.679  11.866  66.031  1.00  0.00    -0.244 N  
HETATM   24  H2  UNL     1      -9.371  12.283  68.271  1.00  0.00     0.000 HD 
HETATM   25  H1  UNL     1     -10.351  10.857  67.793  1.00  0.00     0.000 HD 
HETATM   26  H   UNL     1     -11.865  10.878  66.204  1.00  0.00     0.000 HD 
HETATM   27  C   UNL     1     -12.377  12.542  65.021  1.00  0.00    -0.453 C  
HETATM   28  O   UNL     1     -13.227  11.994  64.329  1.00  0.00    -0.710 OA 
ENDBRANCH  14  15
ENDBRANCH  13  14
ENDBRANCH  12  13
BRANCH  12  29
HETATM   29  C   UNL     1      -9.475  19.886  66.903  1.00  0.00    -0.386 C  
HETATM   30  O   UNL     1      -9.822  20.623  65.729  1.00  0.00    -0.577 OA 
HETATM   31  H   UNL     1      -9.236  21.364  65.637  1.00  0.00     0.000 HD 
ENDBRANCH  12  29
ENDBRANCH  11  12
ENDBRANCH  10  11
ENDBRANCH   8  10
ENDBRANCH   4   8
TORSDOF 8
ENDMDL
MODEL       12
REMARK 921   NORMALIZED FREE ENERGY PREDICTED BY IDOCK:   -6.64 KCAL/MOL
REMARK 922        TOTAL FREE ENERGY PREDICTED BY IDOCK:  -10.96 KCAL/MOL
REMARK 923 INTER-LIGAND FREE ENERGY PREDICTED BY IDOCK:   -9.62 KCAL/MOL
REMARK 924 INTRA-LIGAND FREE ENERGY PREDICTED BY IDOCK:   -1.34 KCAL/MOL
REMARK 927      BINDING AFFINITY PREDICTED BY RF-SCORE:    0.00 PKD
ROOT
HETATM    1  C   UNL     1     -10.298  12.298  63.407  1.00  0.00    -0.395 C  
HETATM    2  C   UNL     1     -11.613  12.298  64.196  1.00  0.00    -0.463 C  
HETATM    3  C   UNL     1     -12.774  11.922  63.270  1.00  0.00    -0.407 C  
HETATM    4  C   UNL     1     -11.876  13.633  64.938  1.00  0.00    -0.375 C  
HETATM    5  N   UNL     1     -11.939  14.781  64.005  1.00  0.00    -0.838 NA 
HETATM    6  H1  UNL     1     -12.113  15.659  64.493  1.00  0.00     0.000 HD 
HETATM    7  H2  UNL     1     -12.628  14.624  63.270  1.00  0.00     0.000 HD 
ENDROOT
BRANCH   4   8
HETATM    8  C   UNL     1     -10.827  13.868  66.044  1.00  0.00    -0.290 C  
HETATM    9  O   UNL     1     -10.137  12.987  66.544  1.00  0.00    -0.258 OA 
BRANCH   8  10
HETATM   10  O   UNL     1     -10.810  15.171  66.453  1.00  0.00    -0.319 OA 
BRANCH  10  11
HETATM   11  C   UNL     1     -11.394  15.440  67.740  1.00  0.00    -0.306 C  
BRANCH  11  12
HETATM   12  C   UNL     1     -10.287  15.703  68.774  1.00  0.00    -0.218 C  
BRANCH  12  13
HETATM   13  O   UNL     1     -10.718  15.481  70.136  1.00  0.00    -0.293 OA 
BRANCH  13  14
HETATM   14  C   UNL     1     -12.133  15.354  70.261  1.00  0.00    -0.369 C  
BRANCH  14  15
HETATM   15  N   UNL     1     -12.437  14.125  70.961  1.00  0.00    -0.345 NA 
HETATM   16  C   UNL     1     -13.016  14.048  72.205  1.00  0.00    -0.373 A  
HETATM   17  N   UNL     1     -13.298  12.805  72.546  1.00  0.00    -0.405 NA 
HETATM   18  C   UNL     1     -12.888  12.044  71.474  1.00  0.00    -0.297 A  
HETATM   19  C   UNL     1     -12.356  12.855  70.503  1.00  0.00    -0.283 A  
HETATM   20  N   UNL     1     -11.897  12.374  69.342  1.00  0.00    -0.312 NA 
HETATM   21  C   UNL     1     -12.006  11.018  69.150  1.00  0.00    -0.324 C  
HETATM   22  N   UNL     1     -11.582  10.610  67.929  1.00  0.00    -0.687 NA 
HETATM   23  N   UNL     1     -12.492  10.159  69.998  1.00  0.00    -0.522 N  
HETATM   24  H2  UNL     1     -11.217  11.248  67.222  1.00  0.00     0.000 HD 
HETATM   25  H1  UNL     1     -11.662   9.604  67.786  1.00  0.00     0.000 HD 
HETATM   26  H   UNL     1     -12.529   9.169  69.755  1.00  0.00     0.000 HD 
HETATM   27  C   UNL     1     -12.965  10.591  71.243  1.00  0.00    -0.433 C  
HETATM   28  O   UNL     1     -13.419   9.819  72.079  1.00  0.00    -0.413 OA 
ENDBRANCH  14  15
ENDBRANCH  13  14
ENDBRANCH  12  13
BRANCH  12  29
HETATM   29  C   UNL     1      -9.802  17.158  68.675  1.00  0.00    -0.300 C  
HETATM   30  O   UNL     1     -10.646  17.879  67.776  1.00  0.00    -0.392 OA 
HETATM   31  H   UNL     1     -10.346  18.778  67.715  1.00  0.00     0.000 HD 
ENDBRANCH  12  29
ENDBRANCH  11  12
ENDBRANCH  10  11
ENDBRANCH   8  10
ENDBRANCH   4   8
TORSDOF 8
ENDMDL
MODEL       13
REMARK 921   NORMALIZED FREE ENERGY PREDICTED BY IDOCK:   -6.60 KCAL/MOL
REMARK 922        TOTAL FREE ENERGY PREDICTED BY IDOCK:  -10.90 KCAL/MOL
REMARK 923 INTER-LIGAND FREE ENERGY PREDICTED BY IDOCK:   -9.62 KCAL/MOL
REMARK 924 INTRA-LIGAND FREE ENERGY PREDICTED BY IDOCK:   -1.28 KCAL/MOL
REMARK 927      BINDING AFFINITY PREDICTED BY RF-SCORE:    0.00 PKD
ROOT
HETATM    1  C   UNL     1     -14.327  15.065  71.537  1.00  0.00    -0.651 C  
HETATM    2  C   UNL     1     -12.941  14.629  72.026  1.00  0.00    -0.411 C  
HETATM    3  C   UNL     1     -12.729  15.097  73.470  1.00  0.00    -0.678 C  
HETATM    4  C   UNL     1     -11.793  15.094  71.094  1.00  0.00    -0.343 C  
HETATM    5  N   UNL     1     -11.754  16.568  70.960  1.00  0.00    -0.547 NA 
HETATM    6  H1  UNL     1     -10.999  16.873  70.347  1.00  0.00     0.000 HD 
HETATM    7  H2  UNL     1     -11.697  17.022  71.871  1.00  0.00     0.000 HD 
ENDROOT
BRANCH   4   8
HETATM    8  C   UNL     1     -11.888  14.408  69.716  1.00  0.00    -0.320 C  
HETATM    9  O   UNL     1     -12.109  14.994  68.663  1.00  0.00    -0.265 OA 
BRANCH   8  10
HETATM   10  O   UNL     1     -11.768  13.051  69.820  1.00  0.00    -0.300 OA 
BRANCH  10  11
HETATM   11  C   UNL     1     -10.624  12.464  69.174  1.00  0.00     0.039 C  
BRANCH  11  12
HETATM   12  C   UNL     1     -11.005  11.104  68.567  1.00  0.00    -0.220 C  
BRANCH  12  13
HETATM   13  O   UNL     1     -11.902  11.217  67.439  1.00  0.00    -0.590 OA 
BRANCH  13  14
HETATM   14  C   UNL     1     -11.235  11.114  66.182  1.00  0.00     0.011 C  
BRANCH  14  15
HETATM   15  N   UNL     1     -11.477  12.317  65.418  1.00  0.00    -0.345 NA 
HETATM   16  C   UNL     1     -12.486  12.479  64.498  1.00  0.00    -0.459 A  
HETATM   17  N   UNL     1     -12.554  13.717  64.047  1.00  0.00    -0.692 NA 
HETATM   18  C   UNL     1     -11.549  14.389  64.708  1.00  0.00    -0.408 A  
HETATM   19  C   UNL     1     -10.886  13.528  65.546  1.00  0.00    -0.288 A  
HETATM   20  N   UNL     1      -9.873  13.926  66.324  1.00  0.00    -0.299 NA 
HETATM   21  C   UNL     1      -9.537  15.256  66.266  1.00  0.00    -0.303 C  
HETATM   22  N   UNL     1      -8.548  15.601  67.127  1.00  0.00    -0.194 NA 
HETATM   23  N   UNL     1     -10.096  16.157  65.512  1.00  0.00    -0.323 N  
HETATM   24  H2  UNL     1      -8.097  14.936  67.756  1.00  0.00     0.000 HD 
HETATM   25  H1  UNL     1      -8.298  16.589  67.084  1.00  0.00     0.000 HD 
HETATM   26  H   UNL     1      -9.770  17.123  65.547  1.00  0.00     0.000 HD 
HETATM   27  C   UNL     1     -11.144  15.803  64.653  1.00  0.00    -0.361 C  
HETATM   28  O   UNL     1     -11.692  16.613  63.915  1.00  0.00    -1.153 OA 
ENDBRANCH  14  15
ENDBRANCH  13  14
ENDBRANCH  12  13
BRANCH  12  29
HETATM   29  C   UNL     1     -11.699  10.227  69.621  1.00  0.00    -0.160 C  
HETATM   30  O   UNL     1     -11.083  10.437  70.893  1.00  0.00    -0.361 OA 
HETATM   31  H   UNL     1     -11.511   9.894  71.544  1.00  0.00     0.000 HD 
ENDBRANCH  12  29
ENDBRANCH  11  12
ENDBRANCH  10  11
ENDBRANCH   8  10
ENDBRANCH   4   8
TORSDOF 8
ENDMDL
MODEL       14
REMARK 921   NORMALIZED FREE ENERGY PREDICTED BY IDOCK:   -6.52 KCAL/MOL
REMARK 922        TOTAL FREE ENERGY PREDICTED BY IDOCK:  -10.79 KCAL/MOL
REMARK 923 INTER-LIGAND FREE ENERGY PREDICTED BY IDOCK:   -9.67 KCAL/MOL
REMARK 924 INTRA-LIGAND FREE ENERGY PREDICTED BY IDOCK:   -1.12 KCAL/MOL
REMARK 927      BINDING AFFINITY PREDICTED BY RF-SCORE:    0.00 PKD
ROOT
HETATM    1  C   UNL     1     -13.193   8.974  71.427  1.00  0.00    -0.332 C  
HETATM    2  C   UNL     1     -12.482  10.325  71.569  1.00  0.00    -0.524 C  
HETATM    3  C   UNL     1     -13.501  11.415  71.916  1.00  0.00    -0.280 C  
HETATM    4  C   UNL     1     -11.637  10.700  70.325  1.00  0.00    -0.336 C  
HETATM    5  N   UNL     1     -12.464  10.780  69.099  1.00  0.00    -0.717 NA 
HETATM    6  H1  UNL     1     -11.907  11.027  68.281  1.00  0.00     0.000 HD 
HETATM    7  H2  UNL     1     -13.247  11.422  69.222  1.00  0.00     0.000 HD 
ENDROOT
BRANCH   4   8
HETATM    8  C   UNL     1     -10.458   9.722  70.142  1.00  0.00    -0.286 C  
HETATM    9  O   UNL     1      -9.548   9.574  70.948  1.00  0.00    -0.251 OA 
BRANCH   8  10
HETATM   10  O   UNL     1     -10.511   9.090  68.931  1.00  0.00    -0.216 OA 
BRANCH  10  11
HETATM   11  C   UNL     1      -9.249   8.853  68.282  1.00  0.00    -0.140 C  
BRANCH  11  12
HETATM   12  C   UNL     1      -9.117   9.756  67.046  1.00  0.00    -0.138 C  
BRANCH  12  13
HETATM   13  O   UNL     1      -9.657  11.082  67.250  1.00  0.00    -0.164 OA 
BRANCH  13  14
HETATM   14  C   UNL     1      -8.802  12.115  66.762  1.00  0.00    -0.198 C  
BRANCH  14  15
HETATM   15  N   UNL     1      -9.613  13.221  66.306  1.00  0.00    -0.263 NA 
HETATM   16  C   UNL     1      -9.444  14.532  66.685  1.00  0.00    -0.283 A  
HETATM   17  N   UNL     1     -10.237  15.349  66.017  1.00  0.00    -0.302 NA 
HETATM   18  C   UNL     1     -10.947  14.532  65.164  1.00  0.00    -0.379 A  
HETATM   19  C   UNL     1     -10.565  13.226  65.345  1.00  0.00    -0.296 A  
HETATM   20  N   UNL     1     -11.086  12.223  64.628  1.00  0.00    -0.302 NA 
HETATM   21  C   UNL     1     -12.011  12.565  63.672  1.00  0.00    -0.537 C  
HETATM   22  N   UNL     1     -12.446  11.509  62.941  1.00  0.00    -0.867 NA 
HETATM   23  N   UNL     1     -12.443  13.765  63.415  1.00  0.00    -1.072 N  
HETATM   24  H2  UNL     1     -12.118  10.554  63.087  1.00  0.00     0.000 HD 
HETATM   25  H1  UNL     1     -13.133  11.762  62.231  1.00  0.00     0.000 HD 
HETATM   26  H   UNL     1     -13.134  13.910  62.679  1.00  0.00     0.000 HD 
HETATM   27  C   UNL     1     -11.961  14.857  64.147  1.00  0.00    -0.235 C  
HETATM   28  O   UNL     1     -12.347  16.003  63.951  1.00  0.00    -0.855 OA 
ENDBRANCH  14  15
ENDBRANCH  13  14
ENDBRANCH  12  13
BRANCH  12  29
HETATM   29  C   UNL     1      -9.859   9.136  65.852  1.00  0.00    -0.235 C  
HETATM   30  O   UNL     1     -10.150   7.765  66.135  1.00  0.00    -0.461 OA 
HETATM   31  H   UNL     1     -10.609   7.382  65.397  1.00  0.00     0.000 HD 
ENDBRANCH  12  29
ENDBRANCH  11  12
ENDBRANCH  10  11
ENDBRANCH   8  10
ENDBRANCH   4   8
TORSDOF 8
ENDMDL
MODEL       15
REMARK 921   NORMALIZED FREE ENERGY PREDICTED BY IDOCK:   -6.51 KCAL/MOL
REMARK 922        TOTAL FREE ENERGY PREDICTED BY IDOCK:  -10.78 KCAL/MOL
REMARK 923 INTER-LIGAND FREE ENERGY PREDICTED BY IDOCK:   -9.72 KCAL/MOL
REMARK 924 INTRA-LIGAND FREE ENERGY PREDICTED BY IDOCK:   -1.06 KCAL/MOL
REMARK 927      BINDING AFFINITY PREDICTED BY RF-SCORE:    0.00 PKD
ROOT
HETATM    1  C   UNL     1     -13.021  13.814  65.513  1.00  0.00    -0.363 C  
HETATM    2  C   UNL     1     -12.130  13.708  64.270  1.00  0.00    -0.480 C  
HETATM    3  C   UNL     1     -11.919  12.235  63.906  1.00  0.00    -0.582 C  
HETATM    4  C   UNL     1     -10.786  14.464  64.420  1.00  0.00    -0.034 C  
HETATM    5  N   UNL     1      -9.989  13.955  65.559  1.00  0.00    -0.468 NA 
HETATM    6  H1  UNL     1      -9.105  14.453  65.657  1.00  0.00     0.000 HD 
HETATM    7  H2  UNL     1      -9.842  12.948  65.488  1.00  0.00     0.000 HD 
ENDROOT
BRANCH   4   8
HETATM    8  C   UNL     1     -11.016  15.986  64.534  1.00  0.00    -0.159 C  
HETATM    9  O   UNL     1     -11.957  16.585  64.026  1.00  0.00    -0.964 OA 
BRANCH   8  10
HETATM   10  O   UNL     1     -10.000  16.599  65.212  1.00  0.00    -0.539 OA 
BRANCH  10  11
HETATM   11  C   UNL     1     -10.392  17.515  66.250  1.00  0.00    -0.335 C  
BRANCH  11  12
HETATM   12  C   UNL     1      -9.748  17.104  67.583  1.00  0.00    -0.263 C  
BRANCH  12  13
HETATM   13  O   UNL     1     -10.251  15.847  68.093  1.00  0.00    -0.226 OA 
BRANCH  13  14
HETATM   14  C   UNL     1     -11.601  15.928  68.543  1.00  0.00    -0.349 C  
BRANCH  14  15
HETATM   15  N   UNL     1     -11.967  14.676  69.167  1.00  0.00    -0.308 NA 
HETATM   16  C   UNL     1     -11.634  13.430  68.691  1.00  0.00    -0.327 A  
HETATM   17  N   UNL     1     -11.983  12.469  69.525  1.00  0.00    -0.293 NA 
HETATM   18  C   UNL     1     -12.563  13.121  70.591  1.00  0.00    -0.211 A  
HETATM   19  C   UNL     1     -12.556  14.475  70.369  1.00  0.00    -0.346 A  
HETATM   20  N   UNL     1     -13.043  15.348  71.258  1.00  0.00    -0.463 NA 
HETATM   21  C   UNL     1     -13.533  14.826  72.430  1.00  0.00    -0.428 C  
HETATM   22  N   UNL     1     -13.949  15.771  73.308  1.00  0.00    -0.547 NA 
HETATM   23  N   UNL     1     -13.588  13.565  72.745  1.00  0.00    -0.435 N  
HETATM   24  H2  UNL     1     -13.902  16.771  73.118  1.00  0.00     0.000 HD 
HETATM   25  H1  UNL     1     -14.313  15.383  74.179  1.00  0.00     0.000 HD 
HETATM   26  H   UNL     1     -13.972  13.282  73.646  1.00  0.00     0.000 HD 
HETATM   27  C   UNL     1     -13.120  12.596  71.849  1.00  0.00    -0.366 C  
HETATM   28  O   UNL     1     -13.164  11.396  72.095  1.00  0.00    -0.490 OA 
ENDBRANCH  14  15
ENDBRANCH  13  14
ENDBRANCH  12  13
BRANCH  12  29
HETATM   29  C   UNL     1     -10.011  18.174  68.654  1.00  0.00    -0.395 C  
HETATM   30  O   UNL     1      -9.844  19.471  68.079  1.00  0.00    -0.350 OA 
HETATM   31  H   UNL     1     -10.006  20.133  68.741  1.00  0.00     0.000 HD 
ENDBRANCH  12  29
ENDBRANCH  11  12
ENDBRANCH  10  11
ENDBRANCH   8  10
ENDBRANCH   4   8
TORSDOF 8
ENDMDL
MODEL       16
REMARK 921   NORMALIZED FREE ENERGY PREDICTED BY IDOCK:   -6.51 KCAL/MOL
REMARK 922        TOTAL FREE ENERGY PREDICTED BY IDOCK:  -10.77 KCAL/MOL
REMARK 923 INTER-LIGAND FREE ENERGY PREDICTED BY IDOCK:   -9.16 KCAL/MOL
REMARK 924 INTRA-LIGAND FREE ENERGY PREDICTED BY IDOCK:   -1.61 KCAL/MOL
REMARK 927      BINDING AFFINITY PREDICTED BY RF-SCORE:    0.00 PKD
ROOT
HETATM    1  C   UNL     1     -10.709   7.735  67.084  1.00  0.00    -0.337 C  
HETATM    2  C   UNL     1      -9.969   8.679  68.040  1.00  0.00    -0.221 C  
HETATM    3  C   UNL     1     -10.215   8.246  69.489  1.00  0.00    -0.210 C  
HETATM    4  C   UNL     1     -10.323  10.171  67.815  1.00  0.00    -0.210 C  
HETATM    5  N   UNL     1     -11.769  10.430  67.996  1.00  0.00    -0.729 NA 
HETATM    6  H1  UNL     1     -12.001  11.412  67.848  1.00  0.00     0.000 HD 
HETATM    7  H2  UNL     1     -12.092  10.106  68.907  1.00  0.00     0.000 HD 
ENDROOT
BRANCH   4   8
HETATM    8  C   UNL     1      -9.836  10.652  66.432  1.00  0.00    -0.211 C  
HETATM    9  O   UNL     1      -8.687  10.537  66.022  1.00  0.00    -0.153 OA 
BRANCH   8  10
HETATM   10  O   UNL     1     -10.829  11.292  65.745  1.00  0.00    -0.261 OA 
BRANCH  10  11
HETATM   11  C   UNL     1     -10.484  12.565  65.170  1.00  0.00    -0.293 C  
BRANCH  11  12
HETATM   12  C   UNL     1     -11.384  13.665  65.756  1.00  0.00    -0.306 C  
BRANCH  12  13
HETATM   13  O   UNL     1     -11.771  13.412  67.126  1.00  0.00    -0.337 OA 
BRANCH  13  14
HETATM   14  C   UNL     1     -10.819  13.893  68.073  1.00  0.00    -0.246 C  
BRANCH  14  15
HETATM   15  N   UNL     1     -11.512  14.288  69.280  1.00  0.00    -0.272 NA 
HETATM   16  C   UNL     1     -11.850  15.579  69.609  1.00  0.00    -0.366 A  
HETATM   17  N   UNL     1     -12.589  15.636  70.701  1.00  0.00    -0.440 NA 
HETATM   18  C   UNL     1     -12.741  14.324  71.093  1.00  0.00    -0.360 A  
HETATM   19  C   UNL     1     -12.076  13.497  70.222  1.00  0.00    -0.355 A  
HETATM   20  N   UNL     1     -12.075  12.167  70.359  1.00  0.00    -0.352 NA 
HETATM   21  C   UNL     1     -12.801  11.655  71.407  1.00  0.00    -0.356 C  
HETATM   22  N   UNL     1     -12.809  10.300  71.446  1.00  0.00    -0.404 NA 
HETATM   23  N   UNL     1     -13.467  12.342  72.288  1.00  0.00    -0.564 N  
HETATM   24  H2  UNL     1     -12.324   9.717  70.763  1.00  0.00     0.000 HD 
HETATM   25  H1  UNL     1     -13.347   9.919  72.224  1.00  0.00     0.000 HD 
HETATM   26  H   UNL     1     -13.975  11.861  73.030  1.00  0.00     0.000 HD 
HETATM   27  C   UNL     1     -13.487  13.740  72.220  1.00  0.00    -0.541 C  
HETATM   28  O   UNL     1     -14.088  14.431  73.035  1.00  0.00    -0.391 OA 
ENDBRANCH  14  15
ENDBRANCH  13  14
ENDBRANCH  12  13
BRANCH  12  29
HETATM   29  C   UNL     1     -12.672  13.795  64.929  1.00  0.00    -0.271 C  
HETATM   30  O   UNL     1     -12.341  13.862  63.541  1.00  0.00    -0.976 OA 
HETATM   31  H   UNL     1     -13.137  13.942  63.030  1.00  0.00     0.000 HD 
ENDBRANCH  12  29
ENDBRANCH  11  12
ENDBRANCH  10  11
ENDBRANCH   8  10
ENDBRANCH   4   8
TORSDOF 8
ENDMDL
MODEL       17
REMARK 921   NORMALIZED FREE ENERGY PREDICTED BY IDOCK:   -6.47 KCAL/MOL
REMARK 922        TOTAL FREE ENERGY PREDICTED BY IDOCK:  -10.72 KCAL/MOL
REMARK 923 INTER-LIGAND FREE ENERGY PREDICTED BY IDOCK:  -10.02 KCAL/MOL
REMARK 924 INTRA-LIGAND FREE ENERGY PREDICTED BY IDOCK:   -0.70 KCAL/MOL
REMARK 927      BINDING AFFINITY PREDICTED BY RF-SCORE:    0.00 PKD
ROOT
HETATM    1  C   UNL     1     -11.144   7.299  70.047  1.00  0.00    -0.262 C  
HETATM    2  C   UNL     1     -10.733   8.477  70.938  1.00  0.00    -0.268 C  
HETATM    3  C   UNL     1      -9.309   8.262  71.460  1.00  0.00    -0.236 C  
HETATM    4  C   UNL     1     -11.735   8.746  72.090  1.00  0.00    -0.363 C  
HETATM    5  N   UNL     1     -11.883   7.571  72.978  1.00  0.00    -0.573 NA 
HETATM    6  H1  UNL     1     -12.542   7.748  73.736  1.00  0.00     0.000 HD 
HETATM    7  H2  UNL     1     -10.980   7.261  73.338  1.00  0.00     0.000 HD 
ENDROOT
BRANCH   4   8
HETATM    8  C   UNL     1     -13.100   9.207  71.540  1.00  0.00    -0.349 C  
HETATM    9  O   UNL     1     -14.166   8.649  71.771  1.00  0.00    -0.413 OA 
BRANCH   8  10
HETATM   10  O   UNL     1     -12.968  10.277  70.700  1.00  0.00    -0.354 OA 
BRANCH  10  11
HETATM   11  C   UNL     1     -12.466  11.490  71.290  1.00  0.00    -0.293 C  
BRANCH  11  12
HETATM   12  C   UNL     1     -12.437  12.612  70.240  1.00  0.00    -0.090 C  
BRANCH  12  13
HETATM   13  O   UNL     1     -11.195  12.668  69.503  1.00  0.00    -0.190 OA 
BRANCH  13  14
HETATM   14  C   UNL     1     -11.327  12.236  68.150  1.00  0.00    -0.295 C  
BRANCH  14  15
HETATM   15  N   UNL     1     -11.370  13.395  67.286  1.00  0.00    -0.305 NA 
HETATM   16  C   UNL     1     -10.847  14.629  67.594  1.00  0.00    -0.284 A  
HETATM   17  N   UNL     1     -10.910  15.464  66.574  1.00  0.00    -0.310 NA 
HETATM   18  C   UNL     1     -11.494  14.738  65.559  1.00  0.00    -0.329 A  
HETATM   19  C   UNL     1     -11.780  13.469  65.999  1.00  0.00    -0.359 A  
HETATM   20  N   UNL     1     -12.336  12.547  65.206  1.00  0.00    -0.612 NA 
HETATM   21  C   UNL     1     -12.588  12.920  63.909  1.00  0.00    -0.247 C  
HETATM   22  N   UNL     1     -13.091  11.918  63.147  1.00  0.00    -0.692 NA 
HETATM   23  N   UNL     1     -12.358  14.090  63.387  1.00  0.00    -1.154 N  
HETATM   24  H2  UNL     1     -13.265  10.978  63.503  1.00  0.00     0.000 HD 
HETATM   25  H1  UNL     1     -13.279  12.194  62.183  1.00  0.00     0.000 HD 
HETATM   26  H   UNL     1     -12.583  14.264  62.408  1.00  0.00     0.000 HD 
HETATM   27  C   UNL     1     -11.803  15.111  64.169  1.00  0.00    -0.148 C  
HETATM   28  O   UNL     1     -11.581  16.231  63.727  1.00  0.00    -0.952 OA 
ENDBRANCH  14  15
ENDBRANCH  13  14
ENDBRANCH  12  13
BRANCH  12  29
HETATM   29  C   UNL     1     -12.635  13.977  70.915  1.00  0.00    -0.361 C  
HETATM   30  O   UNL     1     -13.254  14.877  69.994  1.00  0.00    -0.577 OA 
HETATM   31  H   UNL     1     -13.376  15.722  70.411  1.00  0.00     0.000 HD 
ENDBRANCH  12  29
ENDBRANCH  11  12
ENDBRANCH  10  11
ENDBRANCH   8  10
ENDBRANCH   4   8
TORSDOF 8
ENDMDL
MODEL       18
REMARK 921   NORMALIZED FREE ENERGY PREDICTED BY IDOCK:   -6.46 KCAL/MOL
REMARK 922        TOTAL FREE ENERGY PREDICTED BY IDOCK:  -10.70 KCAL/MOL
REMARK 923 INTER-LIGAND FREE ENERGY PREDICTED BY IDOCK:   -9.93 KCAL/MOL
REMARK 924 INTRA-LIGAND FREE ENERGY PREDICTED BY IDOCK:   -0.76 KCAL/MOL
REMARK 927      BINDING AFFINITY PREDICTED BY RF-SCORE:    0.00 PKD
ROOT
HETATM    1  C   UNL     1     -11.861  15.747  72.811  1.00  0.00    -0.584 C  
HETATM    2  C   UNL     1     -11.741  15.045  71.453  1.00  0.00    -0.409 C  
HETATM    3  C   UNL     1     -11.250  16.040  70.396  1.00  0.00    -0.401 C  
HETATM    4  C   UNL     1     -13.049  14.339  71.016  1.00  0.00    -0.328 C  
HETATM    5  N   UNL     1     -14.180  15.288  70.907  1.00  0.00    -0.820 NA 
HETATM    6  H1  UNL     1     -15.040  14.823  70.620  1.00  0.00     0.000 HD 
HETATM    7  H2  UNL     1     -13.953  16.065  70.286  1.00  0.00     0.000 HD 
ENDROOT
BRANCH   4   8
HETATM    8  C   UNL     1     -13.389  13.169  71.963  1.00  0.00    -0.493 C  
HETATM    9  O   UNL     1     -14.367  13.135  72.700  1.00  0.00    -0.636 OA 
BRANCH   8  10
HETATM   10  O   UNL     1     -12.423  12.203  71.936  1.00  0.00    -0.002 OA 
BRANCH  10  11
HETATM   11  C   UNL     1     -12.800  10.946  71.344  1.00  0.00    -0.449 C  
BRANCH  11  12
HETATM   12  C   UNL     1     -11.566  10.039  71.211  1.00  0.00    -0.350 C  
BRANCH  12  13
HETATM   13  O   UNL     1     -11.016  10.021  69.873  1.00  0.00    -0.253 OA 
BRANCH  13  14
HETATM   14  C   UNL     1     -11.723  10.866  68.967  1.00  0.00    -0.320 C  
BRANCH  14  15
HETATM   15  N   UNL     1     -11.057  10.845  67.684  1.00  0.00    -0.295 NA 
HETATM   16  C   UNL     1     -10.153   9.892  67.280  1.00  0.00    -0.211 A  
HETATM   17  N   UNL     1      -9.802  10.044  66.017  1.00  0.00    -0.239 NA 
HETATM   18  C   UNL     1     -10.512  11.141  65.583  1.00  0.00    -0.248 A  
HETATM   19  C   UNL     1     -11.280  11.635  66.608  1.00  0.00    -0.299 A  
HETATM   20  N   UNL     1     -12.086  12.691  66.454  1.00  0.00    -0.565 NA 
HETATM   21  C   UNL     1     -12.133  13.252  65.201  1.00  0.00    -0.413 C  
HETATM   22  N   UNL     1     -13.018  14.275  65.101  1.00  0.00    -0.676 NA 
HETATM   23  N   UNL     1     -11.453  12.867  64.161  1.00  0.00    -0.370 N  
HETATM   24  H2  UNL     1     -13.592  14.596  65.880  1.00  0.00     0.000 HD 
HETATM   25  H1  UNL     1     -13.053  14.692  64.171  1.00  0.00     0.000 HD 
HETATM   26  H   UNL     1     -11.563  13.354  63.271  1.00  0.00     0.000 HD 
HETATM   27  C   UNL     1     -10.570  11.785  64.260  1.00  0.00    -0.335 C  
HETATM   28  O   UNL     1      -9.898  11.395  63.312  1.00  0.00    -0.337 OA 
ENDBRANCH  14  15
ENDBRANCH  13  14
ENDBRANCH  12  13
BRANCH  12  29
HETATM   29  C   UNL     1     -11.927   8.592  71.580  1.00  0.00    -0.303 C  
HETATM   30  O   UNL     1     -12.738   8.590  72.757  1.00  0.00    -0.598 OA 
HETATM   31  H   UNL     1     -12.961   7.696  72.985  1.00  0.00     0.000 HD 
ENDBRANCH  12  29
ENDBRANCH  11  12
ENDBRANCH  10  11
ENDBRANCH   8  10
ENDBRANCH   4   8
TORSDOF 8
ENDMDL
MODEL       19
REMARK 921   NORMALIZED FREE ENERGY PREDICTED BY IDOCK:   -6.43 KCAL/MOL
REMARK 922        TOTAL FREE ENERGY PREDICTED BY IDOCK:  -10.66 KCAL/MOL
REMARK 923 INTER-LIGAND FREE ENERGY PREDICTED BY IDOCK:   -9.56 KCAL/MOL
REMARK 924 INTRA-LIGAND FREE ENERGY PREDICTED BY IDOCK:   -1.10 KCAL/MOL
REMARK 927      BINDING AFFINITY PREDICTED BY RF-SCORE:    0.00 PKD
ROOT
HETATM    1  C   UNL     1     -13.201  10.197  72.136  1.00  0.00    -0.463 C  
HETATM    2  C   UNL     1     -13.087   8.939  71.267  1.00  0.00    -0.241 C  
HETATM    3  C   UNL     1     -14.300   8.033  71.503  1.00  0.00    -0.546 C  
HETATM    4  C   UNL     1     -11.752   8.179  71.470  1.00  0.00    -0.286 C  
HETATM    5  N   UNL     1     -11.571   7.744  72.874  1.00  0.00    -0.603 NA 
HETATM    6  H1  UNL     1     -10.692   7.244  73.007  1.00  0.00     0.000 HD 
HETATM    7  H2  UNL     1     -12.365   7.191  73.196  1.00  0.00     0.000 HD 
ENDROOT
BRANCH   4   8
HETATM    8  C   UNL     1     -10.555   9.024  70.987  1.00  0.00    -0.271 C  
HETATM    9  O   UNL     1      -9.633   9.395  71.704  1.00  0.00    -0.260 OA 
BRANCH   8  10
HETATM   10  O   UNL     1     -10.684   9.373  69.672  1.00  0.00    -0.225 OA 
BRANCH  10  11
HETATM   11  C   UNL     1     -10.516  10.769  69.366  1.00  0.00    -0.200 C  
BRANCH  11  12
HETATM   12  C   UNL     1     -11.889  11.427  69.154  1.00  0.00    -0.345 C  
BRANCH  12  13
HETATM   13  O   UNL     1     -12.278  11.493  67.762  1.00  0.00    -0.560 OA 
BRANCH  13  14
HETATM   14  C   UNL     1     -11.165  11.497  66.871  1.00  0.00    -0.298 C  
BRANCH  14  15
HETATM   15  N   UNL     1     -11.341  12.555  65.901  1.00  0.00    -0.323 NA 
HETATM   16  C   UNL     1     -12.102  12.461  64.759  1.00  0.00    -0.416 A  
HETATM   17  N   UNL     1     -12.191  13.615  64.125  1.00  0.00    -0.597 NA 
HETATM   18  C   UNL     1     -11.461  14.496  64.892  1.00  0.00    -0.396 A  
HETATM   19  C   UNL     1     -10.936  13.844  65.979  1.00  0.00    -0.285 A  
HETATM   20  N   UNL     1     -10.197  14.471  66.901  1.00  0.00    -0.261 NA 
HETATM   21  C   UNL     1     -10.006  15.820  66.725  1.00  0.00    -0.252 C  
HETATM   22  N   UNL     1      -9.305  16.401  67.728  1.00  0.00    -0.212 NA 
HETATM   23  N   UNL     1     -10.456  16.536  65.736  1.00  0.00    -0.355 N  
HETATM   24  H2  UNL     1      -8.954  15.887  68.536  1.00  0.00     0.000 HD 
HETATM   25  H1  UNL     1      -9.162  17.403  67.598  1.00  0.00     0.000 HD 
HETATM   26  H   UNL     1     -10.257  17.536  65.700  1.00  0.00     0.000 HD 
HETATM   27  C   UNL     1     -11.213  15.938  64.722  1.00  0.00    -0.355 C  
HETATM   28  O   UNL     1     -11.647  16.568  63.764  1.00  0.00    -1.109 OA 
ENDBRANCH  14  15
ENDBRANCH  13  14
ENDBRANCH  12  13
BRANCH  12  29
HETATM   29  C   UNL     1     -11.880  12.864  69.697  1.00  0.00    -0.320 C  
HETATM   30  O   UNL     1     -10.541  13.364  69.694  1.00  0.00    -0.385 OA 
HETATM   31  H   UNL     1     -10.536  14.253  70.030  1.00  0.00     0.000 HD 
ENDBRANCH  12  29
ENDBRANCH  11  12
ENDBRANCH  10  11
ENDBRANCH   8  10
ENDBRANCH   4   8
TORSDOF 8
ENDMDL
MODEL       20
REMARK 921   NORMALIZED FREE ENERGY PREDICTED BY IDOCK:   -6.43 KCAL/MOL
REMARK 922        TOTAL FREE ENERGY PREDICTED BY IDOCK:  -10.65 KCAL/MOL
REMARK 923 INTER-LIGAND FREE ENERGY PREDICTED BY IDOCK:   -9.76 KCAL/MOL
REMARK 924 INTRA-LIGAND FREE ENERGY PREDICTED BY IDOCK:   -0.89 KCAL/MOL
REMARK 927      BINDING AFFINITY PREDICTED BY RF-SCORE:    0.00 PKD
ROOT
HETATM    1  C   UNL     1     -10.427  12.637  64.045  1.00  0.00    -0.443 C  
HETATM    2  C   UNL     1     -11.848  12.631  64.619  1.00  0.00    -0.437 C  
HETATM    3  C   UNL     1     -12.785  11.866  63.678  1.00  0.00    -0.509 C  
HETATM    4  C   UNL     1     -12.382  14.051  64.936  1.00  0.00    -0.427 C  
HETATM    5  N   UNL     1     -12.413  14.911  63.731  1.00  0.00    -1.062 NA 
HETATM    6  H1  UNL     1     -12.764  15.845  63.940  1.00  0.00     0.000 HD 
HETATM    7  H2  UNL     1     -12.945  14.475  62.978  1.00  0.00     0.000 HD 
ENDROOT
BRANCH   4   8
HETATM    8  C   UNL     1     -11.569  14.707  66.071  1.00  0.00    -0.328 C  
HETATM    9  O   UNL     1     -10.658  15.508  65.899  1.00  0.00    -0.309 OA 
BRANCH   8  10
HETATM   10  O   UNL     1     -11.941  14.229  67.297  1.00  0.00    -0.401 OA 
BRANCH  10  11
HETATM   11  C   UNL     1     -10.959  14.334  68.343  1.00  0.00    -0.253 C  
BRANCH  11  12
HETATM   12  C   UNL     1     -11.276  15.540  69.242  1.00  0.00    -0.310 C  
BRANCH  12  13
HETATM   13  O   UNL     1     -10.093  16.177  69.775  1.00  0.00    -0.245 OA 
BRANCH  13  14
HETATM   14  C   UNL     1      -8.944  16.003  68.949  1.00  0.00    -0.239 C  
BRANCH  14  15
HETATM   15  N   UNL     1      -8.309  17.287  68.747  1.00  0.00    -0.256 NA 
HETATM   16  C   UNL     1      -7.121  17.678  69.317  1.00  0.00    -0.120 A  
HETATM   17  N   UNL     1      -6.710  18.845  68.859  1.00  0.00    -0.275 NA 
HETATM   18  C   UNL     1      -7.671  19.225  67.948  1.00  0.00    -0.283 A  
HETATM   19  C   UNL     1      -8.654  18.269  67.883  1.00  0.00    -0.258 A  
HETATM   20  N   UNL     1      -9.703  18.377  67.059  1.00  0.00    -0.299 NA 
HETATM   21  C   UNL     1      -9.741  19.487  66.252  1.00  0.00    -0.402 C  
HETATM   22  N   UNL     1     -10.795  19.499  65.400  1.00  0.00    -0.426 NA 
HETATM   23  N   UNL     1      -8.866  20.451  66.230  1.00  0.00    -0.576 N  
HETATM   24  H2  UNL     1     -11.491  18.755  65.361  1.00  0.00     0.000 HD 
HETATM   25  H1  UNL     1     -10.823  20.324  64.800  1.00  0.00     0.000 HD 
HETATM   26  H   UNL     1      -8.989  21.234  65.588  1.00  0.00     0.000 HD 
HETATM   27  C   UNL     1      -7.759  20.415  67.086  1.00  0.00    -0.328 C  
HETATM   28  O   UNL     1      -6.917  21.305  67.111  1.00  0.00    -0.491 OA 
ENDBRANCH  14  15
ENDBRANCH  13  14
ENDBRANCH  12  13
BRANCH  12  29
HETATM   29  C   UNL     1     -12.141  15.102  70.434  1.00  0.00    -0.328 C  
HETATM   30  O   UNL     1     -13.410  15.757  70.365  1.00  0.00    -0.756 OA 
HETATM   31  H   UNL     1     -13.944  15.486  71.102  1.00  0.00     0.000 HD 
ENDBRANCH  12  29
ENDBRANCH  11  12
ENDBRANCH  10  11
ENDBRANCH   8  10
ENDBRANCH   4   8
TORSDOF 8
ENDMDL
MODEL       21
REMARK 921   NORMALIZED FREE ENERGY PREDICTED BY IDOCK:   -6.40 KCAL/MOL
REMARK 922        TOTAL FREE ENERGY PREDICTED BY IDOCK:  -10.62 KCAL/MOL
REMARK 923 INTER-LIGAND FREE ENERGY PREDICTED BY IDOCK:   -9.73 KCAL/MOL
REMARK 924 INTRA-LIGAND FREE ENERGY PREDICTED BY IDOCK:   -0.89 KCAL/MOL
REMARK 927      BINDING AFFINITY PREDICTED BY RF-SCORE:    0.00 PKD
ROOT
HETATM    1  C   UNL     1     -11.096   6.120  69.644  1.00  0.00    -0.489 C  
HETATM    2  C   UNL     1     -10.254   6.477  70.875  1.00  0.00    -0.220 C  
HETATM    3  C   UNL     1      -9.446   5.255  71.323  1.00  0.00    -0.197 C  
HETATM    4  C   UNL     1     -11.094   7.070  72.034  1.00  0.00    -0.243 C  
HETATM    5  N   UNL     1     -12.143   6.132  72.493  1.00  0.00    -0.537 NA 
HETATM    6  H1  UNL     1     -12.696   6.523  73.256  1.00  0.00     0.000 HD 
HETATM    7  H2  UNL     1     -11.746   5.228  72.749  1.00  0.00     0.000 HD 
ENDROOT
BRANCH   4   8
HETATM    8  C   UNL     1     -11.697   8.434  71.639  1.00  0.00    -0.298 C  
HETATM    9  O   UNL     1     -12.889   8.711  71.703  1.00  0.00    -0.323 OA 
BRANCH   8  10
HETATM   10  O   UNL     1     -10.746   9.278  71.137  1.00  0.00    -0.278 OA 
BRANCH  10  11
HETATM   11  C   UNL     1     -11.183  10.191  70.114  1.00  0.00    -0.310 C  
BRANCH  11  12
HETATM   12  C   UNL     1     -10.010  10.534  69.182  1.00  0.00    -0.220 C  
BRANCH  12  13
HETATM   13  O   UNL     1     -10.409  11.315  68.032  1.00  0.00    -0.174 OA 
BRANCH  13  14
HETATM   14  C   UNL     1     -11.745  11.805  68.125  1.00  0.00    -0.307 C  
BRANCH  14  15
HETATM   15  N   UNL     1     -11.869  12.994  67.312  1.00  0.00    -0.372 NA 
HETATM   16  C   UNL     1     -11.658  14.279  67.754  1.00  0.00    -0.354 A  
HETATM   17  N   UNL     1     -11.713  15.158  66.771  1.00  0.00    -0.155 NA 
HETATM   18  C   UNL     1     -11.966  14.410  65.642  1.00  0.00    -0.354 A  
HETATM   19  C   UNL     1     -12.066  13.082  65.976  1.00  0.00    -0.432 A  
HETATM   20  N   UNL     1     -12.291  12.131  65.063  1.00  0.00    -0.451 NA 
HETATM   21  C   UNL     1     -12.393  12.542  63.757  1.00  0.00    -0.502 C  
HETATM   22  N   UNL     1     -12.555  11.520  62.881  1.00  0.00    -0.874 NA 
HETATM   23  N   UNL     1     -12.314  13.768  63.329  1.00  0.00    -1.124 N  
HETATM   24  H2  UNL     1     -12.598  10.541  63.165  1.00  0.00     0.000 HD 
HETATM   25  H1  UNL     1     -12.631  11.825  61.910  1.00  0.00     0.000 HD 
HETATM   26  H   UNL     1     -12.402  13.966  62.332  1.00  0.00     0.000 HD 
HETATM   27  C   UNL     1     -12.107  14.816  64.234  1.00  0.00    -0.394 C  
HETATM   28  O   UNL     1     -12.039  15.987  63.881  1.00  0.00    -0.880 OA 
ENDBRANCH  14  15
ENDBRANCH  13  14
ENDBRANCH  12  13
BRANCH  12  29
HETATM   29  C   UNL     1      -9.352   9.248  68.660  1.00  0.00    -0.139 C  
HETATM   30  O   UNL     1      -8.080   9.077  69.289  1.00  0.00    -0.100 OA 
HETATM   31  H   UNL     1      -7.673   8.282  68.966  1.00  0.00     0.000 HD 
ENDBRANCH  12  29
ENDBRANCH  11  12
ENDBRANCH  10  11
ENDBRANCH   8  10
ENDBRANCH   4   8
TORSDOF 8
ENDMDL
MODEL       22
REMARK 921   NORMALIZED FREE ENERGY PREDICTED BY IDOCK:   -6.39 KCAL/MOL
REMARK 922        TOTAL FREE ENERGY PREDICTED BY IDOCK:  -10.60 KCAL/MOL
REMARK 923 INTER-LIGAND FREE ENERGY PREDICTED BY IDOCK:   -9.60 KCAL/MOL
REMARK 924 INTRA-LIGAND FREE ENERGY PREDICTED BY IDOCK:   -1.01 KCAL/MOL
REMARK 927      BINDING AFFINITY PREDICTED BY RF-SCORE:    0.00 PKD
ROOT
HETATM    1  C   UNL     1     -12.876  13.554  65.666  1.00  0.00    -0.380 C  
HETATM    2  C   UNL     1     -12.010  13.982  64.475  1.00  0.00    -0.470 C  
HETATM    3  C   UNL     1     -12.019  12.885  63.405  1.00  0.00    -0.612 C  
HETATM    4  C   UNL     1     -10.569  14.379  64.883  1.00  0.00    -0.434 C  
HETATM    5  N   UNL     1      -9.857  13.265  65.548  1.00  0.00    -0.476 NA 
HETATM    6  H1  UNL     1      -8.908  13.526  65.816  1.00  0.00     0.000 HD 
HETATM    7  H2  UNL     1      -9.860  12.425  64.970  1.00  0.00     0.000 HD 
ENDROOT
BRANCH   4   8
HETATM    8  C   UNL     1     -10.572  15.646  65.763  1.00  0.00    -0.361 C  
HETATM    9  O   UNL     1     -10.839  16.771  65.358  1.00  0.00    -0.413 OA 
BRANCH   8  10
HETATM   10  O   UNL     1     -10.168  15.373  67.039  1.00  0.00    -0.253 OA 
BRANCH  10  11
HETATM   11  C   UNL     1     -11.168  15.513  68.065  1.00  0.00    -0.332 C  
BRANCH  11  12
HETATM   12  C   UNL     1     -10.937  14.468  69.168  1.00  0.00    -0.268 C  
BRANCH  12  13
HETATM   13  O   UNL     1     -10.988  13.107  68.680  1.00  0.00    -0.248 OA 
BRANCH  13  14
HETATM   14  C   UNL     1     -11.952  12.306  69.360  1.00  0.00    -0.259 C  
BRANCH  14  15
HETATM   15  N   UNL     1     -11.339  11.055  69.746  1.00  0.00    -0.275 NA 
HETATM   16  C   UNL     1     -10.093  10.631  69.349  1.00  0.00    -0.174 A  
HETATM   17  N   UNL     1      -9.731   9.514  69.954  1.00  0.00    -0.209 NA 
HETATM   18  C   UNL     1     -10.787   9.204  70.782  1.00  0.00    -0.268 A  
HETATM   19  C   UNL     1     -11.775  10.148  70.651  1.00  0.00    -0.338 A  
HETATM   20  N   UNL     1     -12.910  10.099  71.358  1.00  0.00    -0.392 NA 
HETATM   21  C   UNL     1     -13.033   9.064  72.253  1.00  0.00    -0.424 C  
HETATM   22  N   UNL     1     -14.177   9.114  72.980  1.00  0.00    -1.124 NA 
HETATM   23  N   UNL     1     -12.163   8.119  72.459  1.00  0.00    -0.550 N  
HETATM   24  H2  UNL     1     -14.876   9.848  72.873  1.00  0.00     0.000 HD 
HETATM   25  H1  UNL     1     -14.269   8.345  73.644  1.00  0.00     0.000 HD 
HETATM   26  H   UNL     1     -12.354   7.394  73.151  1.00  0.00     0.000 HD 
HETATM   27  C   UNL     1     -10.967   8.094  71.733  1.00  0.00    -0.261 C  
HETATM   28  O   UNL     1     -10.124   7.218  71.882  1.00  0.00    -0.178 OA 
ENDBRANCH  14  15
ENDBRANCH  13  14
ENDBRANCH  12  13
BRANCH  12  29
HETATM   29  C   UNL     1     -12.007  14.605  70.263  1.00  0.00    -0.308 C  
HETATM   30  O   UNL     1     -12.829  15.740  69.983  1.00  0.00    -0.588 OA 
HETATM   31  H   UNL     1     -13.490  15.825  70.660  1.00  0.00     0.000 HD 
ENDBRANCH  12  29
ENDBRANCH  11  12
ENDBRANCH  10  11
ENDBRANCH   8  10
ENDBRANCH   4   8
TORSDOF 8
ENDMDL
MODEL       23
REMARK 921   NORMALIZED FREE ENERGY PREDICTED BY IDOCK:   -6.39 KCAL/MOL
REMARK 922        TOTAL FREE ENERGY PREDICTED BY IDOCK:  -10.60 KCAL/MOL
REMARK 923 INTER-LIGAND FREE ENERGY PREDICTED BY IDOCK:   -9.94 KCAL/MOL
REMARK 924 INTRA-LIGAND FREE ENERGY PREDICTED BY IDOCK:   -0.65 KCAL/MOL
REMARK 927      BINDING AFFINITY PREDICTED BY RF-SCORE:    0.00 PKD
ROOT
HETATM    1  C   UNL     1      -8.379  10.495  65.184  1.00  0.00    -0.150 C  
HETATM    2  C   UNL     1      -9.090   9.894  63.965  1.00  0.00    -0.300 C  
HETATM    3  C   UNL     1      -8.184   8.857  63.295  1.00  0.00    -0.182 C  
HETATM    4  C   UNL     1      -9.583  10.966  62.960  1.00  0.00    -0.358 C  
HETATM    5  N   UNL     1      -8.468  11.789  62.439  1.00  0.00    -0.445 NA 
HETATM    6  H1  UNL     1      -8.793  12.494  61.777  1.00  0.00     0.000 HD 
HETATM    7  H2  UNL     1      -7.737  11.207  62.031  1.00  0.00     0.000 HD 
ENDROOT
BRANCH   4   8
HETATM    8  C   UNL     1     -10.685  11.846  63.585  1.00  0.00    -0.442 C  
HETATM    9  O   UNL     1     -11.843  11.487  63.761  1.00  0.00    -0.336 OA 
BRANCH   8  10
HETATM   10  O   UNL     1     -10.230  13.106  63.853  1.00  0.00    -0.365 OA 
BRANCH  10  11
HETATM   11  C   UNL     1     -10.178  13.480  65.242  1.00  0.00    -0.306 C  
BRANCH  11  12
HETATM   12  C   UNL     1     -10.870  14.838  65.445  1.00  0.00    -0.363 C  
BRANCH  12  13
HETATM   13  O   UNL     1     -11.319  15.048  66.804  1.00  0.00    -0.341 OA 
BRANCH  13  14
HETATM   14  C   UNL     1     -11.025  13.951  67.666  1.00  0.00    -0.264 C  
BRANCH  14  15
HETATM   15  N   UNL     1     -11.596  14.208  68.969  1.00  0.00    -0.282 NA 
HETATM   16  C   UNL     1     -11.899  15.454  69.466  1.00  0.00    -0.349 A  
HETATM   17  N   UNL     1     -12.529  15.387  70.625  1.00  0.00    -0.400 NA 
HETATM   18  C   UNL     1     -12.643  14.039  70.887  1.00  0.00    -0.361 A  
HETATM   19  C   UNL     1     -12.066  13.317  69.872  1.00  0.00    -0.308 A  
HETATM   20  N   UNL     1     -12.053  11.979  69.865  1.00  0.00    -0.290 NA 
HETATM   21  C   UNL     1     -12.673  11.351  70.917  1.00  0.00    -0.303 C  
HETATM   22  N   UNL     1     -12.678   9.999  70.811  1.00  0.00    -0.480 NA 
HETATM   23  N   UNL     1     -13.250  11.934  71.928  1.00  0.00    -0.449 N  
HETATM   24  H2  UNL     1     -12.263   9.498  70.026  1.00  0.00     0.000 HD 
HETATM   25  H1  UNL     1     -13.138   9.532  71.593  1.00  0.00     0.000 HD 
HETATM   26  H   UNL     1     -13.684  11.371  72.659  1.00  0.00     0.000 HD 
HETATM   27  C   UNL     1     -13.275  13.331  72.012  1.00  0.00    -0.446 C  
HETATM   28  O   UNL     1     -13.794  13.925  72.950  1.00  0.00    -0.662 OA 
ENDBRANCH  14  15
ENDBRANCH  13  14
ENDBRANCH  12  13
BRANCH  12  29
HETATM   29  C   UNL     1     -12.100  14.950  64.531  1.00  0.00    -0.407 C  
HETATM   30  O   UNL     1     -12.057  16.195  63.830  1.00  0.00    -1.355 OA 
HETATM   31  H   UNL     1     -12.817  16.264  63.265  1.00  0.00     0.000 HD 
ENDBRANCH  12  29
ENDBRANCH  11  12
ENDBRANCH  10  11
ENDBRANCH   8  10
ENDBRANCH   4   8
TORSDOF 8
ENDMDL
MODEL       24
REMARK 921   NORMALIZED FREE ENERGY PREDICTED BY IDOCK:   -6.38 KCAL/MOL
REMARK 922        TOTAL FREE ENERGY PREDICTED BY IDOCK:  -10.57 KCAL/MOL
REMARK 923 INTER-LIGAND FREE ENERGY PREDICTED BY IDOCK:   -9.78 KCAL/MOL
REMARK 924 INTRA-LIGAND FREE ENERGY PREDICTED BY IDOCK:   -0.79 KCAL/MOL
REMARK 927      BINDING AFFINITY PREDICTED BY RF-SCORE:    0.00 PKD
ROOT
HETATM    1  C   UNL     1     -10.383  12.525  63.756  1.00  0.00    -0.418 C  
HETATM    2  C   UNL     1     -11.827  12.447  64.267  1.00  0.00    -0.473 C  
HETATM    3  C   UNL     1     -12.746  11.945  63.149  1.00  0.00    -0.268 C  
HETATM    4  C   UNL     1     -12.330  13.781  64.873  1.00  0.00    -0.405 C  
HETATM    5  N   UNL     1     -12.286  14.886  63.890  1.00  0.00    -1.064 NA 
HETATM    6  H1  UNL     1     -12.618  15.764  64.290  1.00  0.00     0.000 HD 
HETATM    7  H2  UNL     1     -12.799  14.649  63.042  1.00  0.00     0.000 HD 
ENDROOT
BRANCH   4   8
HETATM    8  C   UNL     1     -11.546  14.138  66.153  1.00  0.00    -0.370 C  
HETATM    9  O   UNL     1     -10.821  15.119  66.272  1.00  0.00    -0.324 OA 
BRANCH   8  10
HETATM   10  O   UNL     1     -11.699  13.184  67.119  1.00  0.00    -0.339 OA 
BRANCH  10  11
HETATM   11  C   UNL     1     -10.588  12.289  67.310  1.00  0.00    -0.224 C  
BRANCH  11  12
HETATM   12  C   UNL     1     -11.083  10.954  67.889  1.00  0.00    -0.302 C  
BRANCH  12  13
HETATM   13  O   UNL     1     -12.199  11.107  68.796  1.00  0.00    -0.555 OA 
BRANCH  13  14
HETATM   14  C   UNL     1     -11.829  10.967  70.166  1.00  0.00    -0.353 C  
BRANCH  14  15
HETATM   15  N   UNL     1     -12.514  11.974  70.946  1.00  0.00    -0.347 NA 
HETATM   16  C   UNL     1     -13.266  11.726  72.069  1.00  0.00    -0.355 A  
HETATM   17  N   UNL     1     -13.667  12.839  72.655  1.00  0.00    -0.440 NA 
HETATM   18  C   UNL     1     -13.147  13.852  71.880  1.00  0.00    -0.385 A  
HETATM   19  C   UNL     1     -12.442  13.320  70.829  1.00  0.00    -0.324 A  
HETATM   20  N   UNL     1     -11.816  14.085  69.928  1.00  0.00    -0.310 NA 
HETATM   21  C   UNL     1     -11.886  15.443  70.117  1.00  0.00    -0.335 C  
HETATM   22  N   UNL     1     -11.175  16.152  69.206  1.00  0.00    -0.332 NA 
HETATM   23  N   UNL     1     -12.521  16.053  71.075  1.00  0.00    -0.533 N  
HETATM   24  H2  UNL     1     -10.641  15.719  68.454  1.00  0.00     0.000 HD 
HETATM   25  H1  UNL     1     -11.227  17.161  69.347  1.00  0.00     0.000 HD 
HETATM   26  H   UNL     1     -12.510  17.072  71.126  1.00  0.00     0.000 HD 
HETATM   27  C   UNL     1     -13.222  15.314  72.036  1.00  0.00    -0.407 C  
HETATM   28  O   UNL     1     -13.846  15.843  72.948  1.00  0.00    -0.605 OA 
ENDBRANCH  14  15
ENDBRANCH  13  14
ENDBRANCH  12  13
BRANCH  12  29
HETATM   29  C   UNL     1      -9.953  10.258  68.663  1.00  0.00    -0.173 C  
HETATM   30  O   UNL     1      -9.448   9.169  67.888  1.00  0.00    -0.139 OA 
HETATM   31  H   UNL     1      -8.750   8.738  68.366  1.00  0.00     0.000 HD 
ENDBRANCH  12  29
ENDBRANCH  11  12
ENDBRANCH  10  11
ENDBRANCH   8  10
ENDBRANCH   4   8
TORSDOF 8
ENDMDL
MODEL       25
REMARK 921   NORMALIZED FREE ENERGY PREDICTED BY IDOCK:   -6.38 KCAL/MOL
REMARK 922        TOTAL FREE ENERGY PREDICTED BY IDOCK:  -10.57 KCAL/MOL
REMARK 923 INTER-LIGAND FREE ENERGY PREDICTED BY IDOCK:   -9.69 KCAL/MOL
REMARK 924 INTRA-LIGAND FREE ENERGY PREDICTED BY IDOCK:   -0.88 KCAL/MOL
REMARK 927      BINDING AFFINITY PREDICTED BY RF-SCORE:    0.00 PKD
ROOT
HETATM    1  C   UNL     1      -7.303  18.923  67.683  1.00  0.00    -0.239 C  
HETATM    2  C   UNL     1      -7.692  19.414  66.283  1.00  0.00    -0.308 C  
HETATM    3  C   UNL     1      -6.651  20.418  65.778  1.00  0.00    -0.272 C  
HETATM    4  C   UNL     1      -9.129  19.992  66.220  1.00  0.00    -0.317 C  
HETATM    5  N   UNL     1      -9.304  21.140  67.138  1.00  0.00    -0.595 NA 
HETATM    6  H1  UNL     1     -10.250  21.519  67.096  1.00  0.00     0.000 HD 
HETATM    7  H2  UNL     1      -8.607  21.863  66.965  1.00  0.00     0.000 HD 
ENDROOT
BRANCH   4   8
HETATM    8  C   UNL     1     -10.179  18.894  66.488  1.00  0.00    -0.414 C  
HETATM    9  O   UNL     1     -10.985  18.916  67.410  1.00  0.00    -0.437 OA 
BRANCH   8  10
HETATM   10  O   UNL     1     -10.054  17.853  65.612  1.00  0.00    -0.567 OA 
BRANCH  10  11
HETATM   11  C   UNL     1      -9.871  16.550  66.195  1.00  0.00    -0.332 C  
BRANCH  11  12
HETATM   12  C   UNL     1     -11.165  15.731  66.063  1.00  0.00     0.018 C  
BRANCH  12  13
HETATM   13  O   UNL     1     -11.192  14.569  66.923  1.00  0.00    -0.316 OA 
BRANCH  13  14
HETATM   14  C   UNL     1     -10.427  14.738  68.114  1.00  0.00    -0.239 C  
BRANCH  14  15
HETATM   15  N   UNL     1     -11.074  14.029  69.196  1.00  0.00    -0.258 NA 
HETATM   16  C   UNL     1     -11.704  14.622  70.264  1.00  0.00    -0.297 A  
HETATM   17  N   UNL     1     -12.319  13.742  71.031  1.00  0.00    -0.370 NA 
HETATM   18  C   UNL     1     -12.081  12.525  70.430  1.00  0.00    -0.297 A  
HETATM   19  C   UNL     1     -11.313  12.701  69.306  1.00  0.00    -0.245 A  
HETATM   20  N   UNL     1     -10.950  11.681  68.521  1.00  0.00    -0.204 NA 
HETATM   21  C   UNL     1     -11.407  10.436  68.877  1.00  0.00    -0.219 C  
HETATM   22  N   UNL     1     -11.056   9.462  68.002  1.00  0.00    -0.513 NA 
HETATM   23  N   UNL     1     -12.138  10.154  69.916  1.00  0.00    -0.481 N  
HETATM   24  H2  UNL     1     -10.506   9.637  67.161  1.00  0.00     0.000 HD 
HETATM   25  H1  UNL     1     -11.394   8.537  68.267  1.00  0.00     0.000 HD 
HETATM   26  H   UNL     1     -12.425   9.191  70.090  1.00  0.00     0.000 HD 
HETATM   27  C   UNL     1     -12.530  11.171  70.796  1.00  0.00    -0.384 C  
HETATM   28  O   UNL     1     -13.206  10.953  71.794  1.00  0.00    -0.444 OA 
ENDBRANCH  14  15
ENDBRANCH  13  14
ENDBRANCH  12  13
BRANCH  12  29
HETATM   29  C   UNL     1     -11.338  15.239  64.617  1.00  0.00    -0.358 C  
HETATM   30  O   UNL     1     -11.547  16.360  63.756  1.00  0.00    -1.605 OA 
HETATM   31  H   UNL     1     -11.654  16.055  62.863  1.00  0.00     0.000 HD 
ENDBRANCH  12  29
ENDBRANCH  11  12
ENDBRANCH  10  11
ENDBRANCH   8  10
ENDBRANCH   4   8
TORSDOF 8
ENDMDL
MODEL       26
REMARK 921   NORMALIZED FREE ENERGY PREDICTED BY IDOCK:   -6.36 KCAL/MOL
REMARK 922        TOTAL FREE ENERGY PREDICTED BY IDOCK:  -10.55 KCAL/MOL
REMARK 923 INTER-LIGAND FREE ENERGY PREDICTED BY IDOCK:   -9.67 KCAL/MOL
REMARK 924 INTRA-LIGAND FREE ENERGY PREDICTED BY IDOCK:   -0.88 KCAL/MOL
REMARK 927      BINDING AFFINITY PREDICTED BY RF-SCORE:    0.00 PKD
ROOT
HETATM    1  C   UNL     1      -9.836  11.638  66.008  1.00  0.00    -0.258 C  
HETATM    2  C   UNL     1     -10.295  10.620  64.957  1.00  0.00    -0.341 C  
HETATM    3  C   UNL     1      -9.267   9.489  64.848  1.00  0.00    -0.284 C  
HETATM    4  C   UNL     1     -10.595  11.263  63.579  1.00  0.00    -0.369 C  
HETATM    5  N   UNL     1      -9.409  11.948  63.019  1.00  0.00    -0.636 NA 
HETATM    6  H1  UNL     1      -9.607  12.370  62.112  1.00  0.00     0.000 HD 
HETATM    7  H2  UNL     1      -8.607  11.320  62.967  1.00  0.00     0.000 HD 
ENDROOT
BRANCH   4   8
HETATM    8  C   UNL     1     -11.804  12.216  63.665  1.00  0.00    -0.516 C  
HETATM    9  O   UNL     1     -12.970  11.875  63.505  1.00  0.00    -0.724 OA 
BRANCH   8  10
HETATM   10  O   UNL     1     -11.412  13.509  63.871  1.00  0.00    -0.355 OA 
BRANCH  10  11
HETATM   11  C   UNL     1     -12.026  14.191  64.980  1.00  0.00    -0.408 C  
BRANCH  11  12
HETATM   12  C   UNL     1     -10.996  15.098  65.673  1.00  0.00    -0.355 C  
BRANCH  12  13
HETATM   13  O   UNL     1     -11.319  15.370  67.056  1.00  0.00    -0.288 OA 
BRANCH  13  14
HETATM   14  C   UNL     1     -10.451  14.706  67.973  1.00  0.00    -0.236 C  
BRANCH  14  15
HETATM   15  N   UNL     1      -9.210  15.442  68.064  1.00  0.00    -0.183 NA 
HETATM   16  C   UNL     1      -7.970  14.942  67.739  1.00  0.00    -0.150 A  
HETATM   17  N   UNL     1      -7.032  15.869  67.792  1.00  0.00    -0.135 NA 
HETATM   18  C   UNL     1      -7.692  17.020  68.163  1.00  0.00    -0.197 A  
HETATM   19  C   UNL     1      -9.028  16.756  68.333  1.00  0.00    -0.233 A  
HETATM   20  N   UNL     1      -9.906  17.705  68.676  1.00  0.00    -0.331 NA 
HETATM   21  C   UNL     1      -9.411  18.977  68.826  1.00  0.00    -0.382 C  
HETATM   22  N   UNL     1     -10.366  19.897  69.109  1.00  0.00    -0.600 NA 
HETATM   23  N   UNL     1      -8.169  19.339  68.688  1.00  0.00    -0.368 N  
HETATM   24  H2  UNL     1     -11.355  19.667  69.201  1.00  0.00     0.000 HD 
HETATM   25  H1  UNL     1      -9.999  20.842  69.221  1.00  0.00     0.000 HD 
HETATM   26  H   UNL     1      -7.906  20.316  68.822  1.00  0.00     0.000 HD 
HETATM   27  C   UNL     1      -7.193  18.391  68.358  1.00  0.00    -0.268 C  
HETATM   28  O   UNL     1      -6.010  18.681  68.231  1.00  0.00    -0.197 OA 
ENDBRANCH  14  15
ENDBRANCH  13  14
ENDBRANCH  12  13
BRANCH  12  29
HETATM   29  C   UNL     1     -10.904  16.449  64.947  1.00  0.00    -0.250 C  
HETATM   30  O   UNL     1     -11.629  16.377  63.717  1.00  0.00    -1.605 OA 
HETATM   31  H   UNL     1     -11.571  17.212  63.269  1.00  0.00     0.000 HD 
ENDBRANCH  12  29
ENDBRANCH  11  12
ENDBRANCH  10  11
ENDBRANCH   8  10
ENDBRANCH   4   8
TORSDOF 8
ENDMDL
MODEL       27
REMARK 921   NORMALIZED FREE ENERGY PREDICTED BY IDOCK:   -6.27 KCAL/MOL
REMARK 922        TOTAL FREE ENERGY PREDICTED BY IDOCK:  -10.41 KCAL/MOL
REMARK 923 INTER-LIGAND FREE ENERGY PREDICTED BY IDOCK:   -9.60 KCAL/MOL
REMARK 924 INTRA-LIGAND FREE ENERGY PREDICTED BY IDOCK:   -0.81 KCAL/MOL
REMARK 927      BINDING AFFINITY PREDICTED BY RF-SCORE:    0.00 PKD
ROOT
HETATM    1  C   UNL     1     -11.545   6.498  70.221  1.00  0.00    -0.473 C  
HETATM    2  C   UNL     1     -11.254   6.926  71.665  1.00  0.00    -0.280 C  
HETATM    3  C   UNL     1     -11.461   5.738  72.610  1.00  0.00    -0.337 C  
HETATM    4  C   UNL     1     -12.071   8.166  72.107  1.00  0.00    -0.357 C  
HETATM    5  N   UNL     1     -13.529   7.927  72.020  1.00  0.00    -0.488 NA 
HETATM    6  H1  UNL     1     -14.066   8.743  72.312  1.00  0.00     0.000 HD 
HETATM    7  H2  UNL     1     -13.801   7.097  72.547  1.00  0.00     0.000 HD 
ENDROOT
BRANCH   4   8
HETATM    8  C   UNL     1     -11.659   9.416  71.302  1.00  0.00    -0.364 C  
HETATM    9  O   UNL     1     -10.508   9.688  70.983  1.00  0.00    -0.304 OA 
BRANCH   8  10
HETATM   10  O   UNL     1     -12.730  10.226  71.048  1.00  0.00    -0.341 OA 
BRANCH  10  11
HETATM   11  C   UNL     1     -12.809  11.436  71.824  1.00  0.00    -0.344 C  
BRANCH  11  12
HETATM   12  C   UNL     1     -12.867  12.655  70.889  1.00  0.00    -0.095 C  
BRANCH  12  13
HETATM   13  O   UNL     1     -11.697  12.782  70.049  1.00  0.00    -0.288 OA 
BRANCH  13  14
HETATM   14  C   UNL     1     -11.966  13.441  68.813  1.00  0.00    -0.324 C  
BRANCH  14  15
HETATM   15  N   UNL     1     -11.413  12.657  67.730  1.00  0.00    -0.300 NA 
HETATM   16  C   UNL     1     -10.868  11.402  67.863  1.00  0.00    -0.225 A  
HETATM   17  N   UNL     1     -10.560  10.868  66.696  1.00  0.00    -0.254 NA 
HETATM   18  C   UNL     1     -10.926  11.817  65.766  1.00  0.00    -0.301 A  
HETATM   19  C   UNL     1     -11.445  12.916  66.403  1.00  0.00    -0.341 A  
HETATM   20  N   UNL     1     -11.898  13.982  65.733  1.00  0.00    -0.367 NA 
HETATM   21  C   UNL     1     -11.844  13.918  64.362  1.00  0.00    -0.429 C  
HETATM   22  N   UNL     1     -12.378  15.003  63.750  1.00  0.00    -1.058 NA 
HETATM   23  N   UNL     1     -11.375  12.929  63.658  1.00  0.00    -0.552 N  
HETATM   24  H2  UNL     1     -12.781  15.790  64.258  1.00  0.00     0.000 HD 
HETATM   25  H1  UNL     1     -12.338  14.955  62.732  1.00  0.00     0.000 HD 
HETATM   26  H   UNL     1     -11.382  12.982  62.639  1.00  0.00     0.000 HD 
HETATM   27  C   UNL     1     -10.860  11.794  64.296  1.00  0.00    -0.349 C  
HETATM   28  O   UNL     1     -10.395  10.845  63.676  1.00  0.00    -0.355 OA 
ENDBRANCH  14  15
ENDBRANCH  13  14
ENDBRANCH  12  13
BRANCH  12  29
HETATM   29  C   UNL     1     -12.989  13.948  71.709  1.00  0.00    -0.358 C  
HETATM   30  O   UNL     1     -13.945  13.759  72.754  1.00  0.00    -0.714 OA 
HETATM   31  H   UNL     1     -14.020  14.559  73.261  1.00  0.00     0.000 HD 
ENDBRANCH  12  29
ENDBRANCH  11  12
ENDBRANCH  10  11
ENDBRANCH   8  10
ENDBRANCH   4   8
TORSDOF 8
ENDMDL
MODEL       28
REMARK 921   NORMALIZED FREE ENERGY PREDICTED BY IDOCK:   -6.26 KCAL/MOL
REMARK 922        TOTAL FREE ENERGY PREDICTED BY IDOCK:  -10.41 KCAL/MOL
REMARK 923 INTER-LIGAND FREE ENERGY PREDICTED BY IDOCK:   -9.07 KCAL/MOL
REMARK 924 INTRA-LIGAND FREE ENERGY PREDICTED BY IDOCK:   -1.34 KCAL/MOL
REMARK 927      BINDING AFFINITY PREDICTED BY RF-SCORE:    0.00 PKD
ROOT
HETATM    1  C   UNL     1     -10.067  10.882  65.449  1.00  0.00    -0.336 C  
HETATM    2  C   UNL     1     -10.655  11.131  64.055  1.00  0.00    -0.436 C  
HETATM    3  C   UNL     1      -9.679  10.634  62.984  1.00  0.00    -0.362 C  
HETATM    4  C   UNL     1     -11.064  12.608  63.823  1.00  0.00    -0.453 C  
HETATM    5  N   UNL     1      -9.915  13.529  63.971  1.00  0.00    -0.630 NA 
HETATM    6  H1  UNL     1     -10.184  14.501  63.818  1.00  0.00     0.000 HD 
HETATM    7  H2  UNL     1      -9.142  13.259  63.363  1.00  0.00     0.000 HD 
ENDROOT
BRANCH   4   8
HETATM    8  C   UNL     1     -12.229  13.012  64.750  1.00  0.00    -0.435 C  
HETATM    9  O   UNL     1     -13.335  12.483  64.746  1.00  0.00    -0.773 OA 
BRANCH   8  10
HETATM   10  O   UNL     1     -11.902  14.084  65.532  1.00  0.00    -0.339 OA 
BRANCH  10  11
HETATM   11  C   UNL     1     -12.002  13.887  66.953  1.00  0.00    -0.433 C  
BRANCH  11  12
HETATM   12  C   UNL     1     -10.936  14.727  67.675  1.00  0.00    -0.291 C  
BRANCH  12  13
HETATM   13  O   UNL     1     -10.653  15.979  67.010  1.00  0.00    -0.309 OA 
BRANCH  13  14
HETATM   14  C   UNL     1     -11.119  17.115  67.736  1.00  0.00    -0.065 C  
BRANCH  14  15
HETATM   15  N   UNL     1     -10.266  18.245  67.443  1.00  0.00    -0.353 NA 
HETATM   16  C   UNL     1     -10.691  19.436  66.904  1.00  0.00    -0.465 A  
HETATM   17  N   UNL     1      -9.726  20.336  66.864  1.00  0.00    -0.432 NA 
HETATM   18  C   UNL     1      -8.629  19.702  67.405  1.00  0.00    -0.306 A  
HETATM   19  C   UNL     1      -8.961  18.417  67.757  1.00  0.00    -0.281 A  
HETATM   20  N   UNL     1      -8.083  17.583  68.325  1.00  0.00    -0.259 NA 
HETATM   21  C   UNL     1      -6.827  18.082  68.570  1.00  0.00    -0.237 C  
HETATM   22  N   UNL     1      -6.012  17.205  69.205  1.00  0.00    -0.194 NA 
HETATM   23  N   UNL     1      -6.407  19.279  68.281  1.00  0.00    -0.225 N  
HETATM   24  H2  UNL     1      -6.304  16.266  69.476  1.00  0.00     0.000 HD 
HETATM   25  H1  UNL     1      -5.079  17.575  69.387  1.00  0.00     0.000 HD 
HETATM   26  H   UNL     1      -5.450  19.551  68.507  1.00  0.00     0.000 HD 
HETATM   27  C   UNL     1      -7.265  20.195  67.659  1.00  0.00    -0.290 C  
HETATM   28  O   UNL     1      -6.911  21.327  67.355  1.00  0.00    -0.509 OA 
ENDBRANCH  14  15
ENDBRANCH  13  14
ENDBRANCH  12  13
BRANCH  12  29
HETATM   29  C   UNL     1      -9.616  13.946  67.767  1.00  0.00    -0.222 C  
HETATM   30  O   UNL     1      -8.866  14.138  66.565  1.00  0.00    -0.438 OA 
HETATM   31  H   UNL     1      -8.051  13.655  66.622  1.00  0.00     0.000 HD 
ENDBRANCH  12  29
ENDBRANCH  11  12
ENDBRANCH  10  11
ENDBRANCH   8  10
ENDBRANCH   4   8
TORSDOF 8
ENDMDL
MODEL       29
REMARK 921   NORMALIZED FREE ENERGY PREDICTED BY IDOCK:   -6.26 KCAL/MOL
REMARK 922        TOTAL FREE ENERGY PREDICTED BY IDOCK:  -10.40 KCAL/MOL
REMARK 923 INTER-LIGAND FREE ENERGY PREDICTED BY IDOCK:   -9.74 KCAL/MOL
REMARK 924 INTRA-LIGAND FREE ENERGY PREDICTED BY IDOCK:   -0.66 KCAL/MOL
REMARK 927      BINDING AFFINITY PREDICTED BY RF-SCORE:    0.00 PKD
ROOT
HETATM    1  C   UNL     1     -10.607   8.775  72.065  1.00  0.00    -0.414 C  
HETATM    2  C   UNL     1     -11.529   8.765  70.839  1.00  0.00    -0.330 C  
HETATM    3  C   UNL     1     -10.910   7.906  69.731  1.00  0.00    -0.202 C  
HETATM    4  C   UNL     1     -11.887  10.186  70.336  1.00  0.00    -0.288 C  
HETATM    5  N   UNL     1     -10.682  10.957  69.956  1.00  0.00    -0.463 NA 
HETATM    6  H1  UNL     1     -10.919  11.893  69.625  1.00  0.00     0.000 HD 
HETATM    7  H2  UNL     1     -10.120  10.453  69.271  1.00  0.00     0.000 HD 
ENDROOT
BRANCH   4   8
HETATM    8  C   UNL     1     -12.732  10.945  71.379  1.00  0.00    -0.434 C  
HETATM    9  O   UNL     1     -13.470  10.410  72.198  1.00  0.00    -0.396 OA 
BRANCH   8  10
HETATM   10  O   UNL     1     -12.615  12.299  71.233  1.00  0.00    -0.343 OA 
BRANCH  10  11
HETATM   11  C   UNL     1     -13.401  13.105  72.129  1.00  0.00    -0.524 C  
BRANCH  11  12
HETATM   12  C   UNL     1     -12.935  14.569  72.063  1.00  0.00    -0.341 C  
BRANCH  12  13
HETATM   13  O   UNL     1     -11.634  14.723  71.450  1.00  0.00    -0.325 OA 
BRANCH  13  14
HETATM   14  C   UNL     1     -11.475  15.975  70.785  1.00  0.00    -0.414 C  
BRANCH  14  15
HETATM   15  N   UNL     1     -11.219  15.736  69.383  1.00  0.00    -0.299 NA 
HETATM   16  C   UNL     1     -11.468  14.555  68.725  1.00  0.00    -0.294 A  
HETATM   17  N   UNL     1     -11.263  14.656  67.425  1.00  0.00    -0.329 NA 
HETATM   18  C   UNL     1     -10.869  15.962  67.231  1.00  0.00    -0.279 A  
HETATM   19  C   UNL     1     -10.839  16.623  68.434  1.00  0.00    -0.361 A  
HETATM   20  N   UNL     1     -10.506  17.915  68.532  1.00  0.00    -0.344 NA 
HETATM   21  C   UNL     1     -10.218  18.568  67.358  1.00  0.00    -0.373 C  
HETATM   22  N   UNL     1      -9.954  19.887  67.525  1.00  0.00    -0.390 NA 
HETATM   23  N   UNL     1     -10.217  18.043  66.167  1.00  0.00    -0.382 N  
HETATM   24  H2  UNL     1      -9.968  20.349  68.434  1.00  0.00     0.000 HD 
HETATM   25  H1  UNL     1      -9.740  20.372  66.654  1.00  0.00     0.000 HD 
HETATM   26  H   UNL     1      -9.988  18.619  65.357  1.00  0.00     0.000 HD 
HETATM   27  C   UNL     1     -10.529  16.688  65.997  1.00  0.00    -0.298 C  
HETATM   28  O   UNL     1     -10.527  16.146  64.898  1.00  0.00    -0.605 OA 
ENDBRANCH  14  15
ENDBRANCH  13  14
ENDBRANCH  12  13
BRANCH  12  29
HETATM   29  C   UNL     1     -12.853  15.165  73.476  1.00  0.00    -0.526 C  
HETATM   30  O   UNL     1     -13.643  16.354  73.536  1.00  0.00    -0.786 OA 
HETATM   31  H   UNL     1     -13.592  16.723  74.410  1.00  0.00     0.000 HD 
ENDBRANCH  12  29
ENDBRANCH  11  12
ENDBRANCH  10  11
ENDBRANCH   8  10
ENDBRANCH   4   8
TORSDOF 8
ENDMDL
MODEL       30
REMARK 921   NORMALIZED FREE ENERGY PREDICTED BY IDOCK:   -6.24 KCAL/MOL
REMARK 922        TOTAL FREE ENERGY PREDICTED BY IDOCK:  -10.38 KCAL/MOL
REMARK 923 INTER-LIGAND FREE ENERGY PREDICTED BY IDOCK:   -9.77 KCAL/MOL
REMARK 924 INTRA-LIGAND FREE ENERGY PREDICTED BY IDOCK:   -0.60 KCAL/MOL
REMARK 927      BINDING AFFINITY PREDICTED BY RF-SCORE:    0.00 PKD
ROOT
HETATM    1  C   UNL     1     -10.830  17.219  67.184  1.00  0.00    -0.085 C  
HETATM    2  C   UNL     1      -9.870  16.373  66.338  1.00  0.00    -0.312 C  
HETATM    3  C   UNL     1      -8.674  17.226  65.902  1.00  0.00     0.012 C  
HETATM    4  C   UNL     1     -10.564  15.692  65.131  1.00  0.00    -0.424 C  
HETATM    5  N   UNL     1     -11.179  16.681  64.217  1.00  0.00    -1.380 NA 
HETATM    6  H1  UNL     1     -11.635  16.232  63.423  1.00  0.00     0.000 HD 
HETATM    7  H2  UNL     1     -10.498  17.375  63.909  1.00  0.00     0.000 HD 
ENDROOT
BRANCH   4   8
HETATM    8  C   UNL     1     -11.596  14.648  65.603  1.00  0.00    -0.328 C  
HETATM    9  O   UNL     1     -12.674  14.442  65.059  1.00  0.00    -0.587 OA 
BRANCH   8  10
HETATM   10  O   UNL     1     -11.193  14.026  66.752  1.00  0.00    -0.301 OA 
BRANCH  10  11
HETATM   11  C   UNL     1     -12.184  13.901  67.787  1.00  0.00    -0.182 C  
BRANCH  11  12
HETATM   12  C   UNL     1     -11.498  13.679  69.145  1.00  0.00    -0.297 C  
BRANCH  12  13
HETATM   13  O   UNL     1     -11.913  12.456  69.797  1.00  0.00    -0.312 OA 
BRANCH  13  14
HETATM   14  C   UNL     1     -11.672  11.292  69.008  1.00  0.00    -0.342 C  
BRANCH  14  15
HETATM   15  N   UNL     1     -11.057  10.279  69.837  1.00  0.00    -0.283 NA 
HETATM   16  C   UNL     1      -9.720   9.959  69.831  1.00  0.00    -0.235 A  
HETATM   17  N   UNL     1      -9.412   9.092  70.777  1.00  0.00    -0.251 NA 
HETATM   18  C   UNL     1     -10.600   8.843  71.427  1.00  0.00    -0.303 A  
HETATM   19  C   UNL     1     -11.610   9.570  70.847  1.00  0.00    -0.326 A  
HETATM   20  N   UNL     1     -12.870   9.529  71.296  1.00  0.00    -0.337 NA 
HETATM   21  C   UNL     1     -13.107   8.740  72.395  1.00  0.00    -0.391 C  
HETATM   22  N   UNL     1     -14.388   8.798  72.834  1.00  0.00    -1.104 NA 
HETATM   23  N   UNL     1     -12.228   8.013  73.023  1.00  0.00    -0.502 N  
HETATM   24  H2  UNL     1     -15.105   9.372  72.392  1.00  0.00     0.000 HD 
HETATM   25  H1  UNL     1     -14.565   8.211  73.650  1.00  0.00     0.000 HD 
HETATM   26  H   UNL     1     -12.510   7.461  73.833  1.00  0.00     0.000 HD 
HETATM   27  C   UNL     1     -10.898   7.987  72.588  1.00  0.00    -0.368 C  
HETATM   28  O   UNL     1     -10.039   7.308  73.137  1.00  0.00    -0.215 OA 
ENDBRANCH  14  15
ENDBRANCH  13  14
ENDBRANCH  12  13
BRANCH  12  29
HETATM   29  C   UNL     1     -11.817  14.840  70.099  1.00  0.00    -0.307 C  
HETATM   30  O   UNL     1     -13.228  14.905  70.313  1.00  0.00    -0.613 OA 
HETATM   31  H   UNL     1     -13.425  15.623  70.902  1.00  0.00     0.000 HD 
ENDBRANCH  12  29
ENDBRANCH  11  12
ENDBRANCH  10  11
ENDBRANCH   8  10
ENDBRANCH   4   8
TORSDOF 8
ENDMDL
MODEL       31
REMARK 921   NORMALIZED FREE ENERGY PREDICTED BY IDOCK:   -6.20 KCAL/MOL
REMARK 922        TOTAL FREE ENERGY PREDICTED BY IDOCK:  -10.31 KCAL/MOL
REMARK 923 INTER-LIGAND FREE ENERGY PREDICTED BY IDOCK:   -9.26 KCAL/MOL
REMARK 924 INTRA-LIGAND FREE ENERGY PREDICTED BY IDOCK:   -1.06 KCAL/MOL
REMARK 927      BINDING AFFINITY PREDICTED BY RF-SCORE:    0.00 PKD
ROOT
HETATM    1  C   UNL     1     -12.652  12.099  63.854  1.00  0.00    -0.545 C  
HETATM    2  C   UNL     1     -12.252  13.184  64.861  1.00  0.00    -0.477 C  
HETATM    3  C   UNL     1     -12.255  14.555  64.177  1.00  0.00    -0.372 C  
HETATM    4  C   UNL     1     -10.902  12.892  65.563  1.00  0.00    -0.274 C  
HETATM    5  N   UNL     1      -9.788  12.780  64.595  1.00  0.00    -0.549 NA 
HETATM    6  H1  UNL     1      -8.900  12.588  65.057  1.00  0.00     0.000 HD 
HETATM    7  H2  UNL     1      -9.726  13.608  64.003  1.00  0.00     0.000 HD 
ENDROOT
BRANCH   4   8
HETATM    8  C   UNL     1     -11.000  11.635  66.452  1.00  0.00    -0.295 C  
HETATM    9  O   UNL     1     -10.437  10.573  66.216  1.00  0.00    -0.235 OA 
BRANCH   8  10
HETATM   10  O   UNL     1     -11.854  11.826  67.501  1.00  0.00    -0.577 OA 
BRANCH  10  11
HETATM   11  C   UNL     1     -11.301  12.478  68.659  1.00  0.00    -0.288 C  
BRANCH  11  12
HETATM   12  C   UNL     1     -12.095  13.757  68.970  1.00  0.00    -0.322 C  
BRANCH  12  13
HETATM   13  O   UNL     1     -11.474  14.952  68.443  1.00  0.00    -0.290 OA 
BRANCH  13  14
HETATM   14  C   UNL     1     -10.065  14.993  68.663  1.00  0.00    -0.233 C  
BRANCH  14  15
HETATM   15  N   UNL     1      -9.481  15.995  67.799  1.00  0.00    -0.216 NA 
HETATM   16  C   UNL     1      -8.911  15.745  66.573  1.00  0.00    -0.306 A  
HETATM   17  N   UNL     1      -8.577  16.856  65.944  1.00  0.00    -0.517 NA 
HETATM   18  C   UNL     1      -8.950  17.871  66.799  1.00  0.00    -0.261 A  
HETATM   19  C   UNL     1      -9.501  17.341  67.938  1.00  0.00    -0.266 A  
HETATM   20  N   UNL     1      -9.968  18.107  68.930  1.00  0.00    -0.366 NA 
HETATM   21  C   UNL     1      -9.894  19.466  68.746  1.00  0.00    -0.456 C  
HETATM   22  N   UNL     1     -10.443  20.179  69.760  1.00  0.00    -0.490 NA 
HETATM   23  N   UNL     1      -9.395  20.075  67.709  1.00  0.00    -0.354 N  
HETATM   24  H2  UNL     1     -10.869  19.748  70.580  1.00  0.00     0.000 HD 
HETATM   25  H1  UNL     1     -10.388  21.188  69.623  1.00  0.00     0.000 HD 
HETATM   26  H   UNL     1      -9.389  21.094  67.671  1.00  0.00     0.000 HD 
HETATM   27  C   UNL     1      -8.864  19.333  66.647  1.00  0.00    -0.334 C  
HETATM   28  O   UNL     1      -8.371  19.860  65.657  1.00  0.00    -0.343 OA 
ENDBRANCH  14  15
ENDBRANCH  13  14
ENDBRANCH  12  13
BRANCH  12  29
HETATM   29  C   UNL     1     -12.234  13.941  70.489  1.00  0.00    -0.373 C  
HETATM   30  O   UNL     1     -13.443  14.648  70.772  1.00  0.00    -0.519 OA 
HETATM   31  H   UNL     1     -13.528  14.763  71.711  1.00  0.00     0.000 HD 
ENDBRANCH  12  29
ENDBRANCH  11  12
ENDBRANCH  10  11
ENDBRANCH   8  10
ENDBRANCH   4   8
TORSDOF 8
ENDMDL
MODEL       32
REMARK 921   NORMALIZED FREE ENERGY PREDICTED BY IDOCK:   -6.17 KCAL/MOL
REMARK 922        TOTAL FREE ENERGY PREDICTED BY IDOCK:  -10.27 KCAL/MOL
REMARK 923 INTER-LIGAND FREE ENERGY PREDICTED BY IDOCK:   -8.70 KCAL/MOL
REMARK 924 INTRA-LIGAND FREE ENERGY PREDICTED BY IDOCK:   -1.58 KCAL/MOL
REMARK 927      BINDING AFFINITY PREDICTED BY RF-SCORE:    0.00 PKD
ROOT
HETATM    1  C   UNL     1     -13.411   9.260  71.572  1.00  0.00    -0.437 C  
HETATM    2  C   UNL     1     -12.437  10.443  71.634  1.00  0.00    -0.471 C  
HETATM    3  C   UNL     1     -13.209  11.735  71.918  1.00  0.00    -0.468 C  
HETATM    4  C   UNL     1     -11.550  10.566  70.369  1.00  0.00    -0.342 C  
HETATM    5  N   UNL     1     -12.358  10.744  69.142  1.00  0.00    -0.736 NA 
HETATM    6  H1  UNL     1     -11.774  10.825  68.310  1.00  0.00     0.000 HD 
HETATM    7  H2  UNL     1     -12.993  11.538  69.228  1.00  0.00     0.000 HD 
ENDROOT
BRANCH   4   8
HETATM    8  C   UNL     1     -10.597   9.359  70.242  1.00  0.00    -0.250 C  
HETATM    9  O   UNL     1      -9.849   8.969  71.130  1.00  0.00    -0.248 OA 
BRANCH   8  10
HETATM   10  O   UNL     1     -10.635   8.818  68.988  1.00  0.00    -0.222 OA 
BRANCH  10  11
HETATM   11  C   UNL     1      -9.373   8.711  68.304  1.00  0.00    -0.137 C  
BRANCH  11  12
HETATM   12  C   UNL     1      -8.966  10.081  67.738  1.00  0.00    -0.131 C  
BRANCH  12  13
HETATM   13  O   UNL     1      -8.928  10.110  66.293  1.00  0.00    -0.145 OA 
BRANCH  13  14
HETATM   14  C   UNL     1     -10.205   9.890  65.696  1.00  0.00    -0.159 C  
BRANCH  14  15
HETATM   15  N   UNL     1     -10.650  11.115  65.069  1.00  0.00    -0.293 NA 
HETATM   16  C   UNL     1     -10.748  11.316  63.712  1.00  0.00    -0.379 A  
HETATM   17  N   UNL     1     -11.304  12.477  63.421  1.00  0.00    -0.467 NA 
HETATM   18  C   UNL     1     -11.583  13.051  64.642  1.00  0.00    -0.346 A  
HETATM   19  C   UNL     1     -11.178  12.215  65.653  1.00  0.00    -0.335 A  
HETATM   20  N   UNL     1     -11.348  12.520  66.944  1.00  0.00    -0.306 NA 
HETATM   21  C   UNL     1     -11.978  13.709  67.219  1.00  0.00    -0.381 C  
HETATM   22  N   UNL     1     -12.175  13.922  68.543  1.00  0.00    -0.493 NA 
HETATM   23  N   UNL     1     -12.403  14.573  66.344  1.00  0.00    -0.386 N  
HETATM   24  H2  UNL     1     -11.883  13.263  69.265  1.00  0.00     0.000 HD 
HETATM   25  H1  UNL     1     -12.643  14.805  68.748  1.00  0.00     0.000 HD 
HETATM   26  H   UNL     1     -12.862  15.429  66.655  1.00  0.00     0.000 HD 
HETATM   27  C   UNL     1     -12.232  14.329  64.975  1.00  0.00    -0.433 C  
HETATM   28  O   UNL     1     -12.603  15.119  64.115  1.00  0.00    -0.737 OA 
ENDBRANCH  14  15
ENDBRANCH  13  14
ENDBRANCH  12  13
BRANCH  12  29
HETATM   29  C   UNL     1      -7.569  10.471  68.244  1.00  0.00    -0.096 C  
HETATM   30  O   UNL     1      -7.688  11.524  69.202  1.00  0.00    -0.300 OA 
HETATM   31  H   UNL     1      -6.824  11.766  69.514  1.00  0.00     0.000 HD 
ENDBRANCH  12  29
ENDBRANCH  11  12
ENDBRANCH  10  11
ENDBRANCH   8  10
ENDBRANCH   4   8
TORSDOF 8
ENDMDL
MODEL       33
REMARK 921   NORMALIZED FREE ENERGY PREDICTED BY IDOCK:   -6.14 KCAL/MOL
REMARK 922        TOTAL FREE ENERGY PREDICTED BY IDOCK:  -10.22 KCAL/MOL
REMARK 923 INTER-LIGAND FREE ENERGY PREDICTED BY IDOCK:   -8.95 KCAL/MOL
REMARK 924 INTRA-LIGAND FREE ENERGY PREDICTED BY IDOCK:   -1.27 KCAL/MOL
REMARK 927      BINDING AFFINITY PREDICTED BY RF-SCORE:    0.00 PKD
ROOT
HETATM    1  C   UNL     1      -7.041  10.131  64.353  1.00  0.00    -0.111 C  
HETATM    2  C   UNL     1      -8.442   9.621  63.992  1.00  0.00    -0.190 C  
HETATM    3  C   UNL     1      -8.425   9.005  62.590  1.00  0.00    -0.210 C  
HETATM    4  C   UNL     1      -9.538  10.707  64.132  1.00  0.00    -0.300 C  
HETATM    5  N   UNL     1      -9.273  11.875  63.262  1.00  0.00    -0.649 NA 
HETATM    6  H1  UNL     1      -9.995  12.590  63.354  1.00  0.00     0.000 HD 
HETATM    7  H2  UNL     1      -9.153  11.594  62.289  1.00  0.00     0.000 HD 
ENDROOT
BRANCH   4   8
HETATM    8  C   UNL     1      -9.710  11.134  65.605  1.00  0.00    -0.225 C  
HETATM    9  O   UNL     1      -9.165  12.105  66.114  1.00  0.00    -0.220 OA 
BRANCH   8  10
HETATM   10  O   UNL     1     -10.492  10.251  66.296  1.00  0.00    -0.215 OA 
BRANCH  10  11
HETATM   11  C   UNL     1     -10.071   9.947  67.638  1.00  0.00    -0.197 C  
BRANCH  11  12
HETATM   12  C   UNL     1     -11.092  10.501  68.645  1.00  0.00    -0.267 C  
BRANCH  12  13
HETATM   13  O   UNL     1     -10.893  11.901  68.944  1.00  0.00    -0.221 OA 
BRANCH  13  14
HETATM   14  C   UNL     1     -12.086  12.674  68.825  1.00  0.00    -0.114 C  
BRANCH  14  15
HETATM   15  N   UNL     1     -11.839  13.791  67.940  1.00  0.00    -0.365 NA 
HETATM   16  C   UNL     1     -11.272  14.985  68.317  1.00  0.00    -0.299 A  
HETATM   17  N   UNL     1     -11.045  15.775  67.284  1.00  0.00    -0.264 NA 
HETATM   18  C   UNL     1     -11.480  15.059  66.190  1.00  0.00    -0.222 A  
HETATM   19  C   UNL     1     -11.971  13.843  66.595  1.00  0.00    -0.442 A  
HETATM   20  N   UNL     1     -12.443  12.939  65.729  1.00  0.00    -0.555 NA 
HETATM   21  C   UNL     1     -12.390  13.273  64.398  1.00  0.00    -0.348 C  
HETATM   22  N   UNL     1     -12.823  12.287  63.576  1.00  0.00    -0.796 NA 
HETATM   23  N   UNL     1     -11.946  14.393  63.905  1.00  0.00    -0.784 N  
HETATM   24  H2  UNL     1     -13.156  11.383  63.913  1.00  0.00     0.000 HD 
HETATM   25  H1  UNL     1     -12.785  12.535  62.587  1.00  0.00     0.000 HD 
HETATM   26  H   UNL     1     -11.950  14.541  62.895  1.00  0.00     0.000 HD 
HETATM   27  C   UNL     1     -11.464  15.394  64.756  1.00  0.00    -0.336 C  
HETATM   28  O   UNL     1     -11.049  16.469  64.340  1.00  0.00    -0.894 OA 
ENDBRANCH  14  15
ENDBRANCH  13  14
ENDBRANCH  12  13
BRANCH  12  29
HETATM   29  C   UNL     1     -11.004   9.730  69.971  1.00  0.00    -0.277 C  
HETATM   30  O   UNL     1     -11.457   8.389  69.771  1.00  0.00    -0.451 OA 
HETATM   31  H   UNL     1     -11.402   7.912  70.591  1.00  0.00     0.000 HD 
ENDBRANCH  12  29
ENDBRANCH  11  12
ENDBRANCH  10  11
ENDBRANCH   8  10
ENDBRANCH   4   8
TORSDOF 8
ENDMDL
MODEL       34
REMARK 921   NORMALIZED FREE ENERGY PREDICTED BY IDOCK:   -6.11 KCAL/MOL
REMARK 922        TOTAL FREE ENERGY PREDICTED BY IDOCK:  -10.19 KCAL/MOL
REMARK 923 INTER-LIGAND FREE ENERGY PREDICTED BY IDOCK:   -9.88 KCAL/MOL
REMARK 924 INTRA-LIGAND FREE ENERGY PREDICTED BY IDOCK:   -0.31 KCAL/MOL
REMARK 927      BINDING AFFINITY PREDICTED BY RF-SCORE:    0.00 PKD
ROOT
HETATM    1  C   UNL     1     -14.264  14.912  71.286  1.00  0.00    -0.463 C  
HETATM    2  C   UNL     1     -12.933  14.391  71.843  1.00  0.00    -0.426 C  
HETATM    3  C   UNL     1     -12.908  14.555  73.366  1.00  0.00    -0.423 C  
HETATM    4  C   UNL     1     -11.698  15.043  71.172  1.00  0.00    -0.337 C  
HETATM    5  N   UNL     1     -11.686  16.513  71.346  1.00  0.00    -0.613 NA 
HETATM    6  H1  UNL     1     -10.873  16.942  70.904  1.00  0.00     0.000 HD 
HETATM    7  H2  UNL     1     -11.752  16.771  72.330  1.00  0.00     0.000 HD 
ENDROOT
BRANCH   4   8
HETATM    8  C   UNL     1     -11.608  14.655  69.682  1.00  0.00    -0.307 C  
HETATM    9  O   UNL     1     -12.066  13.624  69.205  1.00  0.00    -0.345 OA 
BRANCH   8  10
HETATM   10  O   UNL     1     -10.887  15.569  68.966  1.00  0.00    -0.227 OA 
BRANCH  10  11
HETATM   11  C   UNL     1      -9.467  15.346  68.899  1.00  0.00    -0.219 C  
BRANCH  11  12
HETATM   12  C   UNL     1      -8.924  15.832  67.545  1.00  0.00    -0.194 C  
BRANCH  12  13
HETATM   13  O   UNL     1      -8.477  14.753  66.692  1.00  0.00    -0.199 OA 
BRANCH  13  14
HETATM   14  C   UNL     1      -8.814  13.463  67.200  1.00  0.00    -0.222 C  
BRANCH  14  15
HETATM   15  N   UNL     1      -9.685  12.797  66.258  1.00  0.00    -0.263 NA 
HETATM   16  C   UNL     1      -9.920  11.443  66.221  1.00  0.00    -0.224 A  
HETATM   17  N   UNL     1     -10.856  11.125  65.346  1.00  0.00    -0.194 NA 
HETATM   18  C   UNL     1     -11.248  12.325  64.797  1.00  0.00    -0.318 A  
HETATM   19  C   UNL     1     -10.526  13.351  65.354  1.00  0.00    -0.302 A  
HETATM   20  N   UNL     1     -10.721  14.630  65.013  1.00  0.00    -0.404 NA 
HETATM   21  C   UNL     1     -11.705  14.878  64.088  1.00  0.00    -0.128 C  
HETATM   22  N   UNL     1     -11.891  16.198  63.839  1.00  0.00    -1.382 NA 
HETATM   23  N   UNL     1     -12.448  13.987  63.498  1.00  0.00    -1.099 N  
HETATM   24  H2  UNL     1     -11.352  16.934  64.294  1.00  0.00     0.000 HD 
HETATM   25  H1  UNL     1     -12.621  16.383  63.151  1.00  0.00     0.000 HD 
HETATM   26  H   UNL     1     -13.154  14.279  62.823  1.00  0.00     0.000 HD 
HETATM   27  C   UNL     1     -12.278  12.628  63.788  1.00  0.00    -0.514 C  
HETATM   28  O   UNL     1     -12.943  11.751  63.249  1.00  0.00    -0.633 OA 
ENDBRANCH  14  15
ENDBRANCH  13  14
ENDBRANCH  12  13
BRANCH  12  29
HETATM   29  C   UNL     1      -7.730  16.775  67.759  1.00  0.00    -0.168 C  
HETATM   30  O   UNL     1      -8.199  18.029  68.257  1.00  0.00    -0.274 OA 
HETATM   31  H   UNL     1      -7.461  18.612  68.389  1.00  0.00     0.000 HD 
ENDBRANCH  12  29
ENDBRANCH  11  12
ENDBRANCH  10  11
ENDBRANCH   8  10
ENDBRANCH   4   8
TORSDOF 8
ENDMDL
MODEL       35
REMARK 921   NORMALIZED FREE ENERGY PREDICTED BY IDOCK:   -6.11 KCAL/MOL
REMARK 922        TOTAL FREE ENERGY PREDICTED BY IDOCK:  -10.18 KCAL/MOL
REMARK 923 INTER-LIGAND FREE ENERGY PREDICTED BY IDOCK:   -9.68 KCAL/MOL
REMARK 924 INTRA-LIGAND FREE ENERGY PREDICTED BY IDOCK:   -0.51 KCAL/MOL
REMARK 927      BINDING AFFINITY PREDICTED BY RF-SCORE:    0.00 PKD
ROOT
HETATM    1  C   UNL     1      -9.922  10.404  64.956  1.00  0.00    -0.399 C  
HETATM    2  C   UNL     1     -10.355  10.902  63.572  1.00  0.00    -0.342 C  
HETATM    3  C   UNL     1      -9.183  10.789  62.591  1.00  0.00    -0.349 C  
HETATM    4  C   UNL     1     -10.948  12.334  63.599  1.00  0.00    -0.471 C  
HETATM    5  N   UNL     1      -9.980  13.323  64.125  1.00  0.00    -0.760 NA 
HETATM    6  H1  UNL     1     -10.371  14.265  64.142  1.00  0.00     0.000 HD 
HETATM    7  H2  UNL     1      -9.103  13.296  63.605  1.00  0.00     0.000 HD 
ENDROOT
BRANCH   4   8
HETATM    8  C   UNL     1     -12.271  12.369  64.391  1.00  0.00    -0.437 C  
HETATM    9  O   UNL     1     -13.379  12.187  63.900  1.00  0.00    -0.711 OA 
BRANCH   8  10
HETATM   10  O   UNL     1     -12.065  12.701  65.700  1.00  0.00    -0.438 OA 
BRANCH  10  11
HETATM   11  C   UNL     1     -12.374  14.058  66.067  1.00  0.00    -0.473 C  
BRANCH  11  12
HETATM   12  C   UNL     1     -11.166  14.699  66.769  1.00  0.00    -0.344 C  
BRANCH  12  13
HETATM   13  O   UNL     1     -10.288  13.730  67.386  1.00  0.00    -0.249 OA 
BRANCH  13  14
HETATM   14  C   UNL     1     -10.297  13.795  68.811  1.00  0.00    -0.192 C  
BRANCH  14  15
HETATM   15  N   UNL     1     -10.914  12.596  69.334  1.00  0.00    -0.060 NA 
HETATM   16  C   UNL     1     -10.544  11.312  69.010  1.00  0.00    -0.208 A  
HETATM   17  N   UNL     1     -11.187  10.413  69.731  1.00  0.00    -0.272 NA 
HETATM   18  C   UNL     1     -12.006  11.147  70.562  1.00  0.00    -0.380 A  
HETATM   19  C   UNL     1     -11.840  12.487  70.314  1.00  0.00    -0.223 A  
HETATM   20  N   UNL     1     -12.503  13.427  70.997  1.00  0.00    -0.371 NA 
HETATM   21  C   UNL     1     -13.348  12.989  71.987  1.00  0.00    -0.492 C  
HETATM   22  N   UNL     1     -13.936  13.996  72.679  1.00  0.00    -0.682 NA 
HETATM   23  N   UNL     1     -13.580  11.749  72.306  1.00  0.00    -0.475 N  
HETATM   24  H2  UNL     1     -13.766  14.983  72.483  1.00  0.00     0.000 HD 
HETATM   25  H1  UNL     1     -14.564  13.672  73.414  1.00  0.00     0.000 HD 
HETATM   26  H   UNL     1     -14.229  11.531  73.063  1.00  0.00     0.000 HD 
HETATM   27  C   UNL     1     -12.940  10.714  71.614  1.00  0.00    -0.477 C  
HETATM   28  O   UNL     1     -13.137   9.532  71.869  1.00  0.00    -0.365 OA 
ENDBRANCH  14  15
ENDBRANCH  13  14
ENDBRANCH  12  13
BRANCH  12  29
HETATM   29  C   UNL     1     -11.639  15.659  67.871  1.00  0.00    -0.190 C  
HETATM   30  O   UNL     1     -10.972  16.914  67.726  1.00  0.00    -0.315 OA 
HETATM   31  H   UNL     1     -11.264  17.508  68.408  1.00  0.00     0.000 HD 
ENDBRANCH  12  29
ENDBRANCH  11  12
ENDBRANCH  10  11
ENDBRANCH   8  10
ENDBRANCH   4   8
TORSDOF 8
ENDMDL
MODEL       36
REMARK 921   NORMALIZED FREE ENERGY PREDICTED BY IDOCK:   -6.10 KCAL/MOL
REMARK 922        TOTAL FREE ENERGY PREDICTED BY IDOCK:  -10.17 KCAL/MOL
REMARK 923 INTER-LIGAND FREE ENERGY PREDICTED BY IDOCK:   -8.91 KCAL/MOL
REMARK 924 INTRA-LIGAND FREE ENERGY PREDICTED BY IDOCK:   -1.26 KCAL/MOL
REMARK 927      BINDING AFFINITY PREDICTED BY RF-SCORE:    0.00 PKD
ROOT
HETATM    1  C   UNL     1     -14.373  15.161  71.809  1.00  0.00    -0.696 C  
HETATM    2  C   UNL     1     -13.037  14.738  72.433  1.00  0.00    -0.463 C  
HETATM    3  C   UNL     1     -12.834  15.468  73.765  1.00  0.00    -0.680 C  
HETATM    4  C   UNL     1     -11.832  14.932  71.479  1.00  0.00    -0.361 C  
HETATM    5  N   UNL     1     -11.679  16.344  71.062  1.00  0.00    -0.597 NA 
HETATM    6  H1  UNL     1     -10.885  16.472  70.434  1.00  0.00     0.000 HD 
HETATM    7  H2  UNL     1     -11.616  16.965  71.869  1.00  0.00     0.000 HD 
ENDROOT
BRANCH   4   8
HETATM    8  C   UNL     1     -11.937  13.996  70.258  1.00  0.00    -0.339 C  
HETATM    9  O   UNL     1     -12.528  12.923  70.255  1.00  0.00    -0.236 OA 
BRANCH   8  10
HETATM   10  O   UNL     1     -11.225  14.474  69.194  1.00  0.00    -0.245 OA 
BRANCH  10  11
HETATM   11  C   UNL     1     -11.956  14.646  67.967  1.00  0.00    -0.257 C  
BRANCH  11  12
HETATM   12  C   UNL     1     -11.047  15.277  66.899  1.00  0.00    -0.288 C  
BRANCH  12  13
HETATM   13  O   UNL     1     -11.258  14.729  65.578  1.00  0.00    -0.329 OA 
BRANCH  13  14
HETATM   14  C   UNL     1     -12.229  13.684  65.555  1.00  0.00    -0.443 C  
BRANCH  14  15
HETATM   15  N   UNL     1     -11.560  12.423  65.323  1.00  0.00    -0.359 NA 
HETATM   16  C   UNL     1     -10.944  12.060  64.149  1.00  0.00    -0.360 A  
HETATM   17  N   UNL     1     -10.303  10.912  64.258  1.00  0.00    -0.363 NA 
HETATM   18  C   UNL     1     -10.509  10.515  65.561  1.00  0.00    -0.150 A  
HETATM   19  C   UNL     1     -11.284  11.441  66.213  1.00  0.00    -0.161 A  
HETATM   20  N   UNL     1     -11.621  11.312  67.501  1.00  0.00    -0.559 NA 
HETATM   21  C   UNL     1     -11.130  10.211  68.159  1.00  0.00    -0.230 C  
HETATM   22  N   UNL     1     -11.457  10.178  69.474  1.00  0.00    -0.395 NA 
HETATM   23  N   UNL     1     -10.389   9.275  67.642  1.00  0.00    -0.237 N  
HETATM   24  H2  UNL     1     -12.013  10.901  69.930  1.00  0.00     0.000 HD 
HETATM   25  H1  UNL     1     -11.093   9.361  69.963  1.00  0.00     0.000 HD 
HETATM   26  H   UNL     1     -10.075   8.496  68.221  1.00  0.00     0.000 HD 
HETATM   27  C   UNL     1     -10.022   9.334  66.292  1.00  0.00    -0.286 C  
HETATM   28  O   UNL     1      -9.338   8.469  65.757  1.00  0.00    -0.195 OA 
ENDBRANCH  14  15
ENDBRANCH  13  14
ENDBRANCH  12  13
BRANCH  12  29
HETATM   29  C   UNL     1      -9.570  15.056  67.260  1.00  0.00    -0.207 C  
HETATM   30  O   UNL     1      -8.907  14.413  66.169  1.00  0.00    -0.470 OA 
HETATM   31  H   UNL     1      -7.994  14.276  66.392  1.00  0.00     0.000 HD 
ENDBRANCH  12  29
ENDBRANCH  11  12
ENDBRANCH  10  11
ENDBRANCH   8  10
ENDBRANCH   4   8
TORSDOF 8
ENDMDL
MODEL       37
REMARK 921   NORMALIZED FREE ENERGY PREDICTED BY IDOCK:   -6.09 KCAL/MOL
REMARK 922        TOTAL FREE ENERGY PREDICTED BY IDOCK:  -10.16 KCAL/MOL
REMARK 923 INTER-LIGAND FREE ENERGY PREDICTED BY IDOCK:   -9.19 KCAL/MOL
REMARK 924 INTRA-LIGAND FREE ENERGY PREDICTED BY IDOCK:   -0.97 KCAL/MOL
REMARK 927      BINDING AFFINITY PREDICTED BY RF-SCORE:    0.00 PKD
ROOT
HETATM    1  C   UNL     1      -9.736   5.338  71.797  1.00  0.00    -0.206 C  
HETATM    2  C   UNL     1     -10.013   6.845  71.878  1.00  0.00    -0.183 C  
HETATM    3  C   UNL     1     -10.210   7.257  73.341  1.00  0.00    -0.394 C  
HETATM    4  C   UNL     1     -11.198   7.294  70.987  1.00  0.00    -0.266 C  
HETATM    5  N   UNL     1     -12.457   6.609  71.356  1.00  0.00    -0.314 NA 
HETATM    6  H1  UNL     1     -13.237   6.905  70.769  1.00  0.00     0.000 HD 
HETATM    7  H2  UNL     1     -12.671   6.733  72.345  1.00  0.00     0.000 HD 
ENDROOT
BRANCH   4   8
HETATM    8  C   UNL     1     -10.871   7.098  69.492  1.00  0.00    -0.225 C  
HETATM    9  O   UNL     1     -11.385   6.248  68.775  1.00  0.00    -0.356 OA 
BRANCH   8  10
HETATM   10  O   UNL     1      -9.881   7.944  69.079  1.00  0.00    -0.164 OA 
BRANCH  10  11
HETATM   11  C   UNL     1     -10.105   9.346  69.313  1.00  0.00    -0.196 C  
BRANCH  11  12
HETATM   12  C   UNL     1      -9.738  10.153  68.057  1.00  0.00    -0.142 C  
BRANCH  12  13
HETATM   13  O   UNL     1     -10.047  11.561  68.176  1.00  0.00    -0.181 OA 
BRANCH  13  14
HETATM   14  C   UNL     1     -11.446  11.832  68.121  1.00  0.00    -0.316 C  
BRANCH  14  15
HETATM   15  N   UNL     1     -11.664  13.035  67.350  1.00  0.00    -0.361 NA 
HETATM   16  C   UNL     1     -11.503  14.316  67.822  1.00  0.00    -0.329 A  
HETATM   17  N   UNL     1     -11.642  15.219  66.870  1.00  0.00    -0.154 NA 
HETATM   18  C   UNL     1     -11.900  14.491  65.729  1.00  0.00    -0.327 A  
HETATM   19  C   UNL     1     -11.917  13.151  66.025  1.00  0.00    -0.433 A  
HETATM   20  N   UNL     1     -12.127  12.215  65.093  1.00  0.00    -0.420 NA 
HETATM   21  C   UNL     1     -12.300  12.657  63.804  1.00  0.00    -0.478 C  
HETATM   22  N   UNL     1     -12.443  11.654  62.904  1.00  0.00    -0.845 NA 
HETATM   23  N   UNL     1     -12.302  13.898  63.411  1.00  0.00    -1.139 N  
HETATM   24  H2  UNL     1     -12.422  10.666  63.159  1.00  0.00     0.000 HD 
HETATM   25  H1  UNL     1     -12.572  11.981  61.947  1.00  0.00     0.000 HD 
HETATM   26  H   UNL     1     -12.439  14.119  62.425  1.00  0.00     0.000 HD 
HETATM   27  C   UNL     1     -12.115  14.929  64.340  1.00  0.00    -0.401 C  
HETATM   28  O   UNL     1     -12.123  16.112  64.021  1.00  0.00    -0.889 OA 
ENDBRANCH  14  15
ENDBRANCH  13  14
ENDBRANCH  12  13
BRANCH  12  29
HETATM   29  C   UNL     1     -10.502   9.615  66.838  1.00  0.00    -0.212 C  
HETATM   30  O   UNL     1      -9.931  10.155  65.644  1.00  0.00    -0.257 OA 
HETATM   31  H   UNL     1     -10.403   9.822  64.890  1.00  0.00     0.000 HD 
ENDBRANCH  12  29
ENDBRANCH  11  12
ENDBRANCH  10  11
ENDBRANCH   8  10
ENDBRANCH   4   8
TORSDOF 8
ENDMDL
MODEL       38
REMARK 921   NORMALIZED FREE ENERGY PREDICTED BY IDOCK:   -6.09 KCAL/MOL
REMARK 922        TOTAL FREE ENERGY PREDICTED BY IDOCK:  -10.16 KCAL/MOL
REMARK 923 INTER-LIGAND FREE ENERGY PREDICTED BY IDOCK:   -9.50 KCAL/MOL
REMARK 924 INTRA-LIGAND FREE ENERGY PREDICTED BY IDOCK:   -0.66 KCAL/MOL
REMARK 927      BINDING AFFINITY PREDICTED BY RF-SCORE:    0.00 PKD
ROOT
HETATM    1  C   UNL     1     -10.875   6.854  67.176  1.00  0.00    -0.447 C  
HETATM    2  C   UNL     1      -9.930   8.058  67.269  1.00  0.00    -0.282 C  
HETATM    3  C   UNL     1      -9.076   8.146  66.000  1.00  0.00    -0.218 C  
HETATM    4  C   UNL     1      -9.059   8.049  68.551  1.00  0.00    -0.136 C  
HETATM    5  N   UNL     1      -8.214   6.837  68.638  1.00  0.00    -0.120 NA 
HETATM    6  H1  UNL     1      -7.642   6.832  69.481  1.00  0.00     0.000 HD 
HETATM    7  H2  UNL     1      -7.642   6.723  67.801  1.00  0.00     0.000 HD 
ENDROOT
BRANCH   4   8
HETATM    8  C   UNL     1      -9.931   8.216  69.813  1.00  0.00    -0.191 C  
HETATM    9  O   UNL     1     -10.358   7.287  70.488  1.00  0.00    -0.203 OA 
BRANCH   8  10
HETATM   10  O   UNL     1     -10.232   9.528  70.047  1.00  0.00    -0.210 OA 
BRANCH  10  11
HETATM   11  C   UNL     1     -11.338   9.778  70.933  1.00  0.00    -0.365 C  
BRANCH  11  12
HETATM   12  C   UNL     1     -12.325  10.756  70.276  1.00  0.00    -0.341 C  
BRANCH  12  13
HETATM   13  O   UNL     1     -11.688  11.675  69.358  1.00  0.00    -0.284 OA 
BRANCH  13  14
HETATM   14  C   UNL     1     -12.001  11.407  67.993  1.00  0.00    -0.090 C  
BRANCH  14  15
HETATM   15  N   UNL     1     -12.014  12.653  67.258  1.00  0.00    -0.467 NA 
HETATM   16  C   UNL     1     -11.703  13.883  67.786  1.00  0.00    -0.366 A  
HETATM   17  N   UNL     1     -11.670  14.826  66.863  1.00  0.00    -0.343 NA 
HETATM   18  C   UNL     1     -11.969  14.177  65.685  1.00  0.00    -0.396 A  
HETATM   19  C   UNL     1     -12.184  12.843  65.930  1.00  0.00    -0.407 A  
HETATM   20  N   UNL     1     -12.474  11.975  64.954  1.00  0.00    -0.362 NA 
HETATM   21  C   UNL     1     -12.522  12.477  63.676  1.00  0.00    -0.470 C  
HETATM   22  N   UNL     1     -12.756  11.532  62.734  1.00  0.00    -0.746 NA 
HETATM   23  N   UNL     1     -12.334  13.718  63.331  1.00  0.00    -1.100 N  
HETATM   24  H2  UNL     1     -12.884  10.544  62.952  1.00  0.00     0.000 HD 
HETATM   25  H1  UNL     1     -12.792  11.904  61.785  1.00  0.00     0.000 HD 
HETATM   26  H   UNL     1     -12.392  13.987  62.349  1.00  0.00     0.000 HD 
HETATM   27  C   UNL     1     -12.055  14.684  64.305  1.00  0.00    -0.415 C  
HETATM   28  O   UNL     1     -11.884  15.866  64.031  1.00  0.00    -0.608 OA 
ENDBRANCH  14  15
ENDBRANCH  13  14
ENDBRANCH  12  13
BRANCH  12  29
HETATM   29  C   UNL     1     -13.035  11.596  71.349  1.00  0.00    -0.324 C  
HETATM   30  O   UNL     1     -13.387  10.757  72.452  1.00  0.00    -0.606 OA 
HETATM   31  H   UNL     1     -13.826  11.276  73.115  1.00  0.00     0.000 HD 
ENDBRANCH  12  29
ENDBRANCH  11  12
ENDBRANCH  10  11
ENDBRANCH   8  10
ENDBRANCH   4   8
TORSDOF 8
ENDMDL
MODEL       39
REMARK 921   NORMALIZED FREE ENERGY PREDICTED BY IDOCK:   -6.09 KCAL/MOL
REMARK 922        TOTAL FREE ENERGY PREDICTED BY IDOCK:  -10.15 KCAL/MOL
REMARK 923 INTER-LIGAND FREE ENERGY PREDICTED BY IDOCK:   -8.91 KCAL/MOL
REMARK 924 INTRA-LIGAND FREE ENERGY PREDICTED BY IDOCK:   -1.24 KCAL/MOL
REMARK 927      BINDING AFFINITY PREDICTED BY RF-SCORE:    0.00 PKD
ROOT
HETATM    1  C   UNL     1     -10.252   8.738  71.672  1.00  0.00    -0.394 C  
HETATM    2  C   UNL     1     -11.637   8.571  71.034  1.00  0.00    -0.317 C  
HETATM    3  C   UNL     1     -12.626   9.547  71.678  1.00  0.00    -0.476 C  
HETATM    4  C   UNL     1     -12.154   7.111  71.079  1.00  0.00    -0.350 C  
HETATM    5  N   UNL     1     -12.260   6.605  72.466  1.00  0.00    -0.508 NA 
HETATM    6  H1  UNL     1     -12.601   5.644  72.495  1.00  0.00     0.000 HD 
HETATM    7  H2  UNL     1     -12.836   7.219  73.042  1.00  0.00     0.000 HD 
ENDROOT
BRANCH   4   8
HETATM    8  C   UNL     1     -11.276   6.186  70.211  1.00  0.00    -0.369 C  
HETATM    9  O   UNL     1     -10.454   5.392  70.655  1.00  0.00    -0.257 OA 
BRANCH   8  10
HETATM   10  O   UNL     1     -11.473   6.410  68.878  1.00  0.00    -0.314 OA 
BRANCH  10  11
HETATM   11  C   UNL     1     -10.300   6.369  68.046  1.00  0.00    -0.193 C  
BRANCH  11  12
HETATM   12  C   UNL     1      -9.648   7.760  67.991  1.00  0.00    -0.150 C  
BRANCH  12  13
HETATM   13  O   UNL     1     -10.587   8.816  67.685  1.00  0.00    -0.253 OA 
BRANCH  13  14
HETATM   14  C   UNL     1     -10.094  10.114  68.012  1.00  0.00    -0.157 C  
BRANCH  14  15
HETATM   15  N   UNL     1     -10.885  11.108  67.320  1.00  0.00    -0.258 NA 
HETATM   16  C   UNL     1     -11.638  12.082  67.931  1.00  0.00    -0.337 A  
HETATM   17  N   UNL     1     -12.152  12.932  67.061  1.00  0.00    -0.413 NA 
HETATM   18  C   UNL     1     -11.707  12.492  65.834  1.00  0.00    -0.426 A  
HETATM   19  C   UNL     1     -10.933  11.369  65.994  1.00  0.00    -0.226 A  
HETATM   20  N   UNL     1     -10.356  10.746  64.960  1.00  0.00    -0.303 NA 
HETATM   21  C   UNL     1     -10.553  11.299  63.719  1.00  0.00    -0.392 C  
HETATM   22  N   UNL     1      -9.887  10.653  62.729  1.00  0.00    -0.650 NA 
HETATM   23  N   UNL     1     -11.263  12.356  63.453  1.00  0.00    -0.623 N  
HETATM   24  H2  UNL     1      -9.298   9.837  62.891  1.00  0.00     0.000 HD 
HETATM   25  H1  UNL     1     -10.034  11.064  61.807  1.00  0.00     0.000 HD 
HETATM   26  H   UNL     1     -11.344  12.686  62.491  1.00  0.00     0.000 HD 
HETATM   27  C   UNL     1     -11.917  13.041  64.484  1.00  0.00    -0.394 C  
HETATM   28  O   UNL     1     -12.608  14.032  64.281  1.00  0.00    -0.670 OA 
ENDBRANCH  14  15
ENDBRANCH  13  14
ENDBRANCH  12  13
BRANCH  12  29
HETATM   29  C   UNL     1      -8.552   7.792  66.915  1.00  0.00    -0.130 C  
HETATM   30  O   UNL     1      -9.150   7.998  65.634  1.00  0.00    -0.352 OA 
HETATM   31  H   UNL     1      -8.473   8.017  64.969  1.00  0.00     0.000 HD 
ENDBRANCH  12  29
ENDBRANCH  11  12
ENDBRANCH  10  11
ENDBRANCH   8  10
ENDBRANCH   4   8
TORSDOF 8
ENDMDL
MODEL       40
REMARK 921   NORMALIZED FREE ENERGY PREDICTED BY IDOCK:   -6.09 KCAL/MOL
REMARK 922        TOTAL FREE ENERGY PREDICTED BY IDOCK:  -10.15 KCAL/MOL
REMARK 923 INTER-LIGAND FREE ENERGY PREDICTED BY IDOCK:   -9.06 KCAL/MOL
REMARK 924 INTRA-LIGAND FREE ENERGY PREDICTED BY IDOCK:   -1.09 KCAL/MOL
REMARK 927      BINDING AFFINITY PREDICTED BY RF-SCORE:    0.00 PKD
ROOT
HETATM    1  C   UNL     1     -13.727   9.535  71.981  1.00  0.00    -0.435 C  
HETATM    2  C   UNL     1     -12.687  10.657  71.883  1.00  0.00    -0.410 C  
HETATM    3  C   UNL     1     -13.379  12.018  72.008  1.00  0.00    -0.447 C  
HETATM    4  C   UNL     1     -11.815  10.567  70.606  1.00  0.00    -0.360 C  
HETATM    5  N   UNL     1     -12.631  10.635  69.373  1.00  0.00    -0.678 NA 
HETATM    6  H1  UNL     1     -12.057  10.576  68.533  1.00  0.00     0.000 HD 
HETATM    7  H2  UNL     1     -13.218  11.469  69.363  1.00  0.00     0.000 HD 
ENDROOT
BRANCH   4   8
HETATM    8  C   UNL     1     -10.934   9.300  70.625  1.00  0.00    -0.276 C  
HETATM    9  O   UNL     1     -10.226   8.962  71.565  1.00  0.00    -0.270 OA 
BRANCH   8  10
HETATM   10  O   UNL     1     -10.983   8.635  69.432  1.00  0.00    -0.157 OA 
BRANCH  10  11
HETATM   11  C   UNL     1      -9.728   8.461  68.750  1.00  0.00    -0.164 C  
BRANCH  11  12
HETATM   12  C   UNL     1      -9.975   8.231  67.250  1.00  0.00    -0.224 C  
BRANCH  12  13
HETATM   13  O   UNL     1     -10.518   9.391  66.579  1.00  0.00    -0.215 OA 
BRANCH  13  14
HETATM   14  C   UNL     1      -9.730   9.814  65.467  1.00  0.00    -0.312 C  
BRANCH  14  15
HETATM   15  N   UNL     1     -10.322  11.002  64.894  1.00  0.00    -0.305 NA 
HETATM   16  C   UNL     1     -10.481  11.234  63.549  1.00  0.00    -0.395 A  
HETATM   17  N   UNL     1     -11.166  12.337  63.312  1.00  0.00    -0.393 NA 
HETATM   18  C   UNL     1     -11.468  12.839  64.559  1.00  0.00    -0.342 A  
HETATM   19  C   UNL     1     -10.946  12.021  65.529  1.00  0.00    -0.298 A  
HETATM   20  N   UNL     1     -11.109  12.266  66.834  1.00  0.00    -0.273 NA 
HETATM   21  C   UNL     1     -11.854  13.371  67.166  1.00  0.00    -0.382 C  
HETATM   22  N   UNL     1     -12.032  13.520  68.501  1.00  0.00    -0.363 NA 
HETATM   23  N   UNL     1     -12.394  14.211  66.332  1.00  0.00    -0.467 N  
HETATM   24  H2  UNL     1     -11.651  12.875  69.192  1.00  0.00     0.000 HD 
HETATM   25  H1  UNL     1     -12.585  14.341  68.748  1.00  0.00     0.000 HD 
HETATM   26  H   UNL     1     -12.931  15.003  66.684  1.00  0.00     0.000 HD 
HETATM   27  C   UNL     1     -12.239  14.030  64.952  1.00  0.00    -0.437 C  
HETATM   28  O   UNL     1     -12.717  14.801  64.129  1.00  0.00    -0.758 OA 
ENDBRANCH  14  15
ENDBRANCH  13  14
ENDBRANCH  12  13
BRANCH  12  29
HETATM   29  C   UNL     1     -10.965   7.074  67.045  1.00  0.00    -0.287 C  
HETATM   30  O   UNL     1     -10.333   6.038  66.290  1.00  0.00    -0.407 OA 
HETATM   31  H   UNL     1     -10.946   5.323  66.163  1.00  0.00     0.000 HD 
ENDBRANCH  12  29
ENDBRANCH  11  12
ENDBRANCH  10  11
ENDBRANCH   8  10
ENDBRANCH   4   8
TORSDOF 8
ENDMDL
MODEL       41
REMARK 921   NORMALIZED FREE ENERGY PREDICTED BY IDOCK:   -6.06 KCAL/MOL
REMARK 922        TOTAL FREE ENERGY PREDICTED BY IDOCK:  -10.11 KCAL/MOL
REMARK 923 INTER-LIGAND FREE ENERGY PREDICTED BY IDOCK:   -8.79 KCAL/MOL
REMARK 924 INTRA-LIGAND FREE ENERGY PREDICTED BY IDOCK:   -1.32 KCAL/MOL
REMARK 927      BINDING AFFINITY PREDICTED BY RF-SCORE:    0.00 PKD
ROOT
HETATM    1  C   UNL     1     -14.038  14.631  71.537  1.00  0.00    -0.527 C  
HETATM    2  C   UNL     1     -12.513  14.705  71.680  1.00  0.00    -0.410 C  
HETATM    3  C   UNL     1     -12.130  15.920  72.531  1.00  0.00    -0.611 C  
HETATM    4  C   UNL     1     -11.775  14.699  70.317  1.00  0.00    -0.297 C  
HETATM    5  N   UNL     1     -12.179  15.840  69.465  1.00  0.00    -0.489 NA 
HETATM    6  H1  UNL     1     -11.693  15.836  68.568  1.00  0.00     0.000 HD 
HETATM    7  H2  UNL     1     -12.054  16.728  69.949  1.00  0.00     0.000 HD 
ENDROOT
BRANCH   4   8
HETATM    8  C   UNL     1     -11.974  13.355  69.586  1.00  0.00    -0.324 C  
HETATM    9  O   UNL     1     -11.819  12.255  70.102  1.00  0.00    -0.328 OA 
BRANCH   8  10
HETATM   10  O   UNL     1     -12.275  13.541  68.266  1.00  0.00    -0.313 OA 
BRANCH  10  11
HETATM   11  C   UNL     1     -11.415  12.881  67.320  1.00  0.00    -0.336 C  
BRANCH  11  12
HETATM   12  C   UNL     1     -11.023  13.856  66.199  1.00  0.00    -0.293 C  
BRANCH  12  13
HETATM   13  O   UNL     1     -11.276  15.240  66.535  1.00  0.00    -0.316 OA 
BRANCH  13  14
HETATM   14  C   UNL     1     -10.544  16.155  65.723  1.00  0.00    -0.334 C  
BRANCH  14  15
HETATM   15  N   UNL     1      -9.969  17.179  66.567  1.00  0.00    -0.290 NA 
HETATM   16  C   UNL     1     -10.688  18.095  67.298  1.00  0.00    -0.315 A  
HETATM   17  N   UNL     1      -9.914  18.826  68.078  1.00  0.00    -0.337 NA 
HETATM   18  C   UNL     1      -8.638  18.360  67.846  1.00  0.00    -0.272 A  
HETATM   19  C   UNL     1      -8.673  17.351  66.916  1.00  0.00    -0.246 A  
HETATM   20  N   UNL     1      -7.570  16.706  66.519  1.00  0.00    -0.281 NA 
HETATM   21  C   UNL     1      -6.389  17.083  67.111  1.00  0.00    -0.180 C  
HETATM   22  N   UNL     1      -5.325  16.345  66.710  1.00  0.00    -0.334 NA 
HETATM   23  N   UNL     1      -6.241  18.021  68.001  1.00  0.00    -0.173 N  
HETATM   24  H2  UNL     1      -5.395  15.584  66.035  1.00  0.00     0.000 HD 
HETATM   25  H1  UNL     1      -4.448  16.625  67.149  1.00  0.00     0.000 HD 
HETATM   26  H   UNL     1      -5.315  18.222  68.379  1.00  0.00     0.000 HD 
HETATM   27  C   UNL     1      -7.350  18.755  68.440  1.00  0.00    -0.291 C  
HETATM   28  O   UNL     1      -7.259  19.656  69.265  1.00  0.00    -0.360 OA 
ENDBRANCH  14  15
ENDBRANCH  13  14
ENDBRANCH  12  13
BRANCH  12  29
HETATM   29  C   UNL     1     -11.812  13.541  64.919  1.00  0.00    -0.374 C  
HETATM   30  O   UNL     1     -13.202  13.788  65.146  1.00  0.00    -0.757 OA 
HETATM   31  H   UNL     1     -13.690  13.593  64.355  1.00  0.00     0.000 HD 
ENDBRANCH  12  29
ENDBRANCH  11  12
ENDBRANCH  10  11
ENDBRANCH   8  10
ENDBRANCH   4   8
TORSDOF 8
ENDMDL
MODEL       42
REMARK 921   NORMALIZED FREE ENERGY PREDICTED BY IDOCK:   -6.05 KCAL/MOL
REMARK 922        TOTAL FREE ENERGY PREDICTED BY IDOCK:  -10.10 KCAL/MOL
REMARK 923 INTER-LIGAND FREE ENERGY PREDICTED BY IDOCK:   -9.37 KCAL/MOL
REMARK 924 INTRA-LIGAND FREE ENERGY PREDICTED BY IDOCK:   -0.74 KCAL/MOL
REMARK 927      BINDING AFFINITY PREDICTED BY RF-SCORE:    0.00 PKD
ROOT
HETATM    1  C   UNL     1      -8.487  20.430  67.300  1.00  0.00    -0.405 C  
HETATM    2  C   UNL     1      -9.327  19.190  67.629  1.00  0.00    -0.357 C  
HETATM    3  C   UNL     1     -10.034  19.385  68.975  1.00  0.00    -0.477 C  
HETATM    4  C   UNL     1      -8.509  17.875  67.592  1.00  0.00    -0.234 C  
HETATM    5  N   UNL     1      -7.385  17.895  68.555  1.00  0.00    -0.259 NA 
HETATM    6  H1  UNL     1      -6.847  17.029  68.530  1.00  0.00     0.000 HD 
HETATM    7  H2  UNL     1      -7.709  18.103  69.499  1.00  0.00     0.000 HD 
ENDROOT
BRANCH   4   8
HETATM    8  C   UNL     1      -8.016  17.570  66.162  1.00  0.00    -0.226 C  
HETATM    9  O   UNL     1      -7.177  18.230  65.562  1.00  0.00    -0.536 OA 
BRANCH   8  10
HETATM   10  O   UNL     1      -8.686  16.512  65.614  1.00  0.00    -0.401 OA 
BRANCH  10  11
HETATM   11  C   UNL     1      -9.417  15.679  66.532  1.00  0.00    -0.274 C  
BRANCH  11  12
HETATM   12  C   UNL     1     -10.923  15.772  66.240  1.00  0.00    -0.163 C  
BRANCH  12  13
HETATM   13  O   UNL     1     -11.718  14.891  67.066  1.00  0.00    -0.348 OA 
BRANCH  13  14
HETATM   14  C   UNL     1     -12.259  13.786  66.343  1.00  0.00    -0.436 C  
BRANCH  14  15
HETATM   15  N   UNL     1     -11.720  12.558  66.883  1.00  0.00    -0.432 NA 
HETATM   16  C   UNL     1     -11.908  12.112  68.170  1.00  0.00    -0.299 A  
HETATM   17  N   UNL     1     -11.414  10.902  68.353  1.00  0.00    -0.330 NA 
HETATM   18  C   UNL     1     -10.887  10.547  67.131  1.00  0.00    -0.259 A  
HETATM   19  C   UNL     1     -11.071  11.566  66.230  1.00  0.00    -0.263 A  
HETATM   20  N   UNL     1     -10.669  11.477  64.958  1.00  0.00    -0.293 NA 
HETATM   21  C   UNL     1     -10.080  10.296  64.579  1.00  0.00    -0.216 C  
HETATM   22  N   UNL     1      -9.757  10.252  63.263  1.00  0.00    -0.444 NA 
HETATM   23  N   UNL     1      -9.857   9.268  65.345  1.00  0.00    -0.444 N  
HETATM   24  H2  UNL     1      -9.936  11.021  62.617  1.00  0.00     0.000 HD 
HETATM   25  H1  UNL     1      -9.319   9.375  62.981  1.00  0.00     0.000 HD 
HETATM   26  H   UNL     1      -9.411   8.435  64.962  1.00  0.00     0.000 HD 
HETATM   27  C   UNL     1     -10.227   9.305  66.695  1.00  0.00    -0.253 C  
HETATM   28  O   UNL     1     -10.026   8.368  67.459  1.00  0.00    -0.171 OA 
ENDBRANCH  14  15
ENDBRANCH  13  14
ENDBRANCH  12  13
BRANCH  12  29
HETATM   29  C   UNL     1     -11.203  15.408  64.774  1.00  0.00    -0.395 C  
HETATM   30  O   UNL     1     -11.231  16.600  63.986  1.00  0.00    -1.449 OA 
HETATM   31  H   UNL     1     -11.405  16.375  63.080  1.00  0.00     0.000 HD 
ENDBRANCH  12  29
ENDBRANCH  11  12
ENDBRANCH  10  11
ENDBRANCH   8  10
ENDBRANCH   4   8
TORSDOF 8
ENDMDL
MODEL       43
REMARK 921   NORMALIZED FREE ENERGY PREDICTED BY IDOCK:   -6.05 KCAL/MOL
REMARK 922        TOTAL FREE ENERGY PREDICTED BY IDOCK:  -10.10 KCAL/MOL
REMARK 923 INTER-LIGAND FREE ENERGY PREDICTED BY IDOCK:   -8.86 KCAL/MOL
REMARK 924 INTRA-LIGAND FREE ENERGY PREDICTED BY IDOCK:   -1.24 KCAL/MOL
REMARK 927      BINDING AFFINITY PREDICTED BY RF-SCORE:    0.00 PKD
ROOT
HETATM    1  C   UNL     1      -7.520  10.938  66.486  1.00  0.00    -0.142 C  
HETATM    2  C   UNL     1      -7.808   9.721  65.599  1.00  0.00    -0.114 C  
HETATM    3  C   UNL     1      -7.443  10.040  64.146  1.00  0.00    -0.132 C  
HETATM    4  C   UNL     1      -9.264   9.205  65.728  1.00  0.00    -0.234 C  
HETATM    5  N   UNL     1     -10.253  10.243  65.360  1.00  0.00    -0.281 NA 
HETATM    6  H1  UNL     1     -11.210   9.904  65.446  1.00  0.00     0.000 HD 
HETATM    7  H2  UNL     1     -10.073  10.613  64.427  1.00  0.00     0.000 HD 
ENDROOT
BRANCH   4   8
HETATM    8  C   UNL     1      -9.532   8.653  67.144  1.00  0.00    -0.160 C  
HETATM    9  O   UNL     1      -8.845   7.804  67.699  1.00  0.00    -0.128 OA 
BRANCH   8  10
HETATM   10  O   UNL     1     -10.675   9.176  67.680  1.00  0.00    -0.262 OA 
BRANCH  10  11
HETATM   11  C   UNL     1     -10.515   9.960  68.876  1.00  0.00    -0.211 C  
BRANCH  11  12
HETATM   12  C   UNL     1     -11.809  10.735  69.171  1.00  0.00    -0.275 C  
BRANCH  12  13
HETATM   13  O   UNL     1     -11.690  12.155  68.922  1.00  0.00    -0.288 OA 
BRANCH  13  14
HETATM   14  C   UNL     1     -10.549  12.490  68.136  1.00  0.00    -0.226 C  
BRANCH  14  15
HETATM   15  N   UNL     1     -10.836  13.682  67.370  1.00  0.00    -0.270 NA 
HETATM   16  C   UNL     1     -10.485  14.960  67.737  1.00  0.00    -0.255 A  
HETATM   17  N   UNL     1     -10.756  15.841  66.792  1.00  0.00    -0.313 NA 
HETATM   18  C   UNL     1     -11.302  15.101  65.766  1.00  0.00    -0.238 A  
HETATM   19  C   UNL     1     -11.354  13.777  66.124  1.00  0.00    -0.314 A  
HETATM   20  N   UNL     1     -11.825  12.833  65.301  1.00  0.00    -0.378 NA 
HETATM   21  C   UNL     1     -12.235  13.247  64.058  1.00  0.00    -0.410 C  
HETATM   22  N   UNL     1     -12.638  12.230  63.256  1.00  0.00    -0.833 NA 
HETATM   23  N   UNL     1     -12.228  14.470  63.615  1.00  0.00    -1.062 N  
HETATM   24  H2  UNL     1     -12.637  11.253  63.549  1.00  0.00     0.000 HD 
HETATM   25  H1  UNL     1     -12.943  12.538  62.332  1.00  0.00     0.000 HD 
HETATM   26  H   UNL     1     -12.555  14.671  62.670  1.00  0.00     0.000 HD 
HETATM   27  C   UNL     1     -11.774  15.512  64.434  1.00  0.00    -0.242 C  
HETATM   28  O   UNL     1     -11.762  16.680  64.066  1.00  0.00    -1.143 OA 
ENDBRANCH  14  15
ENDBRANCH  13  14
ENDBRANCH  12  13
BRANCH  12  29
HETATM   29  C   UNL     1     -12.211  10.558  70.643  1.00  0.00    -0.352 C  
HETATM   30  O   UNL     1     -13.414   9.790  70.718  1.00  0.00    -0.600 OA 
HETATM   31  H   UNL     1     -13.663   9.681  71.628  1.00  0.00     0.000 HD 
ENDBRANCH  12  29
ENDBRANCH  11  12
ENDBRANCH  10  11
ENDBRANCH   8  10
ENDBRANCH   4   8
TORSDOF 8
ENDMDL
MODEL       44
REMARK 921   NORMALIZED FREE ENERGY PREDICTED BY IDOCK:   -6.01 KCAL/MOL
REMARK 922        TOTAL FREE ENERGY PREDICTED BY IDOCK:  -10.03 KCAL/MOL
REMARK 923 INTER-LIGAND FREE ENERGY PREDICTED BY IDOCK:   -8.94 KCAL/MOL
REMARK 924 INTRA-LIGAND FREE ENERGY PREDICTED BY IDOCK:   -1.09 KCAL/MOL
REMARK 927      BINDING AFFINITY PREDICTED BY RF-SCORE:    0.00 PKD
ROOT
HETATM    1  C   UNL     1     -10.390   9.159  68.371  1.00  0.00    -0.242 C  
HETATM    2  C   UNL     1     -10.215  10.192  69.491  1.00  0.00    -0.258 C  
HETATM    3  C   UNL     1      -9.897   9.480  70.809  1.00  0.00    -0.309 C  
HETATM    4  C   UNL     1     -11.427  11.148  69.630  1.00  0.00    -0.310 C  
HETATM    5  N   UNL     1     -12.680  10.414  69.919  1.00  0.00    -0.537 NA 
HETATM    6  H1  UNL     1     -13.477  11.043  70.011  1.00  0.00     0.000 HD 
HETATM    7  H2  UNL     1     -12.580   9.821  70.743  1.00  0.00     0.000 HD 
ENDROOT
BRANCH   4   8
HETATM    8  C   UNL     1     -11.576  12.038  68.378  1.00  0.00    -0.311 C  
HETATM    9  O   UNL     1     -12.265  11.757  67.405  1.00  0.00    -0.501 OA 
BRANCH   8  10
HETATM   10  O   UNL     1     -10.786  13.150  68.456  1.00  0.00    -0.247 OA 
BRANCH  10  11
HETATM   11  C   UNL     1     -11.461  14.391  68.729  1.00  0.00    -0.289 C  
BRANCH  11  12
HETATM   12  C   UNL     1     -10.874  15.511  67.855  1.00  0.00    -0.307 C  
BRANCH  12  13
HETATM   13  O   UNL     1      -9.595  15.167  67.274  1.00  0.00    -0.206 OA 
BRANCH  13  14
HETATM   14  C   UNL     1      -9.515  15.469  65.882  1.00  0.00    -0.342 C  
BRANCH  14  15
HETATM   15  N   UNL     1     -10.587  14.790  65.189  1.00  0.00    -0.388 NA 
HETATM   16  C   UNL     1     -11.675  15.409  64.620  1.00  0.00    -0.267 A  
HETATM   17  N   UNL     1     -12.428  14.564  63.941  1.00  0.00    -0.806 NA 
HETATM   18  C   UNL     1     -11.798  13.346  64.071  1.00  0.00    -0.445 A  
HETATM   19  C   UNL     1     -10.670  13.485  64.841  1.00  0.00    -0.381 A  
HETATM   20  N   UNL     1      -9.857  12.457  65.112  1.00  0.00    -0.192 NA 
HETATM   21  C   UNL     1     -10.191  11.246  64.557  1.00  0.00    -0.314 C  
HETATM   22  N   UNL     1      -9.290  10.267  64.819  1.00  0.00    -0.235 NA 
HETATM   23  N   UNL     1     -11.231  11.001  63.814  1.00  0.00    -0.387 N  
HETATM   24  H2  UNL     1      -8.447  10.416  65.373  1.00  0.00     0.000 HD 
HETATM   25  H1  UNL     1      -9.538   9.367  64.407  1.00  0.00     0.000 HD 
HETATM   26  H   UNL     1     -11.386  10.061  63.450  1.00  0.00     0.000 HD 
HETATM   27  C   UNL     1     -12.137  12.026  63.515  1.00  0.00    -0.526 C  
HETATM   28  O   UNL     1     -13.138  11.841  62.832  1.00  0.00    -0.387 OA 
ENDBRANCH  14  15
ENDBRANCH  13  14
ENDBRANCH  12  13
BRANCH  12  29
HETATM   29  C   UNL     1     -10.673  16.786  68.688  1.00  0.00    -0.352 C  
HETATM   30  O   UNL     1     -10.718  17.927  67.829  1.00  0.00    -0.400 OA 
HETATM   31  H   UNL     1     -10.594  18.715  68.344  1.00  0.00     0.000 HD 
ENDBRANCH  12  29
ENDBRANCH  11  12
ENDBRANCH  10  11
ENDBRANCH   8  10
ENDBRANCH   4   8
TORSDOF 8
ENDMDL
MODEL       45
REMARK 921   NORMALIZED FREE ENERGY PREDICTED BY IDOCK:   -5.97 KCAL/MOL
REMARK 922        TOTAL FREE ENERGY PREDICTED BY IDOCK:   -9.98 KCAL/MOL
REMARK 923 INTER-LIGAND FREE ENERGY PREDICTED BY IDOCK:   -9.15 KCAL/MOL
REMARK 924 INTRA-LIGAND FREE ENERGY PREDICTED BY IDOCK:   -0.84 KCAL/MOL
REMARK 927      BINDING AFFINITY PREDICTED BY RF-SCORE:    0.00 PKD
ROOT
HETATM    1  C   UNL     1     -11.254  16.032  67.263  1.00  0.00    -0.041 C  
HETATM    2  C   UNL     1     -10.094  15.767  66.295  1.00  0.00    -0.320 C  
HETATM    3  C   UNL     1      -9.067  16.900  66.394  1.00  0.00    -0.315 C  
HETATM    4  C   UNL     1     -10.561  15.537  64.836  1.00  0.00    -0.342 C  
HETATM    5  N   UNL     1     -11.303  16.702  64.303  1.00  0.00    -1.364 NA 
HETATM    6  H1  UNL     1     -11.610  16.550  63.342  1.00  0.00     0.000 HD 
HETATM    7  H2  UNL     1     -10.757  17.559  64.386  1.00  0.00     0.000 HD 
ENDROOT
BRANCH   4   8
HETATM    8  C   UNL     1     -11.392  14.243  64.718  1.00  0.00    -0.382 C  
HETATM    9  O   UNL     1     -12.571  14.202  64.389  1.00  0.00    -0.658 OA 
BRANCH   8  10
HETATM   10  O   UNL     1     -10.670  13.146  65.099  1.00  0.00    -0.295 OA 
BRANCH  10  11
HETATM   11  C   UNL     1     -11.276  12.301  66.094  1.00  0.00    -0.328 C  
BRANCH  11  12
HETATM   12  C   UNL     1     -10.647  10.900  66.045  1.00  0.00    -0.189 C  
BRANCH  12  13
HETATM   13  O   UNL     1      -9.649  10.689  67.071  1.00  0.00    -0.165 OA 
BRANCH  13  14
HETATM   14  C   UNL     1      -9.945  11.375  68.287  1.00  0.00    -0.198 C  
BRANCH  14  15
HETATM   15  N   UNL     1     -10.627  10.470  69.185  1.00  0.00    -0.214 NA 
HETATM   16  C   UNL     1     -10.367   9.125  69.298  1.00  0.00    -0.216 A  
HETATM   17  N   UNL     1     -11.044   8.569  70.285  1.00  0.00    -0.241 NA 
HETATM   18  C   UNL     1     -11.771   9.600  70.839  1.00  0.00    -0.334 A  
HETATM   19  C   UNL     1     -11.517  10.766  70.161  1.00  0.00    -0.331 A  
HETATM   20  N   UNL     1     -12.080  11.930  70.504  1.00  0.00    -0.372 NA 
HETATM   21  C   UNL     1     -12.913  11.913  71.595  1.00  0.00    -0.342 C  
HETATM   22  N   UNL     1     -13.395  13.137  71.924  1.00  0.00    -0.458 NA 
HETATM   23  N   UNL     1     -13.222  10.871  72.310  1.00  0.00    -0.556 N  
HETATM   24  H2  UNL     1     -13.162  13.987  71.411  1.00  0.00     0.000 HD 
HETATM   25  H1  UNL     1     -14.014  13.125  72.735  1.00  0.00     0.000 HD 
HETATM   26  H   UNL     1     -13.853  10.968  73.105  1.00  0.00     0.000 HD 
HETATM   27  C   UNL     1     -12.690   9.616  71.989  1.00  0.00    -0.385 C  
HETATM   28  O   UNL     1     -12.962   8.604  72.623  1.00  0.00    -0.352 OA 
ENDBRANCH  14  15
ENDBRANCH  13  14
ENDBRANCH  12  13
BRANCH  12  29
HETATM   29  C   UNL     1      -9.966  10.669  64.687  1.00  0.00    -0.337 C  
HETATM   30  O   UNL     1      -9.554   9.304  64.589  1.00  0.00    -0.412 OA 
HETATM   31  H   UNL     1      -9.133   9.162  63.749  1.00  0.00     0.000 HD 
ENDBRANCH  12  29
ENDBRANCH  11  12
ENDBRANCH  10  11
ENDBRANCH   8  10
ENDBRANCH   4   8
TORSDOF 8
ENDMDL
MODEL       46
REMARK 921   NORMALIZED FREE ENERGY PREDICTED BY IDOCK:   -5.97 KCAL/MOL
REMARK 922        TOTAL FREE ENERGY PREDICTED BY IDOCK:   -9.98 KCAL/MOL
REMARK 923 INTER-LIGAND FREE ENERGY PREDICTED BY IDOCK:   -8.84 KCAL/MOL
REMARK 924 INTRA-LIGAND FREE ENERGY PREDICTED BY IDOCK:   -1.14 KCAL/MOL
REMARK 927      BINDING AFFINITY PREDICTED BY RF-SCORE:    0.00 PKD
ROOT
HETATM    1  C   UNL     1     -14.386  15.281  72.134  1.00  0.00    -0.651 C  
HETATM    2  C   UNL     1     -13.029  14.779  72.642  1.00  0.00    -0.518 C  
HETATM    3  C   UNL     1     -12.656  15.511  73.935  1.00  0.00    -0.767 C  
HETATM    4  C   UNL     1     -11.907  14.879  71.578  1.00  0.00    -0.361 C  
HETATM    5  N   UNL     1     -11.701  16.272  71.121  1.00  0.00    -0.611 NA 
HETATM    6  H1  UNL     1     -10.963  16.337  70.421  1.00  0.00     0.000 HD 
HETATM    7  H2  UNL     1     -11.524  16.898  71.906  1.00  0.00     0.000 HD 
ENDROOT
BRANCH   4   8
HETATM    8  C   UNL     1     -12.185  13.935  70.390  1.00  0.00    -0.368 C  
HETATM    9  O   UNL     1     -12.382  14.307  69.239  1.00  0.00    -0.293 OA 
BRANCH   8  10
HETATM   10  O   UNL     1     -12.258  12.630  70.791  1.00  0.00    -0.366 OA 
BRANCH  10  11
HETATM   11  C   UNL     1     -11.907  11.643  69.805  1.00  0.00    -0.357 C  
BRANCH  11  12
HETATM   12  C   UNL     1     -11.192  10.461  70.479  1.00  0.00    -0.314 C  
BRANCH  12  13
HETATM   13  O   UNL     1     -10.313   9.742  69.583  1.00  0.00    -0.206 OA 
BRANCH  13  14
HETATM   14  C   UNL     1      -9.315  10.573  68.994  1.00  0.00    -0.196 C  
BRANCH  14  15
HETATM   15  N   UNL     1      -9.609  10.740  67.588  1.00  0.00    -0.157 NA 
HETATM   16  C   UNL     1      -9.811   9.714  66.696  1.00  0.00    -0.224 A  
HETATM   17  N   UNL     1     -10.190  10.152  65.511  1.00  0.00    -0.264 NA 
HETATM   18  C   UNL     1     -10.241  11.523  65.641  1.00  0.00    -0.248 A  
HETATM   19  C   UNL     1      -9.880  11.883  66.916  1.00  0.00    -0.202 A  
HETATM   20  N   UNL     1      -9.862  13.158  67.320  1.00  0.00    -0.228 NA 
HETATM   21  C   UNL     1     -10.251  14.102  66.401  1.00  0.00    -0.290 C  
HETATM   22  N   UNL     1     -10.270  15.363  66.899  1.00  0.00    -0.268 NA 
HETATM   23  N   UNL     1     -10.612  13.874  65.172  1.00  0.00    -0.355 N  
HETATM   24  H2  UNL     1     -10.021  15.588  67.862  1.00  0.00     0.000 HD 
HETATM   25  H1  UNL     1     -10.559  16.064  66.216  1.00  0.00     0.000 HD 
HETATM   26  H   UNL     1     -10.884  14.650  64.569  1.00  0.00     0.000 HD 
HETATM   27  C   UNL     1     -10.626  12.565  64.675  1.00  0.00    -0.316 C  
HETATM   28  O   UNL     1     -10.945  12.302  63.522  1.00  0.00    -0.425 OA 
ENDBRANCH  14  15
ENDBRANCH  13  14
ENDBRANCH  12  13
BRANCH  12  29
HETATM   29  C   UNL     1     -12.220   9.456  71.021  1.00  0.00    -0.279 C  
HETATM   30  O   UNL     1     -13.537   9.896  70.683  1.00  0.00    -0.574 OA 
HETATM   31  H   UNL     1     -14.173   9.275  71.018  1.00  0.00     0.000 HD 
ENDBRANCH  12  29
ENDBRANCH  11  12
ENDBRANCH  10  11
ENDBRANCH   8  10
ENDBRANCH   4   8
TORSDOF 8
ENDMDL
MODEL       47
REMARK 921   NORMALIZED FREE ENERGY PREDICTED BY IDOCK:   -5.95 KCAL/MOL
REMARK 922        TOTAL FREE ENERGY PREDICTED BY IDOCK:   -9.95 KCAL/MOL
REMARK 923 INTER-LIGAND FREE ENERGY PREDICTED BY IDOCK:   -9.07 KCAL/MOL
REMARK 924 INTRA-LIGAND FREE ENERGY PREDICTED BY IDOCK:   -0.88 KCAL/MOL
REMARK 927      BINDING AFFINITY PREDICTED BY RF-SCORE:    0.00 PKD
ROOT
HETATM    1  C   UNL     1      -7.346  18.868  67.671  1.00  0.00    -0.239 C  
HETATM    2  C   UNL     1      -7.752  19.347  66.272  1.00  0.00    -0.308 C  
HETATM    3  C   UNL     1      -6.731  20.366  65.756  1.00  0.00    -0.271 C  
HETATM    4  C   UNL     1      -9.199  19.900  66.216  1.00  0.00    -0.373 C  
HETATM    5  N   UNL     1      -9.387  21.049  67.131  1.00  0.00    -0.648 NA 
HETATM    6  H1  UNL     1     -10.339  21.412  67.093  1.00  0.00     0.000 HD 
HETATM    7  H2  UNL     1      -8.703  21.783  66.950  1.00  0.00     0.000 HD 
ENDROOT
BRANCH   4   8
HETATM    8  C   UNL     1     -10.228  18.786  66.496  1.00  0.00    -0.413 C  
HETATM    9  O   UNL     1     -10.987  18.768  67.458  1.00  0.00    -0.407 OA 
BRANCH   8  10
HETATM   10  O   UNL     1     -10.143  17.779  65.577  1.00  0.00    -0.548 OA 
BRANCH  10  11
HETATM   11  C   UNL     1     -10.068  16.442  66.104  1.00  0.00    -0.346 C  
BRANCH  11  12
HETATM   12  C   UNL     1     -11.401  15.712  65.871  1.00  0.00     0.044 C  
BRANCH  12  13
HETATM   13  O   UNL     1     -11.528  14.500  66.651  1.00  0.00    -0.347 OA 
BRANCH  13  14
HETATM   14  C   UNL     1     -12.228  13.465  65.964  1.00  0.00    -0.437 C  
BRANCH  14  15
HETATM   15  N   UNL     1     -11.680  12.185  66.353  1.00  0.00    -0.560 NA 
HETATM   16  C   UNL     1     -10.904  11.382  65.551  1.00  0.00    -0.220 A  
HETATM   17  N   UNL     1     -10.432  10.336  66.203  1.00  0.00    -0.176 NA 
HETATM   18  C   UNL     1     -10.920  10.469  67.485  1.00  0.00    -0.303 A  
HETATM   19  C   UNL     1     -11.689  11.603  67.575  1.00  0.00    -0.214 A  
HETATM   20  N   UNL     1     -12.271  11.983  68.718  1.00  0.00    -0.230 NA 
HETATM   21  C   UNL     1     -12.041  11.195  69.818  1.00  0.00    -0.344 C  
HETATM   22  N   UNL     1     -12.606  11.674  70.953  1.00  0.00    -0.348 NA 
HETATM   23  N   UNL     1     -11.331  10.104  69.847  1.00  0.00    -0.265 N  
HETATM   24  H2  UNL     1     -13.149  12.537  70.986  1.00  0.00     0.000 HD 
HETATM   25  H1  UNL     1     -12.436  11.089  71.771  1.00  0.00     0.000 HD 
HETATM   26  H   UNL     1     -11.222   9.591  70.722  1.00  0.00     0.000 HD 
HETATM   27  C   UNL     1     -10.717   9.634  68.680  1.00  0.00    -0.201 C  
HETATM   28  O   UNL     1     -10.051   8.606  68.654  1.00  0.00    -0.180 OA 
ENDBRANCH  14  15
ENDBRANCH  13  14
ENDBRANCH  12  13
BRANCH  12  29
HETATM   29  C   UNL     1     -11.543  15.324  64.391  1.00  0.00    -0.263 C  
HETATM   30  O   UNL     1     -11.661  16.509  63.600  1.00  0.00    -1.468 OA 
HETATM   31  H   UNL     1     -11.749  16.269  62.685  1.00  0.00     0.000 HD 
ENDBRANCH  12  29
ENDBRANCH  11  12
ENDBRANCH  10  11
ENDBRANCH   8  10
ENDBRANCH   4   8
TORSDOF 8
ENDMDL
MODEL       48
REMARK 921   NORMALIZED FREE ENERGY PREDICTED BY IDOCK:   -5.94 KCAL/MOL
REMARK 922        TOTAL FREE ENERGY PREDICTED BY IDOCK:   -9.93 KCAL/MOL
REMARK 923 INTER-LIGAND FREE ENERGY PREDICTED BY IDOCK:   -8.58 KCAL/MOL
REMARK 924 INTRA-LIGAND FREE ENERGY PREDICTED BY IDOCK:   -1.35 KCAL/MOL
REMARK 927      BINDING AFFINITY PREDICTED BY RF-SCORE:    0.00 PKD
ROOT
HETATM    1  C   UNL     1     -12.266   7.352  71.249  1.00  0.00    -0.374 C  
HETATM    2  C   UNL     1     -12.215   8.715  71.949  1.00  0.00    -0.419 C  
HETATM    3  C   UNL     1     -13.622   9.117  72.405  1.00  0.00    -0.544 C  
HETATM    4  C   UNL     1     -11.552   9.817  71.086  1.00  0.00    -0.392 C  
HETATM    5  N   UNL     1     -12.267  10.022  69.806  1.00  0.00    -0.478 NA 
HETATM    6  H1  UNL     1     -11.830  10.748  69.238  1.00  0.00     0.000 HD 
HETATM    7  H2  UNL     1     -13.256  10.219  69.961  1.00  0.00     0.000 HD 
ENDROOT
BRANCH   4   8
HETATM    8  C   UNL     1     -10.058   9.511  70.849  1.00  0.00    -0.260 C  
HETATM    9  O   UNL     1      -9.360   8.843  71.602  1.00  0.00    -0.264 OA 
BRANCH   8  10
HETATM   10  O   UNL     1      -9.587  10.138  69.731  1.00  0.00    -0.222 OA 
BRANCH  10  11
HETATM   11  C   UNL     1      -8.988   9.292  68.733  1.00  0.00    -0.132 C  
BRANCH  11  12
HETATM   12  C   UNL     1      -9.554   9.636  67.346  1.00  0.00    -0.148 C  
BRANCH  12  13
HETATM   13  O   UNL     1     -10.406  10.804  67.353  1.00  0.00    -0.191 OA 
BRANCH  13  14
HETATM   14  C   UNL     1     -10.079  11.741  66.329  1.00  0.00    -0.217 C  
BRANCH  14  15
HETATM   15  N   UNL     1      -9.858  13.038  66.929  1.00  0.00    -0.235 NA 
HETATM   16  C   UNL     1      -9.143  13.263  68.082  1.00  0.00    -0.207 A  
HETATM   17  N   UNL     1      -8.990  14.550  68.329  1.00  0.00    -0.178 NA 
HETATM   18  C   UNL     1      -9.630  15.187  67.288  1.00  0.00    -0.209 A  
HETATM   19  C   UNL     1     -10.166  14.258  66.432  1.00  0.00    -0.291 A  
HETATM   20  N   UNL     1     -10.828  14.606  65.323  1.00  0.00    -0.350 NA 
HETATM   21  C   UNL     1     -10.927  15.950  65.060  1.00  0.00    -0.412 C  
HETATM   22  N   UNL     1     -11.552  16.226  63.889  1.00  0.00    -1.573 NA 
HETATM   23  N   UNL     1     -10.458  16.914  65.798  1.00  0.00    -0.325 N  
HETATM   24  H2  UNL     1     -11.914  15.506  63.265  1.00  0.00     0.000 HD 
HETATM   25  H1  UNL     1     -11.626  17.225  63.694  1.00  0.00     0.000 HD 
HETATM   26  H   UNL     1     -10.585  17.884  65.510  1.00  0.00     0.000 HD 
HETATM   27  C   UNL     1      -9.778  16.621  66.987  1.00  0.00    -0.249 C  
HETATM   28  O   UNL     1      -9.331  17.493  67.722  1.00  0.00    -0.251 OA 
ENDBRANCH  14  15
ENDBRANCH  13  14
ENDBRANCH  12  13
BRANCH  12  29
HETATM   29  C   UNL     1     -10.384   8.462  66.804  1.00  0.00    -0.287 C  
HETATM   30  O   UNL     1     -11.208   7.941  67.850  1.00  0.00    -0.375 OA 
HETATM   31  H   UNL     1     -11.721   7.216  67.516  1.00  0.00     0.000 HD 
ENDBRANCH  12  29
ENDBRANCH  11  12
ENDBRANCH  10  11
ENDBRANCH   8  10
ENDBRANCH   4   8
TORSDOF 8
ENDMDL
MODEL       49
REMARK 921   NORMALIZED FREE ENERGY PREDICTED BY IDOCK:   -5.93 KCAL/MOL
REMARK 922        TOTAL FREE ENERGY PREDICTED BY IDOCK:   -9.92 KCAL/MOL
REMARK 923 INTER-LIGAND FREE ENERGY PREDICTED BY IDOCK:   -9.06 KCAL/MOL
REMARK 924 INTRA-LIGAND FREE ENERGY PREDICTED BY IDOCK:   -0.86 KCAL/MOL
REMARK 927      BINDING AFFINITY PREDICTED BY RF-SCORE:    0.00 PKD
ROOT
HETATM    1  C   UNL     1     -10.299  19.505  66.230  1.00  0.00    -0.601 C  
HETATM    2  C   UNL     1     -10.018  18.369  67.221  1.00  0.00    -0.347 C  
HETATM    3  C   UNL     1      -9.035  18.848  68.294  1.00  0.00    -0.364 C  
HETATM    4  C   UNL     1      -9.531  17.069  66.532  1.00  0.00    -0.276 C  
HETATM    5  N   UNL     1      -8.284  17.284  65.765  1.00  0.00    -0.485 NA 
HETATM    6  H1  UNL     1      -7.964  16.428  65.312  1.00  0.00     0.000 HD 
HETATM    7  H2  UNL     1      -7.553  17.688  66.350  1.00  0.00     0.000 HD 
ENDROOT
BRANCH   4   8
HETATM    8  C   UNL     1     -10.639  16.466  65.644  1.00  0.00    -0.323 C  
HETATM    9  O   UNL     1     -10.817  16.754  64.466  1.00  0.00    -0.886 OA 
BRANCH   8  10
HETATM   10  O   UNL     1     -11.448  15.622  66.351  1.00  0.00    -0.041 OA 
BRANCH  10  11
HETATM   11  C   UNL     1     -10.942  14.292  66.569  1.00  0.00    -0.316 C  
BRANCH  11  12
HETATM   12  C   UNL     1     -12.005  13.256  66.169  1.00  0.00    -0.418 C  
BRANCH  12  13
HETATM   13  O   UNL     1     -12.020  12.096  67.034  1.00  0.00    -0.593 OA 
BRANCH  13  14
HETATM   14  C   UNL     1     -10.776  11.877  67.697  1.00  0.00    -0.215 C  
BRANCH  14  15
HETATM   15  N   UNL     1     -10.874  10.679  68.500  1.00  0.00    -0.215 NA 
HETATM   16  C   UNL     1     -10.174   9.518  68.275  1.00  0.00    -0.193 A  
HETATM   17  N   UNL     1     -10.358   8.632  69.236  1.00  0.00    -0.219 NA 
HETATM   18  C   UNL     1     -11.210   9.248  70.125  1.00  0.00    -0.208 A  
HETATM   19  C   UNL     1     -11.530  10.503  69.671  1.00  0.00    -0.282 A  
HETATM   20  N   UNL     1     -12.330  11.329  70.355  1.00  0.00    -0.331 NA 
HETATM   21  C   UNL     1     -12.803  10.871  71.560  1.00  0.00    -0.454 C  
HETATM   22  N   UNL     1     -13.553  11.782  72.227  1.00  0.00    -0.475 NA 
HETATM   23  N   UNL     1     -12.564   9.704  72.085  1.00  0.00    -0.342 N  
HETATM   24  H2  UNL     1     -13.746  12.717  71.869  1.00  0.00     0.000 HD 
HETATM   25  H1  UNL     1     -13.905  11.442  73.122  1.00  0.00     0.000 HD 
HETATM   26  H   UNL     1     -12.966   9.462  72.991  1.00  0.00     0.000 HD 
HETATM   27  C   UNL     1     -11.757   8.781  71.410  1.00  0.00    -0.305 C  
HETATM   28  O   UNL     1     -11.516   7.666  71.857  1.00  0.00    -0.255 OA 
ENDBRANCH  14  15
ENDBRANCH  13  14
ENDBRANCH  12  13
BRANCH  12  29
HETATM   29  C   UNL     1     -11.752  12.760  64.737  1.00  0.00    -0.352 C  
HETATM   30  O   UNL     1     -10.941  13.709  64.042  1.00  0.00    -0.562 OA 
HETATM   31  H   UNL     1     -10.785  13.403  63.157  1.00  0.00     0.000 HD 
ENDBRANCH  12  29
ENDBRANCH  11  12
ENDBRANCH  10  11
ENDBRANCH   8  10
ENDBRANCH   4   8
TORSDOF 8
ENDMDL
MODEL       50
REMARK 921   NORMALIZED FREE ENERGY PREDICTED BY IDOCK:   -5.93 KCAL/MOL
REMARK 922        TOTAL FREE ENERGY PREDICTED BY IDOCK:   -9.91 KCAL/MOL
REMARK 923 INTER-LIGAND FREE ENERGY PREDICTED BY IDOCK:   -8.98 KCAL/MOL
REMARK 924 INTRA-LIGAND FREE ENERGY PREDICTED BY IDOCK:   -0.94 KCAL/MOL
REMARK 927      BINDING AFFINITY PREDICTED BY RF-SCORE:    0.00 PKD
ROOT
HETATM    1  C   UNL     1     -11.821  14.037  66.516  1.00  0.00    -0.439 C  
HETATM    2  C   UNL     1     -10.859  14.457  65.398  1.00  0.00    -0.351 C  
HETATM    3  C   UNL     1     -10.623  15.970  65.458  1.00  0.00    -0.415 C  
HETATM    4  C   UNL     1     -11.325  14.001  63.993  1.00  0.00    -0.015 C  
HETATM    5  N   UNL     1     -12.652  14.556  63.643  1.00  0.00    -0.992 NA 
HETATM    6  H1  UNL     1     -12.959  14.255  62.718  1.00  0.00     0.000 HD 
HETATM    7  H2  UNL     1     -12.663  15.572  63.725  1.00  0.00     0.000 HD 
ENDROOT
BRANCH   4   8
HETATM    8  C   UNL     1     -11.313  12.462  63.878  1.00  0.00    -0.433 C  
HETATM    9  O   UNL     1     -12.258  11.789  63.485  1.00  0.00    -0.500 OA 
BRANCH   8  10
HETATM   10  O   UNL     1     -10.141  11.933  64.339  1.00  0.00    -0.269 OA 
BRANCH  10  11
HETATM   11  C   UNL     1     -10.110  10.503  64.498  1.00  0.00    -0.332 C  
BRANCH  11  12
HETATM   12  C   UNL     1      -9.697  10.144  65.934  1.00  0.00    -0.232 C  
BRANCH  12  13
HETATM   13  O   UNL     1     -10.799  10.185  66.869  1.00  0.00    -0.201 OA 
BRANCH  13  14
HETATM   14  C   UNL     1     -10.433   9.769  68.183  1.00  0.00    -0.216 C  
BRANCH  14  15
HETATM   15  N   UNL     1     -11.045  10.656  69.147  1.00  0.00    -0.236 NA 
HETATM   16  C   UNL     1     -11.066  12.028  69.055  1.00  0.00    -0.239 A  
HETATM   17  N   UNL     1     -11.804  12.578  70.002  1.00  0.00    -0.323 NA 
HETATM   18  C   UNL     1     -12.285  11.516  70.736  1.00  0.00    -0.363 A  
HETATM   19  C   UNL     1     -11.815  10.337  70.213  1.00  0.00    -0.288 A  
HETATM   20  N   UNL     1     -12.145   9.147  70.725  1.00  0.00    -0.209 NA 
HETATM   21  C   UNL     1     -13.006   9.153  71.795  1.00  0.00    -0.380 C  
HETATM   22  N   UNL     1     -13.347   7.912  72.220  1.00  0.00    -0.519 NA 
HETATM   23  N   UNL     1     -13.511  10.206  72.368  1.00  0.00    -0.594 N  
HETATM   24  H2  UNL     1     -12.999   7.057  71.788  1.00  0.00     0.000 HD 
HETATM   25  H1  UNL     1     -13.987   7.916  73.015  1.00  0.00     0.000 HD 
HETATM   26  H   UNL     1     -14.145  10.100  73.160  1.00  0.00     0.000 HD 
HETATM   27  C   UNL     1     -13.186  11.485  71.900  1.00  0.00    -0.374 C  
HETATM   28  O   UNL     1     -13.625  12.506  72.415  1.00  0.00    -0.521 OA 
ENDBRANCH  14  15
ENDBRANCH  13  14
ENDBRANCH  12  13
BRANCH  12  29
HETATM   29  C   UNL     1      -8.626  11.123  66.440  1.00  0.00    -0.172 C  
HETATM   30  O   UNL     1      -7.550  11.176  65.501  1.00  0.00    -0.363 OA 
HETATM   31  H   UNL     1      -6.888  11.781  65.815  1.00  0.00     0.000 HD 
ENDBRANCH  12  29
ENDBRANCH  11  12
ENDBRANCH  10  11
ENDBRANCH   8  10
ENDBRANCH   4   8
TORSDOF 8
ENDMDL
MODEL       51
REMARK 921   NORMALIZED FREE ENERGY PREDICTED BY IDOCK:   -5.92 KCAL/MOL
REMARK 922        TOTAL FREE ENERGY PREDICTED BY IDOCK:   -9.90 KCAL/MOL
REMARK 923 INTER-LIGAND FREE ENERGY PREDICTED BY IDOCK:   -8.45 KCAL/MOL
REMARK 924 INTRA-LIGAND FREE ENERGY PREDICTED BY IDOCK:   -1.45 KCAL/MOL
REMARK 927      BINDING AFFINITY PREDICTED BY RF-SCORE:    0.00 PKD
ROOT
HETATM    1  C   UNL     1     -12.657  12.066  63.527  1.00  0.00    -0.625 C  
HETATM    2  C   UNL     1     -12.121  12.357  64.934  1.00  0.00    -0.470 C  
HETATM    3  C   UNL     1     -12.607  13.734  65.399  1.00  0.00    -0.534 C  
HETATM    4  C   UNL     1     -10.581  12.223  65.038  1.00  0.00    -0.287 C  
HETATM    5  N   UNL     1      -9.882  13.147  64.117  1.00  0.00    -0.702 NA 
HETATM    6  H1  UNL     1      -8.869  13.059  64.186  1.00  0.00     0.000 HD 
HETATM    7  H2  UNL     1     -10.180  14.111  64.262  1.00  0.00     0.000 HD 
ENDROOT
BRANCH   4   8
HETATM    8  C   UNL     1     -10.136  10.763  64.811  1.00  0.00    -0.331 C  
HETATM    9  O   UNL     1      -9.577  10.358  63.799  1.00  0.00    -0.279 OA 
BRANCH   8  10
HETATM   10  O   UNL     1     -10.509   9.956  65.849  1.00  0.00    -0.158 OA 
BRANCH  10  11
HETATM   11  C   UNL     1     -10.119  10.394  67.164  1.00  0.00    -0.208 C  
BRANCH  11  12
HETATM   12  C   UNL     1     -11.275  10.173  68.153  1.00  0.00    -0.180 C  
BRANCH  12  13
HETATM   13  O   UNL     1     -12.062  11.365  68.382  1.00  0.00    -0.575 OA 
BRANCH  13  14
HETATM   14  C   UNL     1     -11.778  11.989  69.633  1.00  0.00    -0.335 C  
BRANCH  14  15
HETATM   15  N   UNL     1     -11.791  13.424  69.459  1.00  0.00    -0.316 NA 
HETATM   16  C   UNL     1     -12.613  14.294  70.136  1.00  0.00    -0.282 A  
HETATM   17  N   UNL     1     -12.323  15.555  69.876  1.00  0.00    -0.334 NA 
HETATM   18  C   UNL     1     -11.264  15.500  68.997  1.00  0.00    -0.303 A  
HETATM   19  C   UNL     1     -10.941  14.191  68.738  1.00  0.00    -0.257 A  
HETATM   20  N   UNL     1      -9.933  13.851  67.927  1.00  0.00    -0.236 NA 
HETATM   21  C   UNL     1      -9.208  14.880  67.379  1.00  0.00    -0.194 C  
HETATM   22  N   UNL     1      -8.164  14.462  66.622  1.00  0.00    -0.345 NA 
HETATM   23  N   UNL     1      -9.425  16.151  67.555  1.00  0.00    -0.222 N  
HETATM   24  H2  UNL     1      -7.939  13.478  66.475  1.00  0.00     0.000 HD 
HETATM   25  H1  UNL     1      -7.626  15.226  66.214  1.00  0.00     0.000 HD 
HETATM   26  H   UNL     1      -8.824  16.838  67.100  1.00  0.00     0.000 HD 
HETATM   27  C   UNL     1     -10.481  16.578  68.370  1.00  0.00    -0.307 C  
HETATM   28  O   UNL     1     -10.732  17.762  68.555  1.00  0.00    -0.291 OA 
ENDBRANCH  14  15
ENDBRANCH  13  14
ENDBRANCH  12  13
BRANCH  12  29
HETATM   29  C   UNL     1     -10.730   9.712  69.513  1.00  0.00    -0.232 C  
HETATM   30  O   UNL     1     -11.388   8.504  69.903  1.00  0.00    -0.450 OA 
HETATM   31  H   UNL     1     -11.051   8.219  70.744  1.00  0.00     0.000 HD 
ENDBRANCH  12  29
ENDBRANCH  11  12
ENDBRANCH  10  11
ENDBRANCH   8  10
ENDBRANCH   4   8
TORSDOF 8
ENDMDL
MODEL       52
REMARK 921   NORMALIZED FREE ENERGY PREDICTED BY IDOCK:   -5.89 KCAL/MOL
REMARK 922        TOTAL FREE ENERGY PREDICTED BY IDOCK:   -9.87 KCAL/MOL
REMARK 923 INTER-LIGAND FREE ENERGY PREDICTED BY IDOCK:   -8.78 KCAL/MOL
REMARK 924 INTRA-LIGAND FREE ENERGY PREDICTED BY IDOCK:   -1.08 KCAL/MOL
REMARK 927      BINDING AFFINITY PREDICTED BY RF-SCORE:    0.00 PKD
ROOT
HETATM    1  C   UNL     1     -12.078  16.069  72.069  1.00  0.00    -0.606 C  
HETATM    2  C   UNL     1     -13.058  15.440  71.071  1.00  0.00    -0.565 C  
HETATM    3  C   UNL     1     -14.356  15.058  71.789  1.00  0.00    -0.674 C  
HETATM    4  C   UNL     1     -12.452  14.241  70.298  1.00  0.00    -0.361 C  
HETATM    5  N   UNL     1     -12.018  13.158  71.209  1.00  0.00    -0.166 NA 
HETATM    6  H1  UNL     1     -11.619  12.370  70.700  1.00  0.00     0.000 HD 
HETATM    7  H2  UNL     1     -12.779  12.859  71.818  1.00  0.00     0.000 HD 
ENDROOT
BRANCH   4   8
HETATM    8  C   UNL     1     -11.297  14.700  69.384  1.00  0.00    -0.284 C  
HETATM    9  O   UNL     1     -10.209  15.096  69.785  1.00  0.00    -0.236 OA 
BRANCH   8  10
HETATM   10  O   UNL     1     -11.659  14.679  68.066  1.00  0.00    -0.311 OA 
BRANCH  10  11
HETATM   11  C   UNL     1     -12.172  13.429  67.569  1.00  0.00    -0.185 C  
BRANCH  11  12
HETATM   12  C   UNL     1     -11.088  12.707  66.752  1.00  0.00    -0.277 C  
BRANCH  12  13
HETATM   13  O   UNL     1     -11.243  12.880  65.325  1.00  0.00    -0.282 OA 
BRANCH  13  14
HETATM   14  C   UNL     1     -10.164  13.598  64.728  1.00  0.00    -0.337 C  
BRANCH  14  15
HETATM   15  N   UNL     1     -10.373  15.015  64.927  1.00  0.00    -0.352 NA 
HETATM   16  C   UNL     1     -11.372  15.756  64.342  1.00  0.00    -0.265 A  
HETATM   17  N   UNL     1     -11.407  16.993  64.800  1.00  0.00    -0.708 NA 
HETATM   18  C   UNL     1     -10.389  17.055  65.727  1.00  0.00    -0.261 A  
HETATM   19  C   UNL     1      -9.752  15.841  65.801  1.00  0.00    -0.337 A  
HETATM   20  N   UNL     1      -8.734  15.618  66.640  1.00  0.00    -0.273 NA 
HETATM   21  C   UNL     1      -8.366  16.662  67.453  1.00  0.00    -0.173 C  
HETATM   22  N   UNL     1      -7.373  16.346  68.320  1.00  0.00    -0.153 NA 
HETATM   23  N   UNL     1      -8.898  17.849  67.467  1.00  0.00    -0.246 N  
HETATM   24  H2  UNL     1      -6.942  15.422  68.365  1.00  0.00     0.000 HD 
HETATM   25  H1  UNL     1      -7.099  17.120  68.924  1.00  0.00     0.000 HD 
HETATM   26  H   UNL     1      -8.548  18.556  68.115  1.00  0.00     0.000 HD 
HETATM   27  C   UNL     1      -9.949  18.159  66.596  1.00  0.00    -0.362 C  
HETATM   28  O   UNL     1     -10.473  19.266  66.563  1.00  0.00    -0.402 OA 
ENDBRANCH  14  15
ENDBRANCH  13  14
ENDBRANCH  12  13
BRANCH  12  29
HETATM   29  C   UNL     1     -11.123  11.198  67.039  1.00  0.00    -0.273 C  
HETATM   30  O   UNL     1     -12.162  10.918  67.979  1.00  0.00    -0.695 OA 
HETATM   31  H   UNL     1     -12.183   9.985  68.157  1.00  0.00     0.000 HD 
ENDBRANCH  12  29
ENDBRANCH  11  12
ENDBRANCH  10  11
ENDBRANCH   8  10
ENDBRANCH   4   8
TORSDOF 8
ENDMDL
MODEL       53
REMARK 921   NORMALIZED FREE ENERGY PREDICTED BY IDOCK:   -5.89 KCAL/MOL
REMARK 922        TOTAL FREE ENERGY PREDICTED BY IDOCK:   -9.85 KCAL/MOL
REMARK 923 INTER-LIGAND FREE ENERGY PREDICTED BY IDOCK:   -9.11 KCAL/MOL
REMARK 924 INTRA-LIGAND FREE ENERGY PREDICTED BY IDOCK:   -0.75 KCAL/MOL
REMARK 927      BINDING AFFINITY PREDICTED BY RF-SCORE:    0.00 PKD
ROOT
HETATM    1  C   UNL     1     -14.055  15.518  71.937  1.00  0.00    -0.586 C  
HETATM    2  C   UNL     1     -12.618  15.003  72.078  1.00  0.00    -0.405 C  
HETATM    3  C   UNL     1     -11.630  16.141  71.799  1.00  0.00    -0.503 C  
HETATM    4  C   UNL     1     -12.329  13.760  71.200  1.00  0.00    -0.345 C  
HETATM    5  N   UNL     1     -12.544  14.037  69.761  1.00  0.00    -0.394 NA 
HETATM    6  H1  UNL     1     -12.354  13.218  69.184  1.00  0.00     0.000 HD 
HETATM    7  H2  UNL     1     -11.998  14.842  69.453  1.00  0.00     0.000 HD 
ENDROOT
BRANCH   4   8
HETATM    8  C   UNL     1     -13.162  12.548  71.667  1.00  0.00    -0.284 C  
HETATM    9  O   UNL     1     -14.308  12.617  72.095  1.00  0.00     0.132 OA 
BRANCH   8  10
HETATM   10  O   UNL     1     -12.438  11.390  71.612  1.00  0.00    -0.247 OA 
BRANCH  10  11
HETATM   11  C   UNL     1     -12.698  10.531  70.487  1.00  0.00    -0.305 C  
BRANCH  11  12
HETATM   12  C   UNL     1     -11.510  10.570  69.513  1.00  0.00    -0.272 C  
BRANCH  12  13
HETATM   13  O   UNL     1     -11.844  11.157  68.234  1.00  0.00    -0.522 OA 
BRANCH  13  14
HETATM   14  C   UNL     1     -10.712  11.324  67.383  1.00  0.00    -0.242 C  
BRANCH  14  15
HETATM   15  N   UNL     1     -10.460  12.736  67.203  1.00  0.00    -0.232 NA 
HETATM   16  C   UNL     1      -9.627  13.496  67.989  1.00  0.00    -0.221 A  
HETATM   17  N   UNL     1      -9.483  14.722  67.521  1.00  0.00    -0.196 NA 
HETATM   18  C   UNL     1     -10.252  14.755  66.378  1.00  0.00    -0.291 A  
HETATM   19  C   UNL     1     -10.854  13.537  66.186  1.00  0.00    -0.281 A  
HETATM   20  N   UNL     1     -11.645  13.288  65.136  1.00  0.00    -0.301 NA 
HETATM   21  C   UNL     1     -11.809  14.310  64.232  1.00  0.00    -0.379 C  
HETATM   22  N   UNL     1     -12.568  13.967  63.163  1.00  0.00    -0.976 NA 
HETATM   23  N   UNL     1     -11.287  15.499  64.314  1.00  0.00    -0.743 N  
HETATM   24  H2  UNL     1     -12.977  13.041  63.041  1.00  0.00     0.000 HD 
HETATM   25  H1  UNL     1     -12.691  14.725  62.492  1.00  0.00     0.000 HD 
HETATM   26  H   UNL     1     -11.472  16.187  63.585  1.00  0.00     0.000 HD 
HETATM   27  C   UNL     1     -10.472  15.835  65.402  1.00  0.00    -0.414 C  
HETATM   28  O   UNL     1      -9.969  16.945  65.530  1.00  0.00    -0.572 OA 
ENDBRANCH  14  15
ENDBRANCH  13  14
ENDBRANCH  12  13
BRANCH  12  29
HETATM   29  C   UNL     1     -10.994   9.148  69.246  1.00  0.00    -0.061 C  
HETATM   30  O   UNL     1     -11.596   8.243  70.174  1.00  0.00    -0.469 OA 
HETATM   31  H   UNL     1     -11.277   7.364  70.009  1.00  0.00     0.000 HD 
ENDBRANCH  12  29
ENDBRANCH  11  12
ENDBRANCH  10  11
ENDBRANCH   8  10
ENDBRANCH   4   8
TORSDOF 8
ENDMDL
MODEL       54
REMARK 921   NORMALIZED FREE ENERGY PREDICTED BY IDOCK:   -5.88 KCAL/MOL
REMARK 922        TOTAL FREE ENERGY PREDICTED BY IDOCK:   -9.85 KCAL/MOL
REMARK 923 INTER-LIGAND FREE ENERGY PREDICTED BY IDOCK:   -9.22 KCAL/MOL
REMARK 924 INTRA-LIGAND FREE ENERGY PREDICTED BY IDOCK:   -0.63 KCAL/MOL
REMARK 927      BINDING AFFINITY PREDICTED BY RF-SCORE:    0.00 PKD
ROOT
HETATM    1  C   UNL     1     -11.118  15.935  67.172  1.00  0.00    -0.148 C  
HETATM    2  C   UNL     1     -10.189  15.292  66.136  1.00  0.00    -0.320 C  
HETATM    3  C   UNL     1      -8.925  16.142  65.974  1.00  0.00    -0.334 C  
HETATM    4  C   UNL     1     -10.885  15.028  64.777  1.00  0.00    -0.355 C  
HETATM    5  N   UNL     1     -11.402  16.275  64.169  1.00  0.00    -1.352 NA 
HETATM    6  H1  UNL     1     -11.860  16.101  63.275  1.00  0.00     0.000 HD 
HETATM    7  H2  UNL     1     -10.667  16.976  64.079  1.00  0.00     0.000 HD 
ENDROOT
BRANCH   4   8
HETATM    8  C   UNL     1     -12.000  13.972  64.922  1.00  0.00    -0.404 C  
HETATM    9  O   UNL     1     -13.191  14.232  65.042  1.00  0.00    -0.638 OA 
BRANCH   8  10
HETATM   10  O   UNL     1     -11.489  12.705  64.973  1.00  0.00    -0.308 OA 
BRANCH  10  11
HETATM   11  C   UNL     1     -11.600  12.027  66.237  1.00  0.00    -0.310 C  
BRANCH  11  12
HETATM   12  C   UNL     1     -10.488  10.973  66.365  1.00  0.00    -0.258 C  
BRANCH  12  13
HETATM   13  O   UNL     1     -10.839   9.881  67.247  1.00  0.00    -0.267 OA 
BRANCH  13  14
HETATM   14  C   UNL     1     -11.007  10.290  68.603  1.00  0.00    -0.244 C  
BRANCH  14  15
HETATM   15  N   UNL     1     -10.693   9.178  69.473  1.00  0.00    -0.229 NA 
HETATM   16  C   UNL     1      -9.558   8.407  69.391  1.00  0.00    -0.170 A  
HETATM   17  N   UNL     1      -9.468   7.548  70.388  1.00  0.00    -0.162 NA 
HETATM   18  C   UNL     1     -10.591   7.775  71.153  1.00  0.00    -0.217 A  
HETATM   19  C   UNL     1     -11.345   8.774  70.588  1.00  0.00    -0.254 A  
HETATM   20  N   UNL     1     -12.484   9.208  71.138  1.00  0.00    -0.287 NA 
HETATM   21  C   UNL     1     -12.858   8.623  72.323  1.00  0.00    -0.383 C  
HETATM   22  N   UNL     1     -13.985   9.156  72.856  1.00  0.00    -1.053 NA 
HETATM   23  N   UNL     1     -12.222   7.674  72.946  1.00  0.00    -0.492 N  
HETATM   24  H2  UNL     1     -14.504   9.918  72.419  1.00  0.00     0.000 HD 
HETATM   25  H1  UNL     1     -14.264   8.722  73.736  1.00  0.00     0.000 HD 
HETATM   26  H   UNL     1     -12.587   7.308  73.825  1.00  0.00     0.000 HD 
HETATM   27  C   UNL     1     -11.038   7.153  72.410  1.00  0.00    -0.266 C  
HETATM   28  O   UNL     1     -10.411   6.250  72.952  1.00  0.00    -0.198 OA 
ENDBRANCH  14  15
ENDBRANCH  13  14
ENDBRANCH  12  13
BRANCH  12  29
HETATM   29  C   UNL     1      -9.206  11.616  66.917  1.00  0.00    -0.184 C  
HETATM   30  O   UNL     1      -8.758  12.630  66.015  1.00  0.00    -0.389 OA 
HETATM   31  H   UNL     1      -7.966  13.027  66.356  1.00  0.00     0.000 HD 
ENDBRANCH  12  29
ENDBRANCH  11  12
ENDBRANCH  10  11
ENDBRANCH   8  10
ENDBRANCH   4   8
TORSDOF 8
ENDMDL
MODEL       55
REMARK 921   NORMALIZED FREE ENERGY PREDICTED BY IDOCK:   -5.87 KCAL/MOL
REMARK 922        TOTAL FREE ENERGY PREDICTED BY IDOCK:   -9.83 KCAL/MOL
REMARK 923 INTER-LIGAND FREE ENERGY PREDICTED BY IDOCK:   -8.59 KCAL/MOL
REMARK 924 INTRA-LIGAND FREE ENERGY PREDICTED BY IDOCK:   -1.24 KCAL/MOL
REMARK 927      BINDING AFFINITY PREDICTED BY RF-SCORE:    0.00 PKD
ROOT
HETATM    1  C   UNL     1     -12.877  11.839  63.693  1.00  0.00    -0.339 C  
HETATM    2  C   UNL     1     -12.313  12.476  64.969  1.00  0.00    -0.522 C  
HETATM    3  C   UNL     1     -13.035  13.798  65.251  1.00  0.00    -0.328 C  
HETATM    4  C   UNL     1     -10.774  12.656  64.929  1.00  0.00    -0.299 C  
HETATM    5  N   UNL     1     -10.347  13.513  63.801  1.00  0.00    -0.487 NA 
HETATM    6  H1  UNL     1      -9.334  13.631  63.775  1.00  0.00     0.000 HD 
HETATM    7  H2  UNL     1     -10.824  14.414  63.817  1.00  0.00     0.000 HD 
ENDROOT
BRANCH   4   8
HETATM    8  C   UNL     1     -10.058  11.289  64.898  1.00  0.00    -0.281 C  
HETATM    9  O   UNL     1      -9.465  10.839  63.925  1.00  0.00    -0.227 OA 
BRANCH   8  10
HETATM   10  O   UNL     1     -10.228  10.605  66.069  1.00  0.00    -0.242 OA 
BRANCH  10  11
HETATM   11  C   UNL     1      -9.491  11.096  67.203  1.00  0.00    -0.172 C  
BRANCH  11  12
HETATM   12  C   UNL     1     -10.243  12.271  67.849  1.00  0.00    -0.200 C  
BRANCH  12  13
HETATM   13  O   UNL     1      -9.369  13.198  68.532  1.00  0.00    -0.180 OA 
BRANCH  13  14
HETATM   14  C   UNL     1      -8.545  13.948  67.642  1.00  0.00    -0.190 C  
BRANCH  14  15
HETATM   15  N   UNL     1      -8.864  15.352  67.773  1.00  0.00    -0.167 NA 
HETATM   16  C   UNL     1      -8.376  16.185  68.752  1.00  0.00    -0.231 A  
HETATM   17  N   UNL     1      -8.728  17.442  68.556  1.00  0.00    -0.273 NA 
HETATM   18  C   UNL     1      -9.472  17.424  67.397  1.00  0.00    -0.246 A  
HETATM   19  C   UNL     1      -9.558  16.140  66.919  1.00  0.00    -0.230 A  
HETATM   20  N   UNL     1     -10.211  15.840  65.791  1.00  0.00    -0.344 NA 
HETATM   21  C   UNL     1     -10.776  16.889  65.108  1.00  0.00    -0.103 C  
HETATM   22  N   UNL     1     -11.363  16.520  63.943  1.00  0.00    -1.559 NA 
HETATM   23  N   UNL     1     -10.754  18.139  65.466  1.00  0.00    -0.170 N  
HETATM   24  H2  UNL     1     -11.384  15.557  63.607  1.00  0.00     0.000 HD 
HETATM   25  H1  UNL     1     -11.783  17.299  63.436  1.00  0.00     0.000 HD 
HETATM   26  H   UNL     1     -11.206  18.844  64.883  1.00  0.00     0.000 HD 
HETATM   27  C   UNL     1     -10.112  18.520  66.651  1.00  0.00    -0.389 C  
HETATM   28  O   UNL     1     -10.077  19.682  67.037  1.00  0.00    -0.356 OA 
ENDBRANCH  14  15
ENDBRANCH  13  14
ENDBRANCH  12  13
BRANCH  12  29
HETATM   29  C   UNL     1     -11.259  11.751  68.878  1.00  0.00    -0.253 C  
HETATM   30  O   UNL     1     -12.240  10.951  68.214  1.00  0.00    -0.804 OA 
HETATM   31  H   UNL     1     -12.868  10.630  68.850  1.00  0.00     0.000 HD 
ENDBRANCH  12  29
ENDBRANCH  11  12
ENDBRANCH  10  11
ENDBRANCH   8  10
ENDBRANCH   4   8
TORSDOF 8
ENDMDL
MODEL       56
REMARK 921   NORMALIZED FREE ENERGY PREDICTED BY IDOCK:   -5.86 KCAL/MOL
REMARK 922        TOTAL FREE ENERGY PREDICTED BY IDOCK:   -9.82 KCAL/MOL
REMARK 923 INTER-LIGAND FREE ENERGY PREDICTED BY IDOCK:   -8.79 KCAL/MOL
REMARK 924 INTRA-LIGAND FREE ENERGY PREDICTED BY IDOCK:   -1.03 KCAL/MOL
REMARK 927      BINDING AFFINITY PREDICTED BY RF-SCORE:    0.00 PKD
ROOT
HETATM    1  C   UNL     1     -10.081  10.802  65.549  1.00  0.00    -0.335 C  
HETATM    2  C   UNL     1     -10.598  11.050  64.127  1.00  0.00    -0.412 C  
HETATM    3  C   UNL     1      -9.550  10.592  63.107  1.00  0.00    -0.375 C  
HETATM    4  C   UNL     1     -11.035  12.517  63.886  1.00  0.00    -0.424 C  
HETATM    5  N   UNL     1      -9.923  13.468  64.106  1.00  0.00    -0.721 NA 
HETATM    6  H1  UNL     1     -10.211  14.433  63.947  1.00  0.00     0.000 HD 
HETATM    7  H2  UNL     1      -9.110  13.226  63.539  1.00  0.00     0.000 HD 
ENDROOT
BRANCH   4   8
HETATM    8  C   UNL     1     -12.261  12.878  64.750  1.00  0.00    -0.445 C  
HETATM    9  O   UNL     1     -13.389  12.433  64.575  1.00  0.00    -0.800 OA 
BRANCH   8  10
HETATM   10  O   UNL     1     -11.951  13.815  65.696  1.00  0.00    -0.349 OA 
BRANCH  10  11
HETATM   11  C   UNL     1     -12.213  13.448  67.062  1.00  0.00    -0.268 C  
BRANCH  11  12
HETATM   12  C   UNL     1     -10.931  13.587  67.898  1.00  0.00    -0.256 C  
BRANCH  12  13
HETATM   13  O   UNL     1     -10.848  12.627  68.977  1.00  0.00    -0.222 OA 
BRANCH  13  14
HETATM   14  C   UNL     1     -11.776  11.553  68.840  1.00  0.00    -0.339 C  
BRANCH  14  15
HETATM   15  N   UNL     1     -11.780  10.775  70.059  1.00  0.00    -0.305 NA 
HETATM   16  C   UNL     1     -12.743  10.846  71.038  1.00  0.00    -0.407 A  
HETATM   17  N   UNL     1     -12.567   9.934  71.975  1.00  0.00    -0.361 NA 
HETATM   18  C   UNL     1     -11.445   9.237  71.584  1.00  0.00    -0.398 A  
HETATM   19  C   UNL     1     -10.960   9.757  70.409  1.00  0.00    -0.312 A  
HETATM   20  N   UNL     1      -9.884   9.253  69.795  1.00  0.00    -0.178 NA 
HETATM   21  C   UNL     1      -9.292   8.163  70.385  1.00  0.00    -0.158 C  
HETATM   22  N   UNL     1      -8.249   7.666  69.676  1.00  0.00    -0.126 NA 
HETATM   23  N   UNL     1      -9.666   7.591  71.492  1.00  0.00    -0.166 N  
HETATM   24  H2  UNL     1      -7.934   8.064  68.790  1.00  0.00     0.000 HD 
HETATM   25  H1  UNL     1      -7.809   6.857  70.113  1.00  0.00     0.000 HD 
HETATM   26  H   UNL     1      -9.155   6.781  71.844  1.00  0.00     0.000 HD 
HETATM   27  C   UNL     1     -10.769   8.084  72.200  1.00  0.00    -0.276 C  
HETATM   28  O   UNL     1     -11.150   7.588  73.253  1.00  0.00    -0.378 OA 
ENDBRANCH  14  15
ENDBRANCH  13  14
ENDBRANCH  12  13
BRANCH  12  29
HETATM   29  C   UNL     1     -10.852  14.989  68.522  1.00  0.00    -0.250 C  
HETATM   30  O   UNL     1     -12.137  15.610  68.458  1.00  0.00    -0.533 OA 
HETATM   31  H   UNL     1     -12.088  16.477  68.843  1.00  0.00     0.000 HD 
ENDBRANCH  12  29
ENDBRANCH  11  12
ENDBRANCH  10  11
ENDBRANCH   8  10
ENDBRANCH   4   8
TORSDOF 8
ENDMDL
MODEL       57
REMARK 921   NORMALIZED FREE ENERGY PREDICTED BY IDOCK:   -5.85 KCAL/MOL
REMARK 922        TOTAL FREE ENERGY PREDICTED BY IDOCK:   -9.81 KCAL/MOL
REMARK 923 INTER-LIGAND FREE ENERGY PREDICTED BY IDOCK:   -8.74 KCAL/MOL
REMARK 924 INTRA-LIGAND FREE ENERGY PREDICTED BY IDOCK:   -1.07 KCAL/MOL
REMARK 927      BINDING AFFINITY PREDICTED BY RF-SCORE:    0.00 PKD
ROOT
HETATM    1  C   UNL     1     -14.208  15.077  71.401  1.00  0.00    -0.587 C  
HETATM    2  C   UNL     1     -12.871  14.626  72.002  1.00  0.00    -0.403 C  
HETATM    3  C   UNL     1     -12.682  15.262  73.383  1.00  0.00    -0.661 C  
HETATM    4  C   UNL     1     -11.663  14.900  71.070  1.00  0.00    -0.327 C  
HETATM    5  N   UNL     1     -11.524  16.340  70.754  1.00  0.00    -0.537 NA 
HETATM    6  H1  UNL     1     -10.729  16.519  70.141  1.00  0.00     0.000 HD 
HETATM    7  H2  UNL     1     -11.472  16.902  71.603  1.00  0.00     0.000 HD 
ENDROOT
BRANCH   4   8
HETATM    8  C   UNL     1     -11.751  14.050  69.786  1.00  0.00    -0.313 C  
HETATM    9  O   UNL     1     -12.065  12.866  69.757  1.00  0.00    -0.299 OA 
BRANCH   8  10
HETATM   10  O   UNL     1     -11.366  14.762  68.684  1.00  0.00    -0.259 OA 
BRANCH  10  11
HETATM   11  C   UNL     1     -12.160  14.577  67.499  1.00  0.00    -0.249 C  
BRANCH  11  12
HETATM   12  C   UNL     1     -11.269  14.105  66.339  1.00  0.00    -0.328 C  
BRANCH  12  13
HETATM   13  O   UNL     1      -9.863  14.078  66.678  1.00  0.00    -0.266 OA 
BRANCH  13  14
HETATM   14  C   UNL     1      -9.119  15.126  66.059  1.00  0.00    -0.161 C  
BRANCH  14  15
HETATM   15  N   UNL     1      -8.675  16.054  67.074  1.00  0.00    -0.195 NA 
HETATM   16  C   UNL     1      -7.889  15.726  68.154  1.00  0.00    -0.131 A  
HETATM   17  N   UNL     1      -7.528  16.790  68.847  1.00  0.00    -0.232 NA 
HETATM   18  C   UNL     1      -8.101  17.853  68.185  1.00  0.00    -0.267 A  
HETATM   19  C   UNL     1      -8.809  17.400  67.099  1.00  0.00    -0.232 A  
HETATM   20  N   UNL     1      -9.452  18.228  66.269  1.00  0.00    -0.450 NA 
HETATM   21  C   UNL     1      -9.350  19.571  66.536  1.00  0.00    -0.370 C  
HETATM   22  N   UNL     1      -9.971  20.353  65.619  1.00  0.00    -0.517 NA 
HETATM   23  N   UNL     1      -8.709  20.110  67.532  1.00  0.00    -0.339 N  
HETATM   24  H2  UNL     1     -10.464  19.979  64.808  1.00  0.00     0.000 HD 
HETATM   25  H1  UNL     1      -9.896  21.350  65.817  1.00  0.00     0.000 HD 
HETATM   26  H   UNL     1      -8.695  21.124  67.640  1.00  0.00     0.000 HD 
HETATM   27  C   UNL     1      -8.037  19.299  68.456  1.00  0.00    -0.366 C  
HETATM   28  O   UNL     1      -7.431  19.759  69.416  1.00  0.00    -0.295 OA 
ENDBRANCH  14  15
ENDBRANCH  13  14
ENDBRANCH  12  13
BRANCH  12  29
HETATM   29  C   UNL     1     -11.433  15.037  65.129  1.00  0.00    -0.339 C  
HETATM   30  O   UNL     1     -12.185  14.369  64.114  1.00  0.00    -0.617 OA 
HETATM   31  H   UNL     1     -12.286  14.945  63.365  1.00  0.00     0.000 HD 
ENDBRANCH  12  29
ENDBRANCH  11  12
ENDBRANCH  10  11
ENDBRANCH   8  10
ENDBRANCH   4   8
TORSDOF 8
ENDMDL
MODEL       58
REMARK 921   NORMALIZED FREE ENERGY PREDICTED BY IDOCK:   -5.84 KCAL/MOL
REMARK 922        TOTAL FREE ENERGY PREDICTED BY IDOCK:   -9.79 KCAL/MOL
REMARK 923 INTER-LIGAND FREE ENERGY PREDICTED BY IDOCK:   -8.46 KCAL/MOL
REMARK 924 INTRA-LIGAND FREE ENERGY PREDICTED BY IDOCK:   -1.33 KCAL/MOL
REMARK 927      BINDING AFFINITY PREDICTED BY RF-SCORE:    0.00 PKD
ROOT
HETATM    1  C   UNL     1     -14.087  15.199  71.215  1.00  0.00    -0.537 C  
HETATM    2  C   UNL     1     -12.740  14.687  71.741  1.00  0.00    -0.405 C  
HETATM    3  C   UNL     1     -12.664  14.893  73.258  1.00  0.00    -0.624 C  
HETATM    4  C   UNL     1     -11.526  15.314  71.012  1.00  0.00    -0.356 C  
HETATM    5  N   UNL     1     -11.502  16.788  71.143  1.00  0.00    -0.398 NA 
HETATM    6  H1  UNL     1     -10.703  17.201  70.663  1.00  0.00     0.000 HD 
HETATM    7  H2  UNL     1     -11.534  17.074  72.122  1.00  0.00     0.000 HD 
ENDROOT
BRANCH   4   8
HETATM    8  C   UNL     1     -11.487  14.884  69.531  1.00  0.00    -0.297 C  
HETATM    9  O   UNL     1     -11.408  13.723  69.147  1.00  0.00    -0.255 OA 
BRANCH   8  10
HETATM   10  O   UNL     1     -11.479  15.963  68.693  1.00  0.00    -0.363 OA 
BRANCH  10  11
HETATM   11  C   UNL     1     -10.224  16.265  68.058  1.00  0.00    -0.256 C  
BRANCH  11  12
HETATM   12  C   UNL     1     -10.408  17.413  67.052  1.00  0.00    -0.318 C  
BRANCH  12  13
HETATM   13  O   UNL     1      -9.224  17.671  66.262  1.00  0.00    -0.376 OA 
BRANCH  13  14
HETATM   14  C   UNL     1      -8.022  17.251  66.904  1.00  0.00    -0.225 C  
BRANCH  14  15
HETATM   15  N   UNL     1      -7.384  18.398  67.510  1.00  0.00    -0.216 NA 
HETATM   16  C   UNL     1      -7.561  19.702  67.112  1.00  0.00    -0.252 A  
HETATM   17  N   UNL     1      -6.961  20.555  67.921  1.00  0.00    -0.305 NA 
HETATM   18  C   UNL     1      -6.375  19.770  68.890  1.00  0.00    -0.295 A  
HETATM   19  C   UNL     1      -6.632  18.445  68.634  1.00  0.00    -0.233 A  
HETATM   20  N   UNL     1      -6.193  17.466  69.433  1.00  0.00    -0.240 NA 
HETATM   21  C   UNL     1      -5.489  17.848  70.548  1.00  0.00    -0.245 C  
HETATM   22  N   UNL     1      -5.133  16.809  71.343  1.00  0.00    -0.334 NA 
HETATM   23  N   UNL     1      -5.190  19.068  70.887  1.00  0.00    -0.241 N  
HETATM   24  H2  UNL     1      -5.366  15.839  71.134  1.00  0.00     0.000 HD 
HETATM   25  H1  UNL     1      -4.610  17.092  72.171  1.00  0.00     0.000 HD 
HETATM   26  H   UNL     1      -4.661  19.244  71.741  1.00  0.00     0.000 HD 
HETATM   27  C   UNL     1      -5.594  20.140  70.081  1.00  0.00    -0.292 C  
HETATM   28  O   UNL     1      -5.325  21.304  70.352  1.00  0.00    -0.562 OA 
ENDBRANCH  14  15
ENDBRANCH  13  14
ENDBRANCH  12  13
BRANCH  12  29
HETATM   29  C   UNL     1     -10.763  18.714  67.788  1.00  0.00    -0.342 C  
HETATM   30  O   UNL     1     -10.256  18.657  69.123  1.00  0.00    -0.495 OA 
HETATM   31  H   UNL     1     -10.476  19.461  69.578  1.00  0.00     0.000 HD 
ENDBRANCH  12  29
ENDBRANCH  11  12
ENDBRANCH  10  11
ENDBRANCH   8  10
ENDBRANCH   4   8
TORSDOF 8
ENDMDL
MODEL       59
REMARK 921   NORMALIZED FREE ENERGY PREDICTED BY IDOCK:   -5.81 KCAL/MOL
REMARK 922        TOTAL FREE ENERGY PREDICTED BY IDOCK:   -9.74 KCAL/MOL
REMARK 923 INTER-LIGAND FREE ENERGY PREDICTED BY IDOCK:   -7.56 KCAL/MOL
REMARK 924 INTRA-LIGAND FREE ENERGY PREDICTED BY IDOCK:   -2.18 KCAL/MOL
REMARK 927      BINDING AFFINITY PREDICTED BY RF-SCORE:    0.00 PKD
ROOT
HETATM    1  C   UNL     1     -12.393  12.110  63.762  1.00  0.00    -0.635 C  
HETATM    2  C   UNL     1     -12.343  13.145  64.893  1.00  0.00    -0.494 C  
HETATM    3  C   UNL     1     -12.437  14.557  64.308  1.00  0.00    -0.293 C  
HETATM    4  C   UNL     1     -11.106  12.981  65.812  1.00  0.00    -0.278 C  
HETATM    5  N   UNL     1      -9.838  13.112  65.060  1.00  0.00    -0.545 NA 
HETATM    6  H1  UNL     1      -9.024  13.004  65.665  1.00  0.00     0.000 HD 
HETATM    7  H2  UNL     1      -9.801  13.990  64.543  1.00  0.00     0.000 HD 
ENDROOT
BRANCH   4   8
HETATM    8  C   UNL     1     -11.163  11.648  66.586  1.00  0.00    -0.299 C  
HETATM    9  O   UNL     1     -11.958  11.402  67.485  1.00  0.00    -0.626 OA 
BRANCH   8  10
HETATM   10  O   UNL     1     -10.168  10.797  66.196  1.00  0.00    -0.237 OA 
BRANCH  10  11
HETATM   11  C   UNL     1      -9.332  10.274  67.244  1.00  0.00    -0.149 C  
BRANCH  11  12
HETATM   12  C   UNL     1      -7.876  10.713  67.021  1.00  0.00    -0.117 C  
BRANCH  12  13
HETATM   13  O   UNL     1      -7.716  12.150  66.982  1.00  0.00    -0.160 OA 
BRANCH  13  14
HETATM   14  C   UNL     1      -7.959  12.774  68.242  1.00  0.00    -0.151 C  
BRANCH  14  15
HETATM   15  N   UNL     1      -8.384  14.138  68.019  1.00  0.00    -0.149 NA 
HETATM   16  C   UNL     1      -7.701  15.064  67.267  1.00  0.00    -0.202 A  
HETATM   17  N   UNL     1      -8.381  16.187  67.125  1.00  0.00    -0.182 NA 
HETATM   18  C   UNL     1      -9.557  15.977  67.811  1.00  0.00    -0.219 A  
HETATM   19  C   UNL     1      -9.556  14.720  68.362  1.00  0.00    -0.213 A  
HETATM   20  N   UNL     1     -10.590  14.248  69.068  1.00  0.00    -0.249 NA 
HETATM   21  C   UNL     1     -11.678  15.077  69.196  1.00  0.00    -0.319 C  
HETATM   22  N   UNL     1     -12.712  14.510  69.866  1.00  0.00    -0.547 NA 
HETATM   23  N   UNL     1     -11.787  16.281  68.716  1.00  0.00    -0.217 N  
HETATM   24  H2  UNL     1     -12.684  13.561  70.239  1.00  0.00     0.000 HD 
HETATM   25  H1  UNL     1     -13.519  15.126  69.962  1.00  0.00     0.000 HD 
HETATM   26  H   UNL     1     -12.643  16.814  68.869  1.00  0.00     0.000 HD 
HETATM   27  C   UNL     1     -10.731  16.847  67.991  1.00  0.00    -0.364 C  
HETATM   28  O   UNL     1     -10.781  17.982  67.532  1.00  0.00    -0.404 OA 
ENDBRANCH  14  15
ENDBRANCH  13  14
ENDBRANCH  12  13
BRANCH  12  29
HETATM   29  C   UNL     1      -7.351  10.155  65.689  1.00  0.00    -0.144 C  
HETATM   30  O   UNL     1      -7.964  10.856  64.606  1.00  0.00    -0.362 OA 
HETATM   31  H   UNL     1      -7.639  10.511  63.783  1.00  0.00     0.000 HD 
ENDBRANCH  12  29
ENDBRANCH  11  12
ENDBRANCH  10  11
ENDBRANCH   8  10
ENDBRANCH   4   8
TORSDOF 8
ENDMDL
MODEL       60
REMARK 921   NORMALIZED FREE ENERGY PREDICTED BY IDOCK:   -5.80 KCAL/MOL
REMARK 922        TOTAL FREE ENERGY PREDICTED BY IDOCK:   -9.73 KCAL/MOL
REMARK 923 INTER-LIGAND FREE ENERGY PREDICTED BY IDOCK:   -9.10 KCAL/MOL
REMARK 924 INTRA-LIGAND FREE ENERGY PREDICTED BY IDOCK:   -0.63 KCAL/MOL
REMARK 927      BINDING AFFINITY PREDICTED BY RF-SCORE:    0.00 PKD
ROOT
HETATM    1  C   UNL     1      -7.004  18.839  68.607  1.00  0.00    -0.308 C  
HETATM    2  C   UNL     1      -7.444  19.432  67.263  1.00  0.00    -0.254 C  
HETATM    3  C   UNL     1      -7.180  20.942  67.252  1.00  0.00    -0.408 C  
HETATM    4  C   UNL     1      -8.914  19.101  66.904  1.00  0.00    -0.305 C  
HETATM    5  N   UNL     1      -9.860  19.608  67.924  1.00  0.00    -0.375 NA 
HETATM    6  H1  UNL     1     -10.828  19.390  67.687  1.00  0.00     0.000 HD 
HETATM    7  H2  UNL     1      -9.734  20.608  68.082  1.00  0.00     0.000 HD 
ENDROOT
BRANCH   4   8
HETATM    8  C   UNL     1      -9.099  17.587  66.673  1.00  0.00    -0.269 C  
HETATM    9  O   UNL     1      -8.438  16.919  65.887  1.00  0.00    -0.501 OA 
BRANCH   8  10
HETATM   10  O   UNL     1     -10.144  17.091  67.401  1.00  0.00    -0.275 OA 
BRANCH  10  11
HETATM   11  C   UNL     1     -10.755  15.889  66.898  1.00  0.00    -0.289 C  
BRANCH  11  12
HETATM   12  C   UNL     1     -11.063  14.931  68.060  1.00  0.00    -0.295 C  
BRANCH  12  13
HETATM   13  O   UNL     1     -12.097  13.970  67.745  1.00  0.00    -0.371 OA 
BRANCH  13  14
HETATM   14  C   UNL     1     -11.772  12.644  68.159  1.00  0.00    -0.347 C  
BRANCH  14  15
HETATM   15  N   UNL     1     -11.058  11.978  67.093  1.00  0.00    -0.272 NA 
HETATM   16  C   UNL     1     -10.221  10.899  67.257  1.00  0.00    -0.205 A  
HETATM   17  N   UNL     1      -9.807  10.412  66.103  1.00  0.00    -0.212 NA 
HETATM   18  C   UNL     1     -10.405  11.206  65.149  1.00  0.00    -0.293 A  
HETATM   19  C   UNL     1     -11.170  12.169  65.758  1.00  0.00    -0.339 A  
HETATM   20  N   UNL     1     -11.877  13.066  65.062  1.00  0.00    -0.342 NA 
HETATM   21  C   UNL     1     -11.827  12.963  63.694  1.00  0.00    -0.532 C  
HETATM   22  N   UNL     1     -12.617  13.861  63.056  1.00  0.00    -0.908 NA 
HETATM   23  N   UNL     1     -11.139  12.092  63.014  1.00  0.00    -0.645 N  
HETATM   24  H2  UNL     1     -13.194  14.545  63.545  1.00  0.00     0.000 HD 
HETATM   25  H1  UNL     1     -12.580  13.785  62.039  1.00  0.00     0.000 HD 
HETATM   26  H   UNL     1     -11.172  12.102  61.994  1.00  0.00     0.000 HD 
HETATM   27  C   UNL     1     -10.354  11.143  63.679  1.00  0.00    -0.389 C  
HETATM   28  O   UNL     1      -9.679  10.312  63.083  1.00  0.00    -0.301 OA 
ENDBRANCH  14  15
ENDBRANCH  13  14
ENDBRANCH  12  13
BRANCH  12  29
HETATM   29  C   UNL     1     -11.529  15.722  69.292  1.00  0.00    -0.365 C  
HETATM   30  O   UNL     1     -10.423  15.918  70.176  1.00  0.00    -0.301 OA 
HETATM   31  H   UNL     1     -10.711  16.407  70.937  1.00  0.00     0.000 HD 
ENDBRANCH  12  29
ENDBRANCH  11  12
ENDBRANCH  10  11
ENDBRANCH   8  10
ENDBRANCH   4   8
TORSDOF 8
ENDMDL
MODEL       61
REMARK 921   NORMALIZED FREE ENERGY PREDICTED BY IDOCK:   -5.80 KCAL/MOL
REMARK 922        TOTAL FREE ENERGY PREDICTED BY IDOCK:   -9.73 KCAL/MOL
REMARK 923 INTER-LIGAND FREE ENERGY PREDICTED BY IDOCK:   -8.65 KCAL/MOL
REMARK 924 INTRA-LIGAND FREE ENERGY PREDICTED BY IDOCK:   -1.08 KCAL/MOL
REMARK 927      BINDING AFFINITY PREDICTED BY RF-SCORE:    0.00 PKD
ROOT
HETATM    1  C   UNL     1     -10.589   7.739  67.662  1.00  0.00    -0.283 C  
HETATM    2  C   UNL     1      -9.868   8.930  68.305  1.00  0.00    -0.187 C  
HETATM    3  C   UNL     1     -10.138   8.947  69.813  1.00  0.00    -0.205 C  
HETATM    4  C   UNL     1     -10.221  10.284  67.640  1.00  0.00    -0.205 C  
HETATM    5  N   UNL     1     -11.670  10.575  67.712  1.00  0.00    -0.656 NA 
HETATM    6  H1  UNL     1     -11.902  11.466  67.274  1.00  0.00     0.000 HD 
HETATM    7  H2  UNL     1     -12.009  10.535  68.673  1.00  0.00     0.000 HD 
ENDROOT
BRANCH   4   8
HETATM    8  C   UNL     1      -9.711  10.336  66.185  1.00  0.00    -0.211 C  
HETATM    9  O   UNL     1      -8.556  10.106  65.846  1.00  0.00    -0.138 OA 
BRANCH   8  10
HETATM   10  O   UNL     1     -10.691  10.741  65.323  1.00  0.00    -0.202 OA 
BRANCH  10  11
HETATM   11  C   UNL     1     -10.272  11.028  63.976  1.00  0.00    -0.358 C  
BRANCH  11  12
HETATM   12  C   UNL     1     -10.692  12.456  63.591  1.00  0.00    -0.455 C  
BRANCH  12  13
HETATM   13  O   UNL     1     -10.333  13.442  64.587  1.00  0.00    -0.395 OA 
BRANCH  13  14
HETATM   14  C   UNL     1     -11.327  14.450  64.758  1.00  0.00    -0.388 C  
BRANCH  14  15
HETATM   15  N   UNL     1     -11.499  14.709  66.170  1.00  0.00    -0.349 NA 
HETATM   16  C   UNL     1     -12.136  13.870  67.055  1.00  0.00    -0.415 A  
HETATM   17  N   UNL     1     -12.034  14.292  68.301  1.00  0.00    -0.335 NA 
HETATM   18  C   UNL     1     -11.294  15.451  68.221  1.00  0.00    -0.348 A  
HETATM   19  C   UNL     1     -10.970  15.709  66.913  1.00  0.00    -0.243 A  
HETATM   20  N   UNL     1     -10.236  16.768  66.553  1.00  0.00    -0.307 NA 
HETATM   21  C   UNL     1      -9.793  17.583  67.565  1.00  0.00    -0.293 C  
HETATM   22  N   UNL     1      -9.003  18.597  67.134  1.00  0.00    -0.276 NA 
HETATM   23  N   UNL     1     -10.038  17.434  68.834  1.00  0.00    -0.331 N  
HETATM   24  H2  UNL     1      -8.761  18.740  66.153  1.00  0.00     0.000 HD 
HETATM   25  H1  UNL     1      -8.674  19.203  67.885  1.00  0.00     0.000 HD 
HETATM   26  H   UNL     1      -9.658  18.100  69.507  1.00  0.00     0.000 HD 
HETATM   27  C   UNL     1     -10.823  16.363  69.277  1.00  0.00    -0.327 C  
HETATM   28  O   UNL     1     -11.092  16.189  70.460  1.00  0.00    -0.349 OA 
ENDBRANCH  14  15
ENDBRANCH  13  14
ENDBRANCH  12  13
BRANCH  12  29
HETATM   29  C   UNL     1     -12.214  12.529  63.398  1.00  0.00    -0.517 C  
HETATM   30  O   UNL     1     -12.674  11.321  62.788  1.00  0.00    -0.876 OA 
HETATM   31  H   UNL     1     -13.615  11.367  62.668  1.00  0.00     0.000 HD 
ENDBRANCH  12  29
ENDBRANCH  11  12
ENDBRANCH  10  11
ENDBRANCH   8  10
ENDBRANCH   4   8
TORSDOF 8
ENDMDL
MODEL       62
REMARK 921   NORMALIZED FREE ENERGY PREDICTED BY IDOCK:   -5.80 KCAL/MOL
REMARK 922        TOTAL FREE ENERGY PREDICTED BY IDOCK:   -9.73 KCAL/MOL
REMARK 923 INTER-LIGAND FREE ENERGY PREDICTED BY IDOCK:   -8.71 KCAL/MOL
REMARK 924 INTRA-LIGAND FREE ENERGY PREDICTED BY IDOCK:   -1.01 KCAL/MOL
REMARK 927      BINDING AFFINITY PREDICTED BY RF-SCORE:    0.00 PKD
ROOT
HETATM    1  C   UNL     1     -10.996  16.267  67.216  1.00  0.00    -0.144 C  
HETATM    2  C   UNL     1     -10.041  15.631  66.199  1.00  0.00    -0.333 C  
HETATM    3  C   UNL     1      -8.792  16.505  66.043  1.00  0.00    -0.267 C  
HETATM    4  C   UNL     1     -10.714  15.339  64.834  1.00  0.00    -0.400 C  
HETATM    5  N   UNL     1     -11.248  16.568  64.206  1.00  0.00    -1.353 NA 
HETATM    6  H1  UNL     1     -11.691  16.375  63.308  1.00  0.00     0.000 HD 
HETATM    7  H2  UNL     1     -10.526  17.283  64.117  1.00  0.00     0.000 HD 
ENDROOT
BRANCH   4   8
HETATM    8  C   UNL     1     -11.810  14.262  64.977  1.00  0.00    -0.396 C  
HETATM    9  O   UNL     1     -13.003  14.456  64.781  1.00  0.00    -0.616 OA 
BRANCH   8  10
HETATM   10  O   UNL     1     -11.295  13.077  65.422  1.00  0.00    -0.290 OA 
BRANCH  10  11
HETATM   11  C   UNL     1     -11.789  12.606  66.689  1.00  0.00    -0.380 C  
BRANCH  11  12
HETATM   12  C   UNL     1     -11.205  11.217  66.996  1.00  0.00    -0.255 C  
BRANCH  12  13
HETATM   13  O   UNL     1     -11.864  10.555  68.100  1.00  0.00    -0.417 OA 
BRANCH  13  14
HETATM   14  C   UNL     1     -11.942  11.366  69.271  1.00  0.00    -0.332 C  
BRANCH  14  15
HETATM   15  N   UNL     1     -11.904  10.514  70.439  1.00  0.00    -0.311 NA 
HETATM   16  C   UNL     1     -12.987  10.211  71.230  1.00  0.00    -0.413 A  
HETATM   17  N   UNL     1     -12.695   9.310  72.149  1.00  0.00    -0.389 NA 
HETATM   18  C   UNL     1     -11.366   9.012  71.940  1.00  0.00    -0.368 A  
HETATM   19  C   UNL     1     -10.881   9.755  70.893  1.00  0.00    -0.328 A  
HETATM   20  N   UNL     1      -9.618   9.647  70.465  1.00  0.00    -0.247 NA 
HETATM   21  C   UNL     1      -8.824   8.730  71.109  1.00  0.00    -0.219 C  
HETATM   22  N   UNL     1      -7.580   8.628  70.582  1.00  0.00    -0.071 NA 
HETATM   23  N   UNL     1      -9.179   7.975  72.108  1.00  0.00    -0.154 N  
HETATM   24  H2  UNL     1      -7.264   9.179  69.784  1.00  0.00     0.000 HD 
HETATM   25  H1  UNL     1      -6.990   7.948  71.060  1.00  0.00     0.000 HD 
HETATM   26  H   UNL     1      -8.509   7.323  72.516  1.00  0.00     0.000 HD 
HETATM   27  C   UNL     1     -10.478   8.057  72.624  1.00  0.00    -0.339 C  
HETATM   28  O   UNL     1     -10.854   7.378  73.572  1.00  0.00    -0.379 OA 
ENDBRANCH  14  15
ENDBRANCH  13  14
ENDBRANCH  12  13
BRANCH  12  29
HETATM   29  C   UNL     1      -9.715  11.335  67.352  1.00  0.00    -0.173 C  
HETATM   30  O   UNL     1      -9.166  10.027  67.533  1.00  0.00    -0.137 OA 
HETATM   31  H   UNL     1      -8.245  10.100  67.753  1.00  0.00     0.000 HD 
ENDBRANCH  12  29
ENDBRANCH  11  12
ENDBRANCH  10  11
ENDBRANCH   8  10
ENDBRANCH   4   8
TORSDOF 8
ENDMDL
MODEL       63
REMARK 921   NORMALIZED FREE ENERGY PREDICTED BY IDOCK:   -5.80 KCAL/MOL
REMARK 922        TOTAL FREE ENERGY PREDICTED BY IDOCK:   -9.73 KCAL/MOL
REMARK 923 INTER-LIGAND FREE ENERGY PREDICTED BY IDOCK:   -9.06 KCAL/MOL
REMARK 924 INTRA-LIGAND FREE ENERGY PREDICTED BY IDOCK:   -0.67 KCAL/MOL
REMARK 927      BINDING AFFINITY PREDICTED BY RF-SCORE:    0.00 PKD
ROOT
HETATM    1  C   UNL     1     -10.467   8.939  67.071  1.00  0.00    -0.326 C  
HETATM    2  C   UNL     1      -9.889  10.270  66.575  1.00  0.00    -0.265 C  
HETATM    3  C   UNL     1      -8.408  10.095  66.227  1.00  0.00    -0.130 C  
HETATM    4  C   UNL     1     -10.115  11.439  67.568  1.00  0.00    -0.183 C  
HETATM    5  N   UNL     1      -9.497  11.171  68.886  1.00  0.00    -0.338 NA 
HETATM    6  H1  UNL     1      -9.645  11.940  69.539  1.00  0.00     0.000 HD 
HETATM    7  H2  UNL     1      -8.505  10.951  68.792  1.00  0.00     0.000 HD 
ENDROOT
BRANCH   4   8
HETATM    8  C   UNL     1     -11.617  11.762  67.709  1.00  0.00    -0.304 C  
HETATM    9  O   UNL     1     -12.343  11.317  68.590  1.00  0.00    -0.534 OA 
BRANCH   8  10
HETATM   10  O   UNL     1     -12.060  12.552  66.686  1.00  0.00    -0.562 OA 
BRANCH  10  11
HETATM   11  C   UNL     1     -11.774  13.958  66.799  1.00  0.00    -0.399 C  
BRANCH  11  12
HETATM   12  C   UNL     1     -11.106  14.463  65.510  1.00  0.00    -0.326 C  
BRANCH  12  13
HETATM   13  O   UNL     1     -10.519  15.777  65.652  1.00  0.00    -0.336 OA 
BRANCH  13  14
HETATM   14  C   UNL     1     -10.625  16.296  66.976  1.00  0.00    -0.284 C  
BRANCH  14  15
HETATM   15  N   UNL     1     -10.043  17.619  67.012  1.00  0.00    -0.317 NA 
HETATM   16  C   UNL     1     -10.716  18.769  67.352  1.00  0.00    -0.424 A  
HETATM   17  N   UNL     1      -9.911  19.812  67.428  1.00  0.00    -0.373 NA 
HETATM   18  C   UNL     1      -8.661  19.316  67.130  1.00  0.00    -0.290 A  
HETATM   19  C   UNL     1      -8.744  17.971  66.871  1.00  0.00    -0.251 A  
HETATM   20  N   UNL     1      -7.669  17.233  66.571  1.00  0.00    -0.261 NA 
HETATM   21  C   UNL     1      -6.459  17.883  66.560  1.00  0.00    -0.210 C  
HETATM   22  N   UNL     1      -5.408  17.063  66.313  1.00  0.00    -0.355 NA 
HETATM   23  N   UNL     1      -6.265  19.149  66.790  1.00  0.00    -0.178 N  
HETATM   24  H2  UNL     1      -5.506  16.061  66.152  1.00  0.00     0.000 HD 
HETATM   25  H1  UNL     1      -4.509  17.545  66.304  1.00  0.00     0.000 HD 
HETATM   26  H   UNL     1      -5.321  19.534  66.757  1.00  0.00     0.000 HD 
HETATM   27  C   UNL     1      -7.350  19.984  67.083  1.00  0.00    -0.258 C  
HETATM   28  O   UNL     1      -7.219  21.184  67.293  1.00  0.00    -0.441 OA 
ENDBRANCH  14  15
ENDBRANCH  13  14
ENDBRANCH  12  13
BRANCH  12  29
HETATM   29  C   UNL     1     -12.136  14.539  64.372  1.00  0.00    -0.472 C  
HETATM   30  O   UNL     1     -12.132  15.855  63.816  1.00  0.00    -1.239 OA 
HETATM   31  H   UNL     1     -12.769  15.902  63.113  1.00  0.00     0.000 HD 
ENDBRANCH  12  29
ENDBRANCH  11  12
ENDBRANCH  10  11
ENDBRANCH   8  10
ENDBRANCH   4   8
TORSDOF 8
ENDMDL
MODEL       64
REMARK 921   NORMALIZED FREE ENERGY PREDICTED BY IDOCK:   -5.80 KCAL/MOL
REMARK 922        TOTAL FREE ENERGY PREDICTED BY IDOCK:   -9.72 KCAL/MOL
REMARK 923 INTER-LIGAND FREE ENERGY PREDICTED BY IDOCK:   -9.00 KCAL/MOL
REMARK 924 INTRA-LIGAND FREE ENERGY PREDICTED BY IDOCK:   -0.72 KCAL/MOL
REMARK 927      BINDING AFFINITY PREDICTED BY RF-SCORE:    0.00 PKD
ROOT
HETATM    1  C   UNL     1      -9.695   7.033  73.430  1.00  0.00    -0.253 C  
HETATM    2  C   UNL     1     -11.132   6.556  73.185  1.00  0.00    -0.197 C  
HETATM    3  C   UNL     1     -11.185   5.025  73.230  1.00  0.00    -0.411 C  
HETATM    4  C   UNL     1     -11.743   7.116  71.876  1.00  0.00    -0.292 C  
HETATM    5  N   UNL     1     -10.955   6.723  70.686  1.00  0.00    -0.252 NA 
HETATM    6  H1  UNL     1     -11.358   7.092  69.824  1.00  0.00     0.000 HD 
HETATM    7  H2  UNL     1     -10.838   5.711  70.636  1.00  0.00     0.000 HD 
ENDROOT
BRANCH   4   8
HETATM    8  C   UNL     1     -11.912   8.647  71.955  1.00  0.00    -0.372 C  
HETATM    9  O   UNL     1     -12.807   9.215  72.570  1.00  0.00    -0.388 OA 
BRANCH   8  10
HETATM   10  O   UNL     1     -10.982   9.296  71.193  1.00  0.00    -0.281 OA 
BRANCH  10  11
HETATM   11  C   UNL     1     -11.431  10.486  70.520  1.00  0.00    -0.345 C  
BRANCH  11  12
HETATM   12  C   UNL     1     -10.378  10.938  69.496  1.00  0.00    -0.101 C  
BRANCH  12  13
HETATM   13  O   UNL     1     -10.923  11.142  68.172  1.00  0.00    -0.202 OA 
BRANCH  13  14
HETATM   14  C   UNL     1     -12.035  12.035  68.157  1.00  0.00    -0.163 C  
BRANCH  14  15
HETATM   15  N   UNL     1     -11.574  13.358  67.801  1.00  0.00    -0.319 NA 
HETATM   16  C   UNL     1     -10.857  14.193  68.626  1.00  0.00    -0.255 A  
HETATM   17  N   UNL     1     -10.455  15.284  68.001  1.00  0.00    -0.244 NA 
HETATM   18  C   UNL     1     -10.928  15.147  66.714  1.00  0.00    -0.321 A  
HETATM   19  C   UNL     1     -11.618  13.967  66.593  1.00  0.00    -0.374 A  
HETATM   20  N   UNL     1     -12.168  13.575  65.439  1.00  0.00    -0.418 NA 
HETATM   21  C   UNL     1     -11.988  14.403  64.358  1.00  0.00    -0.452 C  
HETATM   22  N   UNL     1     -12.516  13.913  63.209  1.00  0.00    -1.112 NA 
HETATM   23  N   UNL     1     -11.354  15.540  64.358  1.00  0.00    -0.727 N  
HETATM   24  H2  UNL     1     -12.998  13.016  63.153  1.00  0.00     0.000 HD 
HETATM   25  H1  UNL     1     -12.383  14.528  62.406  1.00  0.00     0.000 HD 
HETATM   26  H   UNL     1     -11.277  16.080  63.496  1.00  0.00     0.000 HD 
HETATM   27  C   UNL     1     -10.778  16.023  65.540  1.00  0.00    -0.361 C  
HETATM   28  O   UNL     1     -10.184  17.093  65.592  1.00  0.00    -0.564 OA 
ENDBRANCH  14  15
ENDBRANCH  13  14
ENDBRANCH  12  13
BRANCH  12  29
HETATM   29  C   UNL     1      -9.264   9.886  69.379  1.00  0.00    -0.214 C  
HETATM   30  O   UNL     1      -8.357  10.031  70.473  1.00  0.00    -0.385 OA 
HETATM   31  H   UNL     1      -7.668   9.381  70.400  1.00  0.00     0.000 HD 
ENDBRANCH  12  29
ENDBRANCH  11  12
ENDBRANCH  10  11
ENDBRANCH   8  10
ENDBRANCH   4   8
TORSDOF 8
ENDMDL
MODEL       65
REMARK 921   NORMALIZED FREE ENERGY PREDICTED BY IDOCK:   -5.80 KCAL/MOL
REMARK 922        TOTAL FREE ENERGY PREDICTED BY IDOCK:   -9.72 KCAL/MOL
REMARK 923 INTER-LIGAND FREE ENERGY PREDICTED BY IDOCK:   -9.30 KCAL/MOL
REMARK 924 INTRA-LIGAND FREE ENERGY PREDICTED BY IDOCK:   -0.42 KCAL/MOL
REMARK 927      BINDING AFFINITY PREDICTED BY RF-SCORE:    0.00 PKD
ROOT
HETATM    1  C   UNL     1     -10.340  12.593  64.036  1.00  0.00    -0.414 C  
HETATM    2  C   UNL     1     -11.742  12.606  64.657  1.00  0.00    -0.411 C  
HETATM    3  C   UNL     1     -12.716  11.843  63.754  1.00  0.00    -0.466 C  
HETATM    4  C   UNL     1     -12.251  14.033  64.979  1.00  0.00    -0.433 C  
HETATM    5  N   UNL     1     -12.313  14.884  63.769  1.00  0.00    -1.071 NA 
HETATM    6  H1  UNL     1     -12.648  15.823  63.981  1.00  0.00     0.000 HD 
HETATM    7  H2  UNL     1     -12.874  14.448  63.038  1.00  0.00     0.000 HD 
ENDROOT
BRANCH   4   8
HETATM    8  C   UNL     1     -11.395  14.690  66.082  1.00  0.00    -0.350 C  
HETATM    9  O   UNL     1     -10.444  15.434  65.872  1.00  0.00    -0.302 OA 
BRANCH   8  10
HETATM   10  O   UNL     1     -11.781  14.284  67.328  1.00  0.00    -0.356 OA 
BRANCH  10  11
HETATM   11  C   UNL     1     -11.758  15.287  68.359  1.00  0.00    -0.321 C  
BRANCH  11  12
HETATM   12  C   UNL     1     -11.652  14.618  69.739  1.00  0.00    -0.296 C  
BRANCH  12  13
HETATM   13  O   UNL     1     -12.322  13.338  69.802  1.00  0.00    -0.240 OA 
BRANCH  13  14
HETATM   14  C   UNL     1     -11.442  12.236  69.592  1.00  0.00    -0.215 C  
BRANCH  14  15
HETATM   15  N   UNL     1     -11.886  11.117  70.393  1.00  0.00    -0.353 NA 
HETATM   16  C   UNL     1     -12.891  11.167  71.330  1.00  0.00    -0.412 A  
HETATM   17  N   UNL     1     -13.176   9.974  71.817  1.00  0.00    -0.424 NA 
HETATM   18  C   UNL     1     -12.322   9.113  71.164  1.00  0.00    -0.267 A  
HETATM   19  C   UNL     1     -11.528   9.816  70.293  1.00  0.00    -0.255 A  
HETATM   20  N   UNL     1     -10.618   9.220  69.514  1.00  0.00    -0.221 NA 
HETATM   21  C   UNL     1     -10.529   7.852  69.606  1.00  0.00    -0.226 C  
HETATM   22  N   UNL     1      -9.634   7.311  68.744  1.00  0.00    -0.142 NA 
HETATM   23  N   UNL     1     -11.230   7.088  70.393  1.00  0.00    -0.285 N  
HETATM   24  H2  UNL     1      -9.081   7.865  68.091  1.00  0.00     0.000 HD 
HETATM   25  H1  UNL     1      -9.568   6.295  68.812  1.00  0.00     0.000 HD 
HETATM   26  H   UNL     1     -11.086   6.079  70.382  1.00  0.00     0.000 HD 
HETATM   27  C   UNL     1     -12.181   7.650  71.254  1.00  0.00    -0.315 C  
HETATM   28  O   UNL     1     -12.854   6.974  72.022  1.00  0.00    -0.270 OA 
ENDBRANCH  14  15
ENDBRANCH  13  14
ENDBRANCH  12  13
BRANCH  12  29
HETATM   29  C   UNL     1     -12.277  15.519  70.816  1.00  0.00    -0.403 C  
HETATM   30  O   UNL     1     -13.700  15.498  70.684  1.00  0.00    -0.851 OA 
HETATM   31  H   UNL     1     -14.086  16.055  71.350  1.00  0.00     0.000 HD 
ENDBRANCH  12  29
ENDBRANCH  11  12
ENDBRANCH  10  11
ENDBRANCH   8  10
ENDBRANCH   4   8
TORSDOF 8
ENDMDL
MODEL       66
REMARK 921   NORMALIZED FREE ENERGY PREDICTED BY IDOCK:   -5.80 KCAL/MOL
REMARK 922        TOTAL FREE ENERGY PREDICTED BY IDOCK:   -9.72 KCAL/MOL
REMARK 923 INTER-LIGAND FREE ENERGY PREDICTED BY IDOCK:   -8.77 KCAL/MOL
REMARK 924 INTRA-LIGAND FREE ENERGY PREDICTED BY IDOCK:   -0.95 KCAL/MOL
REMARK 927      BINDING AFFINITY PREDICTED BY RF-SCORE:    0.00 PKD
ROOT
HETATM    1  C   UNL     1      -8.181  19.708  66.668  1.00  0.00    -0.342 C  
HETATM    2  C   UNL     1      -9.546  19.048  66.438  1.00  0.00    -0.386 C  
HETATM    3  C   UNL     1     -10.541  20.085  65.908  1.00  0.00    -0.459 C  
HETATM    4  C   UNL     1     -10.087  18.318  67.694  1.00  0.00    -0.356 C  
HETATM    5  N   UNL     1     -10.247  19.238  68.842  1.00  0.00    -0.555 NA 
HETATM    6  H1  UNL     1     -10.603  18.758  69.668  1.00  0.00     0.000 HD 
HETATM    7  H2  UNL     1     -10.831  20.038  68.598  1.00  0.00     0.000 HD 
ENDROOT
BRANCH   4   8
HETATM    8  C   UNL     1      -9.195  17.114  68.061  1.00  0.00    -0.250 C  
HETATM    9  O   UNL     1      -8.247  17.163  68.835  1.00  0.00    -0.255 OA 
BRANCH   8  10
HETATM   10  O   UNL     1      -9.547  15.995  67.360  1.00  0.00    -0.223 OA 
BRANCH  10  11
HETATM   11  C   UNL     1     -10.954  15.817  67.113  1.00  0.00    -0.244 C  
BRANCH  11  12
HETATM   12  C   UNL     1     -11.315  14.325  67.195  1.00  0.00    -0.337 C  
BRANCH  12  13
HETATM   13  O   UNL     1     -12.212  14.017  68.287  1.00  0.00    -0.328 OA 
BRANCH  13  14
HETATM   14  C   UNL     1     -11.613  14.200  69.569  1.00  0.00    -0.295 C  
BRANCH  14  15
HETATM   15  N   UNL     1     -12.160  13.227  70.488  1.00  0.00    -0.345 NA 
HETATM   16  C   UNL     1     -13.048  13.509  71.500  1.00  0.00    -0.344 A  
HETATM   17  N   UNL     1     -13.481  12.416  72.100  1.00  0.00    -0.492 NA 
HETATM   18  C   UNL     1     -12.850  11.381  71.446  1.00  0.00    -0.397 A  
HETATM   19  C   UNL     1     -12.036  11.880  70.459  1.00  0.00    -0.331 A  
HETATM   20  N   UNL     1     -11.318  11.088  69.656  1.00  0.00    -0.268 NA 
HETATM   21  C   UNL     1     -11.452   9.734  69.845  1.00  0.00    -0.140 C  
HETATM   22  N   UNL     1     -10.748   8.993  68.955  1.00  0.00    -0.376 NA 
HETATM   23  N   UNL     1     -12.192   9.154  70.744  1.00  0.00    -0.474 N  
HETATM   24  H2  UNL     1     -10.175   9.401  68.216  1.00  0.00     0.000 HD 
HETATM   25  H1  UNL     1     -10.847   7.987  69.095  1.00  0.00     0.000 HD 
HETATM   26  H   UNL     1     -12.222   8.136  70.800  1.00  0.00     0.000 HD 
HETATM   27  C   UNL     1     -12.948   9.924  71.636  1.00  0.00    -0.434 C  
HETATM   28  O   UNL     1     -13.648   9.424  72.508  1.00  0.00    -0.459 OA 
ENDBRANCH  14  15
ENDBRANCH  13  14
ENDBRANCH  12  13
BRANCH  12  29
HETATM   29  C   UNL     1     -10.047  13.480  67.387  1.00  0.00    -0.237 C  
HETATM   30  O   UNL     1      -9.351  13.380  66.143  1.00  0.00    -0.441 OA 
HETATM   31  H   UNL     1      -8.567  12.857  66.262  1.00  0.00     0.000 HD 
ENDBRANCH  12  29
ENDBRANCH  11  12
ENDBRANCH  10  11
ENDBRANCH   8  10
ENDBRANCH   4   8
TORSDOF 8
ENDMDL
MODEL       67
REMARK 921   NORMALIZED FREE ENERGY PREDICTED BY IDOCK:   -5.78 KCAL/MOL
REMARK 922        TOTAL FREE ENERGY PREDICTED BY IDOCK:   -9.70 KCAL/MOL
REMARK 923 INTER-LIGAND FREE ENERGY PREDICTED BY IDOCK:   -8.27 KCAL/MOL
REMARK 924 INTRA-LIGAND FREE ENERGY PREDICTED BY IDOCK:   -1.43 KCAL/MOL
REMARK 927      BINDING AFFINITY PREDICTED BY RF-SCORE:    0.00 PKD
ROOT
HETATM    1  C   UNL     1     -11.745  15.814  71.567  1.00  0.00    -0.523 C  
HETATM    2  C   UNL     1     -12.877  15.276  70.683  1.00  0.00    -0.462 C  
HETATM    3  C   UNL     1     -14.129  15.034  71.533  1.00  0.00    -0.613 C  
HETATM    4  C   UNL     1     -12.472  14.015  69.879  1.00  0.00    -0.246 C  
HETATM    5  N   UNL     1     -12.059  12.903  70.765  1.00  0.00    -0.492 NA 
HETATM    6  H1  UNL     1     -11.794  12.073  70.236  1.00  0.00     0.000 HD 
HETATM    7  H2  UNL     1     -12.782  12.689  71.452  1.00  0.00     0.000 HD 
ENDROOT
BRANCH   4   8
HETATM    8  C   UNL     1     -11.375  14.345  68.846  1.00  0.00    -0.274 C  
HETATM    9  O   UNL     1     -10.183  14.448  69.110  1.00  0.00    -0.212 OA 
BRANCH   8  10
HETATM   10  O   UNL     1     -11.904  14.583  67.609  1.00  0.00    -0.371 OA 
BRANCH  10  11
HETATM   11  C   UNL     1     -11.125  14.127  66.488  1.00  0.00    -0.318 C  
BRANCH  11  12
HETATM   12  C   UNL     1     -11.581  12.719  66.071  1.00  0.00    -0.383 C  
BRANCH  12  13
HETATM   13  O   UNL     1     -10.487  11.865  65.665  1.00  0.00    -0.244 OA 
BRANCH  13  14
HETATM   14  C   UNL     1      -9.684  11.427  66.760  1.00  0.00    -0.198 C  
BRANCH  14  15
HETATM   15  N   UNL     1     -10.007  10.050  67.061  1.00  0.00    -0.195 NA 
HETATM   16  C   UNL     1      -9.695   8.974  66.264  1.00  0.00    -0.275 A  
HETATM   17  N   UNL     1      -9.992   7.825  66.843  1.00  0.00    -0.236 NA 
HETATM   18  C   UNL     1     -10.513   8.172  68.070  1.00  0.00    -0.183 A  
HETATM   19  C   UNL     1     -10.526   9.539  68.201  1.00  0.00    -0.223 A  
HETATM   20  N   UNL     1     -10.967  10.146  69.308  1.00  0.00    -0.231 NA 
HETATM   21  C   UNL     1     -11.386   9.333  70.332  1.00  0.00    -0.242 C  
HETATM   22  N   UNL     1     -11.757  10.014  71.444  1.00  0.00    -0.362 NA 
HETATM   23  N   UNL     1     -11.417   8.032  70.317  1.00  0.00    -0.456 N  
HETATM   24  H2  UNL     1     -11.727  11.031  71.514  1.00  0.00     0.000 HD 
HETATM   25  H1  UNL     1     -12.070   9.410  72.205  1.00  0.00     0.000 HD 
HETATM   26  H   UNL     1     -11.748   7.521  71.135  1.00  0.00     0.000 HD 
HETATM   27  C   UNL     1     -10.996   7.333  69.179  1.00  0.00    -0.068 C  
HETATM   28  O   UNL     1     -11.019   6.110  69.112  1.00  0.00    -0.318 OA 
ENDBRANCH  14  15
ENDBRANCH  13  14
ENDBRANCH  12  13
BRANCH  12  29
HETATM   29  C   UNL     1     -12.561  12.805  64.891  1.00  0.00    -0.470 C  
HETATM   30  O   UNL     1     -13.139  14.111  64.848  1.00  0.00    -0.677 OA 
HETATM   31  H   UNL     1     -13.745  14.164  64.119  1.00  0.00     0.000 HD 
ENDBRANCH  12  29
ENDBRANCH  11  12
ENDBRANCH  10  11
ENDBRANCH   8  10
ENDBRANCH   4   8
TORSDOF 8
ENDMDL
MODEL       68
REMARK 921   NORMALIZED FREE ENERGY PREDICTED BY IDOCK:   -5.78 KCAL/MOL
REMARK 922        TOTAL FREE ENERGY PREDICTED BY IDOCK:   -9.70 KCAL/MOL
REMARK 923 INTER-LIGAND FREE ENERGY PREDICTED BY IDOCK:   -9.05 KCAL/MOL
REMARK 924 INTRA-LIGAND FREE ENERGY PREDICTED BY IDOCK:   -0.65 KCAL/MOL
REMARK 927      BINDING AFFINITY PREDICTED BY RF-SCORE:    0.00 PKD
ROOT
HETATM    1  C   UNL     1      -8.240  17.623  68.462  1.00  0.00    -0.292 C  
HETATM    2  C   UNL     1      -9.548  18.272  67.992  1.00  0.00    -0.314 C  
HETATM    3  C   UNL     1      -9.963  19.372  68.975  1.00  0.00    -0.477 C  
HETATM    4  C   UNL     1     -10.686  17.246  67.760  1.00  0.00    -0.333 C  
HETATM    5  N   UNL     1     -11.005  16.486  68.990  1.00  0.00    -0.316 NA 
HETATM    6  H1  UNL     1     -11.754  15.811  68.837  1.00  0.00     0.000 HD 
HETATM    7  H2  UNL     1     -11.223  17.111  69.766  1.00  0.00     0.000 HD 
ENDROOT
BRANCH   4   8
HETATM    8  C   UNL     1     -10.348  16.299  66.590  1.00  0.00    -0.302 C  
HETATM    9  O   UNL     1      -9.825  16.654  65.540  1.00  0.00    -0.549 OA 
BRANCH   8  10
HETATM   10  O   UNL     1     -10.771  15.023  66.836  1.00  0.00    -0.295 OA 
BRANCH  10  11
HETATM   11  C   UNL     1     -10.565  14.071  65.777  1.00  0.00    -0.299 C  
BRANCH  11  12
HETATM   12  C   UNL     1     -11.856  13.274  65.531  1.00  0.00    -0.370 C  
BRANCH  12  13
HETATM   13  O   UNL     1     -11.925  12.052  66.302  1.00  0.00    -0.596 OA 
BRANCH  13  14
HETATM   14  C   UNL     1     -10.687  11.346  66.342  1.00  0.00    -0.275 C  
BRANCH  14  15
HETATM   15  N   UNL     1     -10.625  10.570  67.560  1.00  0.00    -0.239 NA 
HETATM   16  C   UNL     1     -10.612  11.095  68.831  1.00  0.00    -0.207 A  
HETATM   17  N   UNL     1     -10.684  10.157  69.757  1.00  0.00    -0.260 NA 
HETATM   18  C   UNL     1     -10.751   8.973  69.055  1.00  0.00    -0.141 A  
HETATM   19  C   UNL     1     -10.711   9.228  67.707  1.00  0.00    -0.207 A  
HETATM   20  N   UNL     1     -10.779   8.253  66.793  1.00  0.00    -0.176 NA 
HETATM   21  C   UNL     1     -10.920   6.972  67.268  1.00  0.00    -0.302 C  
HETATM   22  N   UNL     1     -11.048   6.045  66.287  1.00  0.00    -0.672 NA 
HETATM   23  N   UNL     1     -10.971   6.618  68.519  1.00  0.00    -0.433 N  
HETATM   24  H2  UNL     1     -11.041   6.276  65.294  1.00  0.00     0.000 HD 
HETATM   25  H1  UNL     1     -11.153   5.093  66.639  1.00  0.00     0.000 HD 
HETATM   26  H   UNL     1     -11.078   5.634  68.765  1.00  0.00     0.000 HD 
HETATM   27  C   UNL     1     -10.876   7.584  69.527  1.00  0.00    -0.175 C  
HETATM   28  O   UNL     1     -10.905   7.298  70.718  1.00  0.00    -0.232 OA 
ENDBRANCH  14  15
ENDBRANCH  13  14
ENDBRANCH  12  13
BRANCH  12  29
HETATM   29  C   UNL     1     -11.970  12.890  64.048  1.00  0.00    -0.451 C  
HETATM   30  O   UNL     1     -12.385  14.030  63.293  1.00  0.00    -1.133 OA 
HETATM   31  H   UNL     1     -12.455  13.793  62.376  1.00  0.00     0.000 HD 
ENDBRANCH  12  29
ENDBRANCH  11  12
ENDBRANCH  10  11
ENDBRANCH   8  10
ENDBRANCH   4   8
TORSDOF 8
ENDMDL
MODEL       69
REMARK 921   NORMALIZED FREE ENERGY PREDICTED BY IDOCK:   -5.77 KCAL/MOL
REMARK 922        TOTAL FREE ENERGY PREDICTED BY IDOCK:   -9.69 KCAL/MOL
REMARK 923 INTER-LIGAND FREE ENERGY PREDICTED BY IDOCK:   -8.56 KCAL/MOL
REMARK 924 INTRA-LIGAND FREE ENERGY PREDICTED BY IDOCK:   -1.13 KCAL/MOL
REMARK 927      BINDING AFFINITY PREDICTED BY RF-SCORE:    0.00 PKD
ROOT
HETATM    1  C   UNL     1     -10.252  12.013  64.754  1.00  0.00    -0.311 C  
HETATM    2  C   UNL     1     -11.774  12.114  64.915  1.00  0.00    -0.373 C  
HETATM    3  C   UNL     1     -12.408  12.544  63.588  1.00  0.00    -0.618 C  
HETATM    4  C   UNL     1     -12.201  13.035  66.085  1.00  0.00    -0.360 C  
HETATM    5  N   UNL     1     -11.699  14.417  65.912  1.00  0.00    -0.367 NA 
HETATM    6  H1  UNL     1     -11.981  15.023  66.683  1.00  0.00     0.000 HD 
HETATM    7  H2  UNL     1     -11.982  14.805  65.013  1.00  0.00     0.000 HD 
ENDROOT
BRANCH   4   8
HETATM    8  C   UNL     1     -11.764  12.445  67.442  1.00  0.00    -0.347 C  
HETATM    9  O   UNL     1     -12.064  11.326  67.841  1.00  0.00    -0.634 OA 
BRANCH   8  10
HETATM   10  O   UNL     1     -11.060  13.353  68.181  1.00  0.00    -0.240 OA 
BRANCH  10  11
HETATM   11  C   UNL     1     -11.544  13.600  69.513  1.00  0.00    -0.301 C  
BRANCH  11  12
HETATM   12  C   UNL     1     -12.180  14.997  69.589  1.00  0.00    -0.258 C  
BRANCH  12  13
HETATM   13  O   UNL     1     -11.705  15.894  68.559  1.00  0.00    -0.383 OA 
BRANCH  13  14
HETATM   14  C   UNL     1     -10.738  16.829  69.036  1.00  0.00    -0.331 C  
BRANCH  14  15
HETATM   15  N   UNL     1     -10.101  17.466  67.905  1.00  0.00    -0.309 NA 
HETATM   16  C   UNL     1     -10.651  17.581  66.650  1.00  0.00    -0.198 A  
HETATM   17  N   UNL     1      -9.909  18.322  65.848  1.00  0.00    -0.531 NA 
HETATM   18  C   UNL     1      -8.834  18.708  66.618  1.00  0.00    -0.302 A  
HETATM   19  C   UNL     1      -8.951  18.179  67.880  1.00  0.00    -0.269 A  
HETATM   20  N   UNL     1      -8.048  18.413  68.839  1.00  0.00    -0.231 NA 
HETATM   21  C   UNL     1      -7.000  19.238  68.512  1.00  0.00    -0.294 C  
HETATM   22  N   UNL     1      -6.162  19.482  69.549  1.00  0.00    -0.285 NA 
HETATM   23  N   UNL     1      -6.792  19.792  67.353  1.00  0.00    -0.209 N  
HETATM   24  H2  UNL     1      -6.297  19.092  70.481  1.00  0.00     0.000 HD 
HETATM   25  H1  UNL     1      -5.383  20.094  69.306  1.00  0.00     0.000 HD 
HETATM   26  H   UNL     1      -5.979  20.392  67.215  1.00  0.00     0.000 HD 
HETATM   27  C   UNL     1      -7.683  19.567  66.296  1.00  0.00    -0.308 C  
HETATM   28  O   UNL     1      -7.522  20.055  65.184  1.00  0.00    -0.311 OA 
ENDBRANCH  14  15
ENDBRANCH  13  14
ENDBRANCH  12  13
BRANCH  12  29
HETATM   29  C   UNL     1     -11.873  15.649  70.946  1.00  0.00    -0.388 C  
HETATM   30  O   UNL     1     -11.240  14.692  71.799  1.00  0.00    -0.402 OA 
HETATM   31  H   UNL     1     -11.050  15.095  72.638  1.00  0.00     0.000 HD 
ENDBRANCH  12  29
ENDBRANCH  11  12
ENDBRANCH  10  11
ENDBRANCH   8  10
ENDBRANCH   4   8
TORSDOF 8
ENDMDL
MODEL       70
REMARK 921   NORMALIZED FREE ENERGY PREDICTED BY IDOCK:   -5.74 KCAL/MOL
REMARK 922        TOTAL FREE ENERGY PREDICTED BY IDOCK:   -9.63 KCAL/MOL
REMARK 923 INTER-LIGAND FREE ENERGY PREDICTED BY IDOCK:   -9.05 KCAL/MOL
REMARK 924 INTRA-LIGAND FREE ENERGY PREDICTED BY IDOCK:   -0.58 KCAL/MOL
REMARK 927      BINDING AFFINITY PREDICTED BY RF-SCORE:    0.00 PKD
ROOT
HETATM    1  C   UNL     1     -10.603   7.527  67.156  1.00  0.00    -0.415 C  
HETATM    2  C   UNL     1      -9.783   8.557  67.942  1.00  0.00    -0.193 C  
HETATM    3  C   UNL     1      -9.796   8.202  69.432  1.00  0.00    -0.182 C  
HETATM    4  C   UNL     1     -10.241  10.016  67.693  1.00  0.00    -0.204 C  
HETATM    5  N   UNL     1     -11.657  10.223  68.069  1.00  0.00    -0.698 NA 
HETATM    6  H1  UNL     1     -11.958  11.184  67.905  1.00  0.00     0.000 HD 
HETATM    7  H2  UNL     1     -11.830   9.941  69.034  1.00  0.00     0.000 HD 
ENDROOT
BRANCH   4   8
HETATM    8  C   UNL     1      -9.983  10.435  66.230  1.00  0.00    -0.226 C  
HETATM    9  O   UNL     1      -9.070  10.004  65.536  1.00  0.00    -0.163 OA 
BRANCH   8  10
HETATM   10  O   UNL     1     -10.856  11.404  65.823  1.00  0.00    -0.275 OA 
BRANCH  10  11
HETATM   11  C   UNL     1     -10.394  12.762  65.935  1.00  0.00    -0.283 C  
BRANCH  11  12
HETATM   12  C   UNL     1     -10.736  13.539  64.653  1.00  0.00    -0.416 C  
BRANCH  12  13
HETATM   13  O   UNL     1     -10.860  14.964  64.869  1.00  0.00    -0.390 OA 
BRANCH  13  14
HETATM   14  C   UNL     1      -9.685  15.549  65.428  1.00  0.00    -0.197 C  
BRANCH  14  15
HETATM   15  N   UNL     1     -10.064  16.425  66.513  1.00  0.00    -0.282 NA 
HETATM   16  C   UNL     1     -10.851  16.065  67.581  1.00  0.00    -0.311 A  
HETATM   17  N   UNL     1     -10.929  17.022  68.487  1.00  0.00    -0.302 NA 
HETATM   18  C   UNL     1     -10.155  18.045  67.986  1.00  0.00    -0.365 A  
HETATM   19  C   UNL     1      -9.627  17.680  66.773  1.00  0.00    -0.294 A  
HETATM   20  N   UNL     1      -8.819  18.484  66.073  1.00  0.00    -0.489 NA 
HETATM   21  C   UNL     1      -8.513  19.696  66.642  1.00  0.00    -0.324 C  
HETATM   22  N   UNL     1      -7.639  20.430  65.910  1.00  0.00    -0.526 NA 
HETATM   23  N   UNL     1      -8.954  20.143  67.782  1.00  0.00    -0.306 N  
HETATM   24  H2  UNL     1      -7.247  20.112  65.024  1.00  0.00     0.000 HD 
HETATM   25  H1  UNL     1      -7.413  21.331  66.331  1.00  0.00     0.000 HD 
HETATM   26  H   UNL     1      -8.663  21.062  68.115  1.00  0.00     0.000 HD 
HETATM   27  C   UNL     1      -9.826  19.364  68.552  1.00  0.00    -0.427 C  
HETATM   28  O   UNL     1     -10.278  19.747  69.625  1.00  0.00    -0.239 OA 
ENDBRANCH  14  15
ENDBRANCH  13  14
ENDBRANCH  12  13
BRANCH  12  29
HETATM   29  C   UNL     1     -12.068  13.044  64.071  1.00  0.00    -0.450 C  
HETATM   30  O   UNL     1     -12.485  13.924  63.025  1.00  0.00    -1.099 OA 
HETATM   31  H   UNL     1     -13.309  13.618  62.665  1.00  0.00     0.000 HD 
ENDBRANCH  12  29
ENDBRANCH  11  12
ENDBRANCH  10  11
ENDBRANCH   8  10
ENDBRANCH   4   8
TORSDOF 8
ENDMDL
MODEL       71
REMARK 921   NORMALIZED FREE ENERGY PREDICTED BY IDOCK:   -5.71 KCAL/MOL
REMARK 922        TOTAL FREE ENERGY PREDICTED BY IDOCK:   -9.60 KCAL/MOL
REMARK 923 INTER-LIGAND FREE ENERGY PREDICTED BY IDOCK:   -8.60 KCAL/MOL
REMARK 924 INTRA-LIGAND FREE ENERGY PREDICTED BY IDOCK:   -1.00 KCAL/MOL
REMARK 927      BINDING AFFINITY PREDICTED BY RF-SCORE:    0.00 PKD
ROOT
HETATM    1  C   UNL     1     -11.230  15.773  67.188  1.00  0.00    -0.110 C  
HETATM    2  C   UNL     1     -10.194  15.332  66.146  1.00  0.00    -0.320 C  
HETATM    3  C   UNL     1      -9.065  16.365  66.068  1.00  0.00    -0.317 C  
HETATM    4  C   UNL     1     -10.815  15.049  64.755  1.00  0.00    -0.355 C  
HETATM    5  N   UNL     1     -11.496  16.240  64.200  1.00  0.00    -1.386 NA 
HETATM    6  H1  UNL     1     -11.904  16.053  63.284  1.00  0.00     0.000 HD 
HETATM    7  H2  UNL     1     -10.869  17.044  64.169  1.00  0.00     0.000 HD 
ENDROOT
BRANCH   4   8
HETATM    8  C   UNL     1     -11.766  13.835  64.810  1.00  0.00    -0.381 C  
HETATM    9  O   UNL     1     -12.979  13.911  64.963  1.00  0.00    -0.731 OA 
BRANCH   8  10
HETATM   10  O   UNL     1     -11.080  12.655  64.740  1.00  0.00    -0.283 OA 
BRANCH  10  11
HETATM   11  C   UNL     1     -10.992  11.898  65.961  1.00  0.00    -0.309 C  
BRANCH  11  12
HETATM   12  C   UNL     1      -9.912  10.813  65.828  1.00  0.00    -0.251 C  
BRANCH  12  13
HETATM   13  O   UNL     1     -10.231   9.603  66.553  1.00  0.00    -0.239 OA 
BRANCH  13  14
HETATM   14  C   UNL     1      -9.508   9.477  67.776  1.00  0.00    -0.131 C  
BRANCH  14  15
HETATM   15  N   UNL     1     -10.442   9.234  68.853  1.00  0.00    -0.214 NA 
HETATM   16  C   UNL     1     -10.692   8.006  69.419  1.00  0.00    -0.159 A  
HETATM   17  N   UNL     1     -11.489   8.095  70.467  1.00  0.00    -0.227 NA 
HETATM   18  C   UNL     1     -11.763   9.440  70.589  1.00  0.00    -0.240 A  
HETATM   19  C   UNL     1     -11.123  10.138  69.595  1.00  0.00    -0.263 A  
HETATM   20  N   UNL     1     -11.204  11.469  69.490  1.00  0.00    -0.253 NA 
HETATM   21  C   UNL     1     -11.943  12.119  70.448  1.00  0.00    -0.272 C  
HETATM   22  N   UNL     1     -11.928  13.468  70.317  1.00  0.00    -0.437 NA 
HETATM   23  N   UNL     1     -12.588  11.560  71.430  1.00  0.00    -0.348 N  
HETATM   24  H2  UNL     1     -11.416  13.953  69.580  1.00  0.00     0.000 HD 
HETATM   25  H1  UNL     1     -12.477  13.951  71.028  1.00  0.00     0.000 HD 
HETATM   26  H   UNL     1     -13.109  12.138  72.090  1.00  0.00     0.000 HD 
HETATM   27  C   UNL     1     -12.569  10.168  71.583  1.00  0.00    -0.434 C  
HETATM   28  O   UNL     1     -13.171   9.596  72.483  1.00  0.00    -0.378 OA 
ENDBRANCH  14  15
ENDBRANCH  13  14
ENDBRANCH  12  13
BRANCH  12  29
HETATM   29  C   UNL     1      -8.569  11.330  66.365  1.00  0.00    -0.174 C  
HETATM   30  O   UNL     1      -8.509  12.749  66.205  1.00  0.00    -0.389 OA 
HETATM   31  H   UNL     1      -7.679  13.069  66.537  1.00  0.00     0.000 HD 
ENDBRANCH  12  29
ENDBRANCH  11  12
ENDBRANCH  10  11
ENDBRANCH   8  10
ENDBRANCH   4   8
TORSDOF 8
ENDMDL
MODEL       72
REMARK 921   NORMALIZED FREE ENERGY PREDICTED BY IDOCK:   -5.67 KCAL/MOL
REMARK 922        TOTAL FREE ENERGY PREDICTED BY IDOCK:   -9.54 KCAL/MOL
REMARK 923 INTER-LIGAND FREE ENERGY PREDICTED BY IDOCK:   -8.71 KCAL/MOL
REMARK 924 INTRA-LIGAND FREE ENERGY PREDICTED BY IDOCK:   -0.83 KCAL/MOL
REMARK 927      BINDING AFFINITY PREDICTED BY RF-SCORE:    0.00 PKD
ROOT
HETATM    1  C   UNL     1     -12.029  12.176  63.684  1.00  0.00    -0.628 C  
HETATM    2  C   UNL     1     -12.216  13.259  64.754  1.00  0.00    -0.466 C  
HETATM    3  C   UNL     1     -12.409  14.623  64.083  1.00  0.00    -0.294 C  
HETATM    4  C   UNL     1     -11.071  13.285  65.797  1.00  0.00    -0.279 C  
HETATM    5  N   UNL     1      -9.754  13.532  65.167  1.00  0.00    -0.555 NA 
HETATM    6  H1  UNL     1      -9.001  13.550  65.854  1.00  0.00     0.000 HD 
HETATM    7  H2  UNL     1      -9.765  14.385  64.607  1.00  0.00     0.000 HD 
ENDROOT
BRANCH   4   8
HETATM    8  C   UNL     1     -11.056  11.991  66.636  1.00  0.00    -0.310 C  
HETATM    9  O   UNL     1     -12.058  11.376  66.980  1.00  0.00    -0.317 OA 
BRANCH   8  10
HETATM   10  O   UNL     1      -9.787  11.650  67.013  1.00  0.00    -0.190 OA 
BRANCH  10  11
HETATM   11  C   UNL     1      -9.464  11.842  68.402  1.00  0.00    -0.189 C  
BRANCH  11  12
HETATM   12  C   UNL     1      -9.689  10.535  69.178  1.00  0.00    -0.211 C  
BRANCH  12  13
HETATM   13  O   UNL     1     -10.563  10.695  70.319  1.00  0.00    -0.147 OA 
BRANCH  13  14
HETATM   14  C   UNL     1     -11.944  10.732  69.964  1.00  0.00    -0.347 C  
BRANCH  14  15
HETATM   15  N   UNL     1     -12.599  11.772  70.724  1.00  0.00    -0.293 NA 
HETATM   16  C   UNL     1     -13.215  11.593  71.940  1.00  0.00    -0.369 A  
HETATM   17  N   UNL     1     -13.615  12.735  72.468  1.00  0.00    -0.472 NA 
HETATM   18  C   UNL     1     -13.237  13.696  71.557  1.00  0.00    -0.331 A  
HETATM   19  C   UNL     1     -12.617  13.104  70.485  1.00  0.00    -0.165 A  
HETATM   20  N   UNL     1     -12.131  13.813  69.460  1.00  0.00    -0.338 NA 
HETATM   21  C   UNL     1     -12.258  15.178  69.539  1.00  0.00    -0.233 C  
HETATM   22  N   UNL     1     -11.687  15.834  68.499  1.00  0.00    -0.423 NA 
HETATM   23  N   UNL     1     -12.824  15.842  70.504  1.00  0.00    -0.664 N  
HETATM   24  H2  UNL     1     -11.210  15.359  67.732  1.00  0.00     0.000 HD 
HETATM   25  H1  UNL     1     -11.781  16.848  68.557  1.00  0.00     0.000 HD 
HETATM   26  H   UNL     1     -12.865  16.860  70.465  1.00  0.00     0.000 HD 
HETATM   27  C   UNL     1     -13.378  15.161  71.595  1.00  0.00    -0.431 C  
HETATM   28  O   UNL     1     -13.933  15.742  72.520  1.00  0.00    -0.545 OA 
ENDBRANCH  14  15
ENDBRANCH  13  14
ENDBRANCH  12  13
BRANCH  12  29
HETATM   29  C   UNL     1      -8.350   9.987  69.696  1.00  0.00    -0.176 C  
HETATM   30  O   UNL     1      -8.475   9.664  71.083  1.00  0.00    -0.335 OA 
HETATM   31  H   UNL     1      -7.647   9.325  71.403  1.00  0.00     0.000 HD 
ENDBRANCH  12  29
ENDBRANCH  11  12
ENDBRANCH  10  11
ENDBRANCH   8  10
ENDBRANCH   4   8
TORSDOF 8
ENDMDL
MODEL       73
REMARK 921   NORMALIZED FREE ENERGY PREDICTED BY IDOCK:   -5.67 KCAL/MOL
REMARK 922        TOTAL FREE ENERGY PREDICTED BY IDOCK:   -9.53 KCAL/MOL
REMARK 923 INTER-LIGAND FREE ENERGY PREDICTED BY IDOCK:   -8.81 KCAL/MOL
REMARK 924 INTRA-LIGAND FREE ENERGY PREDICTED BY IDOCK:   -0.72 KCAL/MOL
REMARK 927      BINDING AFFINITY PREDICTED BY RF-SCORE:    0.00 PKD
ROOT
HETATM    1  C   UNL     1     -10.655  11.334  64.900  1.00  0.00    -0.364 C  
HETATM    2  C   UNL     1     -11.750  12.377  65.158  1.00  0.00    -0.430 C  
HETATM    3  C   UNL     1     -11.996  13.196  63.887  1.00  0.00    -0.550 C  
HETATM    4  C   UNL     1     -11.451  13.282  66.380  1.00  0.00    -0.329 C  
HETATM    5  N   UNL     1     -10.182  14.028  66.218  1.00  0.00    -0.288 NA 
HETATM    6  H1  UNL     1      -9.986  14.624  67.022  1.00  0.00     0.000 HD 
HETATM    7  H2  UNL     1     -10.175  14.563  65.350  1.00  0.00     0.000 HD 
ENDROOT
BRANCH   4   8
HETATM    8  C   UNL     1     -11.457  12.465  67.688  1.00  0.00    -0.337 C  
HETATM    9  O   UNL     1     -11.855  11.311  67.784  1.00  0.00    -0.610 OA 
BRANCH   8  10
HETATM   10  O   UNL     1     -11.030  13.213  68.750  1.00  0.00    -0.251 OA 
BRANCH  10  11
HETATM   11  C   UNL     1     -12.018  14.054  69.372  1.00  0.00    -0.343 C  
BRANCH  11  12
HETATM   12  C   UNL     1     -12.368  13.508  70.766  1.00  0.00    -0.363 C  
BRANCH  12  13
HETATM   13  O   UNL     1     -13.027  12.221  70.723  1.00  0.00    -0.073 OA 
BRANCH  13  14
HETATM   14  C   UNL     1     -13.116  11.596  72.002  1.00  0.00    -0.328 C  
BRANCH  14  15
HETATM   15  N   UNL     1     -12.879  10.178  71.852  1.00  0.00    -0.429 NA 
HETATM   16  C   UNL     1     -13.757   9.187  72.223  1.00  0.00    -0.487 A  
HETATM   17  N   UNL     1     -13.341   7.990  71.854  1.00  0.00    -0.326 NA 
HETATM   18  C   UNL     1     -12.144   8.216  71.211  1.00  0.00    -0.288 A  
HETATM   19  C   UNL     1     -11.859   9.559  71.214  1.00  0.00    -0.373 A  
HETATM   20  N   UNL     1     -10.760  10.058  70.637  1.00  0.00    -0.297 NA 
HETATM   21  C   UNL     1      -9.931   9.160  70.010  1.00  0.00    -0.199 C  
HETATM   22  N   UNL     1      -8.874   9.742  69.393  1.00  0.00    -0.168 NA 
HETATM   23  N   UNL     1     -10.103   7.872  69.945  1.00  0.00    -0.193 N  
HETATM   24  H2  UNL     1      -8.710  10.749  69.395  1.00  0.00     0.000 HD 
HETATM   25  H1  UNL     1      -8.258   9.076  68.928  1.00  0.00     0.000 HD 
HETATM   26  H   UNL     1      -9.425   7.292  69.451  1.00  0.00     0.000 HD 
HETATM   27  C   UNL     1     -11.218   7.280  70.551  1.00  0.00    -0.279 C  
HETATM   28  O   UNL     1     -11.416   6.071  70.528  1.00  0.00    -0.304 OA 
ENDBRANCH  14  15
ENDBRANCH  13  14
ENDBRANCH  12  13
BRANCH  12  29
HETATM   29  C   UNL     1     -13.304  14.481  71.499  1.00  0.00    -0.362 C  
HETATM   30  O   UNL     1     -13.589  15.595  70.650  1.00  0.00    -0.841 OA 
HETATM   31  H   UNL     1     -14.168  16.196  71.103  1.00  0.00     0.000 HD 
ENDBRANCH  12  29
ENDBRANCH  11  12
ENDBRANCH  10  11
ENDBRANCH   8  10
ENDBRANCH   4   8
TORSDOF 8
ENDMDL
MODEL       74
REMARK 921   NORMALIZED FREE ENERGY PREDICTED BY IDOCK:   -5.66 KCAL/MOL
REMARK 922        TOTAL FREE ENERGY PREDICTED BY IDOCK:   -9.53 KCAL/MOL
REMARK 923 INTER-LIGAND FREE ENERGY PREDICTED BY IDOCK:   -8.75 KCAL/MOL
REMARK 924 INTRA-LIGAND FREE ENERGY PREDICTED BY IDOCK:   -0.78 KCAL/MOL
REMARK 927      BINDING AFFINITY PREDICTED BY RF-SCORE:    0.00 PKD
ROOT
HETATM    1  C   UNL     1     -14.308  15.331  72.437  1.00  0.00    -0.475 C  
HETATM    2  C   UNL     1     -12.928  14.884  72.935  1.00  0.00    -0.572 C  
HETATM    3  C   UNL     1     -12.494  15.759  74.116  1.00  0.00    -0.793 C  
HETATM    4  C   UNL     1     -11.858  14.855  71.815  1.00  0.00    -0.356 C  
HETATM    5  N   UNL     1     -11.675  16.184  71.190  1.00  0.00    -0.566 NA 
HETATM    6  H1  UNL     1     -10.971  16.164  70.452  1.00  0.00     0.000 HD 
HETATM    7  H2  UNL     1     -11.461  16.896  71.888  1.00  0.00     0.000 HD 
ENDROOT
BRANCH   4   8
HETATM    8  C   UNL     1     -12.192  13.780  70.759  1.00  0.00    -0.363 C  
HETATM    9  O   UNL     1     -12.438  12.608  71.015  1.00  0.00    -0.368 OA 
BRANCH   8  10
HETATM   10  O   UNL     1     -12.109  14.280  69.489  1.00  0.00    -0.313 OA 
BRANCH  10  11
HETATM   11  C   UNL     1     -11.185  13.619  68.606  1.00  0.00    -0.277 C  
BRANCH  11  12
HETATM   12  C   UNL     1     -11.957  12.831  67.535  1.00  0.00    -0.281 C  
BRANCH  12  13
HETATM   13  O   UNL     1     -11.823  11.398  67.678  1.00  0.00    -0.609 OA 
BRANCH  13  14
HETATM   14  C   UNL     1     -10.872  11.022  68.672  1.00  0.00    -0.215 C  
BRANCH  14  15
HETATM   15  N   UNL     1     -10.747   9.582  68.686  1.00  0.00    -0.210 NA 
HETATM   16  C   UNL     1     -10.147   8.832  67.702  1.00  0.00    -0.216 A  
HETATM   17  N   UNL     1     -10.058   7.557  68.033  1.00  0.00    -0.175 NA 
HETATM   18  C   UNL     1     -10.621   7.478  69.287  1.00  0.00    -0.210 A  
HETATM   19  C   UNL     1     -11.048   8.721  69.686  1.00  0.00    -0.028 A  
HETATM   20  N   UNL     1     -11.618   8.933  70.877  1.00  0.00    -0.283 NA 
HETATM   21  C   UNL     1     -11.735   7.845  71.707  1.00  0.00    -0.287 C  
HETATM   22  N   UNL     1     -12.261   8.146  72.920  1.00  0.00    -0.636 NA 
HETATM   23  N   UNL     1     -11.366   6.627  71.434  1.00  0.00    -0.275 N  
HETATM   24  H2  UNL     1     -12.541   9.088  73.190  1.00  0.00     0.000 HD 
HETATM   25  H1  UNL     1     -12.348   7.338  73.536  1.00  0.00     0.000 HD 
HETATM   26  H   UNL     1     -11.498   5.888  72.124  1.00  0.00     0.000 HD 
HETATM   27  C   UNL     1     -10.788   6.330  70.193  1.00  0.00    -0.313 C  
HETATM   28  O   UNL     1     -10.437   5.197  69.885  1.00  0.00    -0.295 OA 
ENDBRANCH  14  15
ENDBRANCH  13  14
ENDBRANCH  12  13
BRANCH  12  29
HETATM   29  C   UNL     1     -11.451  13.204  66.133  1.00  0.00    -0.330 C  
HETATM   30  O   UNL     1     -10.813  14.482  66.183  1.00  0.00    -0.305 OA 
HETATM   31  H   UNL     1     -10.501  14.712  65.316  1.00  0.00     0.000 HD 
ENDBRANCH  12  29
ENDBRANCH  11  12
ENDBRANCH  10  11
ENDBRANCH   8  10
ENDBRANCH   4   8
TORSDOF 8
ENDMDL
MODEL       75
REMARK 921   NORMALIZED FREE ENERGY PREDICTED BY IDOCK:   -5.65 KCAL/MOL
REMARK 922        TOTAL FREE ENERGY PREDICTED BY IDOCK:   -9.50 KCAL/MOL
REMARK 923 INTER-LIGAND FREE ENERGY PREDICTED BY IDOCK:   -9.01 KCAL/MOL
REMARK 924 INTRA-LIGAND FREE ENERGY PREDICTED BY IDOCK:   -0.49 KCAL/MOL
REMARK 927      BINDING AFFINITY PREDICTED BY RF-SCORE:    0.00 PKD
ROOT
HETATM    1  C   UNL     1     -11.916  16.045  71.708  1.00  0.00    -0.592 C  
HETATM    2  C   UNL     1     -13.049  15.439  70.871  1.00  0.00    -0.528 C  
HETATM    3  C   UNL     1     -14.213  15.041  71.784  1.00  0.00    -0.649 C  
HETATM    4  C   UNL     1     -12.583  14.259  69.981  1.00  0.00    -0.225 C  
HETATM    5  N   UNL     1     -12.010  13.155  70.783  1.00  0.00    -0.506 NA 
HETATM    6  H1  UNL     1     -11.704  12.378  70.197  1.00  0.00     0.000 HD 
HETATM    7  H2  UNL     1     -12.662  12.842  71.502  1.00  0.00     0.000 HD 
ENDROOT
BRANCH   4   8
HETATM    8  C   UNL     1     -11.593  14.738  68.899  1.00  0.00    -0.313 C  
HETATM    9  O   UNL     1     -11.219  15.897  68.766  1.00  0.00    -0.314 OA 
BRANCH   8  10
HETATM   10  O   UNL     1     -11.238  13.723  68.057  1.00  0.00    -0.248 OA 
BRANCH  10  11
HETATM   11  C   UNL     1     -11.301  14.014  66.649  1.00  0.00    -0.335 C  
BRANCH  11  12
HETATM   12  C   UNL     1     -11.532  12.717  65.856  1.00  0.00    -0.356 C  
BRANCH  12  13
HETATM   13  O   UNL     1     -11.622  11.545  66.698  1.00  0.00    -0.469 OA 
BRANCH  13  14
HETATM   14  C   UNL     1     -10.507  10.667  66.555  1.00  0.00    -0.224 C  
BRANCH  14  15
HETATM   15  N   UNL     1     -10.402   9.840  67.736  1.00  0.00    -0.209 NA 
HETATM   16  C   UNL     1     -10.329  10.310  69.025  1.00  0.00    -0.211 A  
HETATM   17  N   UNL     1     -10.372   9.335  69.914  1.00  0.00    -0.207 NA 
HETATM   18  C   UNL     1     -10.483   8.183  69.167  1.00  0.00    -0.206 A  
HETATM   19  C   UNL     1     -10.497   8.493  67.830  1.00  0.00    -0.223 A  
HETATM   20  N   UNL     1     -10.616   7.559  66.880  1.00  0.00    -0.337 NA 
HETATM   21  C   UNL     1     -10.752   6.260  67.307  1.00  0.00    -0.349 C  
HETATM   22  N   UNL     1     -10.933   5.376  66.295  1.00  0.00    -0.742 NA 
HETATM   23  N   UNL     1     -10.753   5.854  68.543  1.00  0.00    -0.257 N  
HETATM   24  H2  UNL     1     -10.966   5.649  65.313  1.00  0.00     0.000 HD 
HETATM   25  H1  UNL     1     -11.034   4.412  66.611  1.00  0.00     0.000 HD 
HETATM   26  H   UNL     1     -10.862   4.862  68.752  1.00  0.00     0.000 HD 
HETATM   27  C   UNL     1     -10.605   6.776  69.586  1.00  0.00    -0.233 C  
HETATM   28  O   UNL     1     -10.586   6.441  70.764  1.00  0.00    -0.220 OA 
ENDBRANCH  14  15
ENDBRANCH  13  14
ENDBRANCH  12  13
BRANCH  12  29
HETATM   29  C   UNL     1     -10.379  12.487  64.867  1.00  0.00    -0.300 C  
HETATM   30  O   UNL     1     -10.098  13.705  64.174  1.00  0.00    -0.757 OA 
HETATM   31  H   UNL     1      -9.385  13.562  63.562  1.00  0.00     0.000 HD 
ENDBRANCH  12  29
ENDBRANCH  11  12
ENDBRANCH  10  11
ENDBRANCH   8  10
ENDBRANCH   4   8
TORSDOF 8
ENDMDL
MODEL       76
REMARK 921   NORMALIZED FREE ENERGY PREDICTED BY IDOCK:   -5.63 KCAL/MOL
REMARK 922        TOTAL FREE ENERGY PREDICTED BY IDOCK:   -9.48 KCAL/MOL
REMARK 923 INTER-LIGAND FREE ENERGY PREDICTED BY IDOCK:   -8.11 KCAL/MOL
REMARK 924 INTRA-LIGAND FREE ENERGY PREDICTED BY IDOCK:   -1.36 KCAL/MOL
REMARK 927      BINDING AFFINITY PREDICTED BY RF-SCORE:    0.00 PKD
ROOT
HETATM    1  C   UNL     1     -10.621   8.556  69.221  1.00  0.00    -0.193 C  
HETATM    2  C   UNL     1      -9.580   9.675  69.091  1.00  0.00    -0.176 C  
HETATM    3  C   UNL     1      -8.576   9.584  70.245  1.00  0.00    -0.258 C  
HETATM    4  C   UNL     1     -10.213  11.085  68.986  1.00  0.00    -0.200 C  
HETATM    5  N   UNL     1     -11.041  11.409  70.170  1.00  0.00    -0.454 NA 
HETATM    6  H1  UNL     1     -11.457  12.337  70.100  1.00  0.00     0.000 HD 
HETATM    7  H2  UNL     1     -10.509  11.305  71.034  1.00  0.00     0.000 HD 
ENDROOT
BRANCH   4   8
HETATM    8  C   UNL     1     -11.021  11.233  67.680  1.00  0.00    -0.259 C  
HETATM    9  O   UNL     1     -12.233  11.403  67.629  1.00  0.00    -0.485 OA 
BRANCH   8  10
HETATM   10  O   UNL     1     -10.228  11.078  66.578  1.00  0.00    -0.218 OA 
BRANCH  10  11
HETATM   11  C   UNL     1     -10.893  11.141  65.303  1.00  0.00    -0.152 C  
BRANCH  11  12
HETATM   12  C   UNL     1     -10.249  12.229  64.430  1.00  0.00    -0.314 C  
BRANCH  12  13
HETATM   13  O   UNL     1     -11.178  13.266  64.037  1.00  0.00    -0.381 OA 
BRANCH  13  14
HETATM   14  C   UNL     1     -11.940  13.777  65.129  1.00  0.00    -0.379 C  
BRANCH  14  15
HETATM   15  N   UNL     1     -11.313  14.984  65.619  1.00  0.00    -0.330 NA 
HETATM   16  C   UNL     1     -11.021  16.088  64.854  1.00  0.00    -0.384 A  
HETATM   17  N   UNL     1     -10.571  17.093  65.582  1.00  0.00    -0.515 NA 
HETATM   18  C   UNL     1     -10.577  16.620  66.876  1.00  0.00    -0.229 A  
HETATM   19  C   UNL     1     -11.028  15.324  66.897  1.00  0.00    -0.315 A  
HETATM   20  N   UNL     1     -11.151  14.629  68.033  1.00  0.00    -0.270 NA 
HETATM   21  C   UNL     1     -10.828  15.284  69.196  1.00  0.00    -0.250 C  
HETATM   22  N   UNL     1     -11.038  14.542  70.310  1.00  0.00    -0.471 NA 
HETATM   23  N   UNL     1     -10.393  16.507  69.292  1.00  0.00    -0.303 N  
HETATM   24  H2  UNL     1     -11.402  13.589  70.287  1.00  0.00     0.000 HD 
HETATM   25  H1  UNL     1     -10.798  15.028  71.174  1.00  0.00     0.000 HD 
HETATM   26  H   UNL     1     -10.181  16.901  70.209  1.00  0.00     0.000 HD 
HETATM   27  C   UNL     1     -10.214  17.282  68.140  1.00  0.00    -0.343 C  
HETATM   28  O   UNL     1      -9.794  18.433  68.179  1.00  0.00    -0.308 OA 
ENDBRANCH  14  15
ENDBRANCH  13  14
ENDBRANCH  12  13
BRANCH  12  29
HETATM   29  C   UNL     1      -9.678  11.611  63.144  1.00  0.00    -0.360 C  
HETATM   30  O   UNL     1     -10.345  10.376  62.875  1.00  0.00    -0.566 OA 
HETATM   31  H   UNL     1      -9.992   9.994  62.081  1.00  0.00     0.000 HD 
ENDBRANCH  12  29
ENDBRANCH  11  12
ENDBRANCH  10  11
ENDBRANCH   8  10
ENDBRANCH   4   8
TORSDOF 8
ENDMDL
MODEL       77
REMARK 921   NORMALIZED FREE ENERGY PREDICTED BY IDOCK:   -5.60 KCAL/MOL
REMARK 922        TOTAL FREE ENERGY PREDICTED BY IDOCK:   -9.43 KCAL/MOL
REMARK 923 INTER-LIGAND FREE ENERGY PREDICTED BY IDOCK:   -8.71 KCAL/MOL
REMARK 924 INTRA-LIGAND FREE ENERGY PREDICTED BY IDOCK:   -0.72 KCAL/MOL
REMARK 927      BINDING AFFINITY PREDICTED BY RF-SCORE:    0.00 PKD
ROOT
HETATM    1  C   UNL     1      -8.031   5.552  67.311  1.00  0.00    -0.101 C  
HETATM    2  C   UNL     1      -9.195   4.592  67.584  1.00  0.00    -0.148 C  
HETATM    3  C   UNL     1      -8.836   3.187  67.090  1.00  0.00    -0.155 C  
HETATM    4  C   UNL     1     -10.540   5.086  66.995  1.00  0.00    -0.078 C  
HETATM    5  N   UNL     1     -10.469   5.261  65.527  1.00  0.00    -0.415 NA 
HETATM    6  H1  UNL     1     -11.355   5.586  65.139  1.00  0.00     0.000 HD 
HETATM    7  H2  UNL     1     -10.154   4.408  65.066  1.00  0.00     0.000 HD 
ENDROOT
BRANCH   4   8
HETATM    8  C   UNL     1     -11.008   6.381  67.691  1.00  0.00    -0.349 C  
HETATM    9  O   UNL     1     -11.561   6.420  68.784  1.00  0.00    -0.182 OA 
BRANCH   8  10
HETATM   10  O   UNL     1     -10.796   7.479  66.906  1.00  0.00    -0.345 OA 
BRANCH  10  11
HETATM   11  C   UNL     1      -9.991   8.524  67.480  1.00  0.00    -0.200 C  
BRANCH  11  12
HETATM   12  C   UNL     1     -10.889   9.537  68.208  1.00  0.00    -0.145 C  
BRANCH  12  13
HETATM   13  O   UNL     1     -10.834  10.862  67.631  1.00  0.00    -0.225 OA 
BRANCH  13  14
HETATM   14  C   UNL     1     -11.804  11.752  68.181  1.00  0.00    -0.254 C  
BRANCH  14  15
HETATM   15  N   UNL     1     -11.765  13.001  67.454  1.00  0.00    -0.361 NA 
HETATM   16  C   UNL     1     -11.349  14.204  67.972  1.00  0.00    -0.299 A  
HETATM   17  N   UNL     1     -11.293  15.149  67.053  1.00  0.00    -0.316 NA 
HETATM   18  C   UNL     1     -11.686  14.530  65.887  1.00  0.00    -0.345 A  
HETATM   19  C   UNL     1     -11.979  13.212  66.134  1.00  0.00    -0.422 A  
HETATM   20  N   UNL     1     -12.370  12.373  65.169  1.00  0.00    -0.570 NA 
HETATM   21  C   UNL     1     -12.439  12.886  63.897  1.00  0.00    -0.333 C  
HETATM   22  N   UNL     1     -12.778  11.966  62.961  1.00  0.00    -0.857 NA 
HETATM   23  N   UNL     1     -12.184  14.114  63.549  1.00  0.00    -1.090 N  
HETATM   24  H2  UNL     1     -12.962  10.987  63.181  1.00  0.00     0.000 HD 
HETATM   25  H1  UNL     1     -12.830  12.347  62.017  1.00  0.00     0.000 HD 
HETATM   26  H   UNL     1     -12.266  14.394  62.572  1.00  0.00     0.000 HD 
HETATM   27  C   UNL     1     -11.797  15.052  64.514  1.00  0.00    -0.371 C  
HETATM   28  O   UNL     1     -11.560  16.222  64.238  1.00  0.00    -0.679 OA 
ENDBRANCH  14  15
ENDBRANCH  13  14
ENDBRANCH  12  13
BRANCH  12  29
HETATM   29  C   UNL     1     -10.470   9.658  69.681  1.00  0.00    -0.229 C  
HETATM   30  O   UNL     1     -11.000   8.553  70.417  1.00  0.00    -0.237 OA 
HETATM   31  H   UNL     1     -10.741   8.628  71.328  1.00  0.00     0.000 HD 
ENDBRANCH  12  29
ENDBRANCH  11  12
ENDBRANCH  10  11
ENDBRANCH   8  10
ENDBRANCH   4   8
TORSDOF 8
ENDMDL
MODEL       78
REMARK 921   NORMALIZED FREE ENERGY PREDICTED BY IDOCK:   -5.55 KCAL/MOL
REMARK 922        TOTAL FREE ENERGY PREDICTED BY IDOCK:   -9.37 KCAL/MOL
REMARK 923 INTER-LIGAND FREE ENERGY PREDICTED BY IDOCK:   -8.87 KCAL/MOL
REMARK 924 INTRA-LIGAND FREE ENERGY PREDICTED BY IDOCK:   -0.50 KCAL/MOL
REMARK 927      BINDING AFFINITY PREDICTED BY RF-SCORE:    0.00 PKD
ROOT
HETATM    1  C   UNL     1     -12.652  14.038  66.411  1.00  0.00    -0.287 C  
HETATM    2  C   UNL     1     -11.302  14.111  65.687  1.00  0.00    -0.319 C  
HETATM    3  C   UNL     1     -10.671  15.491  65.903  1.00  0.00    -0.346 C  
HETATM    4  C   UNL     1     -11.399  13.749  64.183  1.00  0.00    -0.256 C  
HETATM    5  N   UNL     1     -12.321  14.651  63.456  1.00  0.00    -1.056 NA 
HETATM    6  H1  UNL     1     -12.384  14.412  62.467  1.00  0.00     0.000 HD 
HETATM    7  H2  UNL     1     -12.063  15.629  63.586  1.00  0.00     0.000 HD 
ENDROOT
BRANCH   4   8
HETATM    8  C   UNL     1     -11.796  12.271  63.995  1.00  0.00    -0.444 C  
HETATM    9  O   UNL     1     -12.949  11.870  63.886  1.00  0.00    -0.590 OA 
BRANCH   8  10
HETATM   10  O   UNL     1     -10.705  11.448  64.036  1.00  0.00    -0.341 OA 
BRANCH  10  11
HETATM   11  C   UNL     1      -9.990  11.404  65.283  1.00  0.00    -0.258 C  
BRANCH  11  12
HETATM   12  C   UNL     1     -10.507  10.240  66.144  1.00  0.00    -0.130 C  
BRANCH  12  13
HETATM   13  O   UNL     1     -11.332  10.673  67.249  1.00  0.00    -0.380 OA 
BRANCH  13  14
HETATM   14  C   UNL     1     -10.574  11.143  68.362  1.00  0.00    -0.193 C  
BRANCH  14  15
HETATM   15  N   UNL     1     -11.478  11.497  69.434  1.00  0.00    -0.283 NA 
HETATM   16  C   UNL     1     -12.037  10.607  70.321  1.00  0.00    -0.338 A  
HETATM   17  N   UNL     1     -12.717  11.217  71.273  1.00  0.00    -0.422 NA 
HETATM   18  C   UNL     1     -12.589  12.560  70.994  1.00  0.00    -0.256 A  
HETATM   19  C   UNL     1     -11.832  12.731  69.863  1.00  0.00    -0.301 A  
HETATM   20  N   UNL     1     -11.535  13.941  69.377  1.00  0.00    -0.268 NA 
HETATM   21  C   UNL     1     -12.005  15.021  70.083  1.00  0.00    -0.320 C  
HETATM   22  N   UNL     1     -11.612  16.213  69.571  1.00  0.00    -0.294 NA 
HETATM   23  N   UNL     1     -12.728  14.976  71.164  1.00  0.00    -0.332 N  
HETATM   24  H2  UNL     1     -11.025  16.299  68.742  1.00  0.00     0.000 HD 
HETATM   25  H1  UNL     1     -11.961  17.015  70.095  1.00  0.00     0.000 HD 
HETATM   26  H   UNL     1     -13.026  15.841  71.614  1.00  0.00     0.000 HD 
HETATM   27  C   UNL     1     -13.098  13.741  71.711  1.00  0.00    -0.379 C  
HETATM   28  O   UNL     1     -13.789  13.648  72.718  1.00  0.00    -0.727 OA 
ENDBRANCH  14  15
ENDBRANCH  13  14
ENDBRANCH  12  13
BRANCH  12  29
HETATM   29  C   UNL     1      -9.328   9.449  66.731  1.00  0.00    -0.158 C  
HETATM   30  O   UNL     1      -9.695   8.073  66.855  1.00  0.00    -0.186 OA 
HETATM   31  H   UNL     1      -8.966   7.584  67.219  1.00  0.00     0.000 HD 
ENDBRANCH  12  29
ENDBRANCH  11  12
ENDBRANCH  10  11
ENDBRANCH   8  10
ENDBRANCH   4   8
TORSDOF 8
ENDMDL
MODEL       79
REMARK 921   NORMALIZED FREE ENERGY PREDICTED BY IDOCK:   -5.55 KCAL/MOL
REMARK 922        TOTAL FREE ENERGY PREDICTED BY IDOCK:   -9.37 KCAL/MOL
REMARK 923 INTER-LIGAND FREE ENERGY PREDICTED BY IDOCK:   -8.59 KCAL/MOL
REMARK 924 INTRA-LIGAND FREE ENERGY PREDICTED BY IDOCK:   -0.77 KCAL/MOL
REMARK 927      BINDING AFFINITY PREDICTED BY RF-SCORE:    0.00 PKD
ROOT
HETATM    1  C   UNL     1      -6.726   8.276  71.875  1.00  0.00    -0.076 C  
HETATM    2  C   UNL     1      -7.346   8.098  70.484  1.00  0.00    -0.056 C  
HETATM    3  C   UNL     1      -6.238   7.955  69.436  1.00  0.00    -0.034 C  
HETATM    4  C   UNL     1      -8.346   9.224  70.117  1.00  0.00    -0.178 C  
HETATM    5  N   UNL     1      -7.705  10.558  70.130  1.00  0.00    -0.421 NA 
HETATM    6  H1  UNL     1      -8.363  11.299  69.889  1.00  0.00     0.000 HD 
HETATM    7  H2  UNL     1      -6.884  10.581  69.526  1.00  0.00     0.000 HD 
ENDROOT
BRANCH   4   8
HETATM    8  C   UNL     1      -9.583   9.188  71.038  1.00  0.00    -0.280 C  
HETATM    9  O   UNL     1      -9.537   9.200  72.262  1.00  0.00    -0.210 OA 
BRANCH   8  10
HETATM   10  O   UNL     1     -10.740   9.065  70.321  1.00  0.00    -0.214 OA 
BRANCH  10  11
HETATM   11  C   UNL     1     -10.658   9.395  68.923  1.00  0.00    -0.208 C  
BRANCH  11  12
HETATM   12  C   UNL     1     -11.163  10.828  68.692  1.00  0.00    -0.274 C  
BRANCH  12  13
HETATM   13  O   UNL     1     -10.095  11.801  68.618  1.00  0.00    -0.216 OA 
BRANCH  13  14
HETATM   14  C   UNL     1      -9.571  11.956  67.300  1.00  0.00    -0.177 C  
BRANCH  14  15
HETATM   15  N   UNL     1     -10.178  13.115  66.684  1.00  0.00    -0.254 NA 
HETATM   16  C   UNL     1      -9.975  14.416  67.079  1.00  0.00    -0.257 A  
HETATM   17  N   UNL     1     -10.548  15.279  66.262  1.00  0.00    -0.302 NA 
HETATM   18  C   UNL     1     -11.145  14.503  65.292  1.00  0.00    -0.353 A  
HETATM   19  C   UNL     1     -10.920  13.175  65.554  1.00  0.00    -0.277 A  
HETATM   20  N   UNL     1     -11.374  12.202  64.757  1.00  0.00    -0.319 NA 
HETATM   21  C   UNL     1     -12.061  12.595  63.635  1.00  0.00    -0.547 C  
HETATM   22  N   UNL     1     -12.434  11.561  62.841  1.00  0.00    -0.867 NA 
HETATM   23  N   UNL     1     -12.330  13.820  63.288  1.00  0.00    -1.124 N  
HETATM   24  H2  UNL     1     -12.225  10.587  63.056  1.00  0.00     0.000 HD 
HETATM   25  H1  UNL     1     -12.945  11.853  62.007  1.00  0.00     0.000 HD 
HETATM   26  H   UNL     1     -12.849  14.004  62.430  1.00  0.00     0.000 HD 
HETATM   27  C   UNL     1     -11.908  14.886  64.093  1.00  0.00    -0.184 C  
HETATM   28  O   UNL     1     -12.149  16.055  63.816  1.00  0.00    -0.882 OA 
ENDBRANCH  14  15
ENDBRANCH  13  14
ENDBRANCH  12  13
BRANCH  12  29
HETATM   29  C   UNL     1     -12.096  11.255  69.835  1.00  0.00    -0.341 C  
HETATM   30  O   UNL     1     -13.281  10.458  69.803  1.00  0.00    -0.541 OA 
HETATM   31  H   UNL     1     -13.858  10.722  70.509  1.00  0.00     0.000 HD 
ENDBRANCH  12  29
ENDBRANCH  11  12
ENDBRANCH  10  11
ENDBRANCH   8  10
ENDBRANCH   4   8
TORSDOF 8
ENDMDL
MODEL       80
REMARK 921   NORMALIZED FREE ENERGY PREDICTED BY IDOCK:   -5.55 KCAL/MOL
REMARK 922        TOTAL FREE ENERGY PREDICTED BY IDOCK:   -9.36 KCAL/MOL
REMARK 923 INTER-LIGAND FREE ENERGY PREDICTED BY IDOCK:   -8.57 KCAL/MOL
REMARK 924 INTRA-LIGAND FREE ENERGY PREDICTED BY IDOCK:   -0.79 KCAL/MOL
REMARK 927      BINDING AFFINITY PREDICTED BY RF-SCORE:    0.00 PKD
ROOT
HETATM    1  C   UNL     1     -10.356   8.677  67.201  1.00  0.00    -0.369 C  
HETATM    2  C   UNL     1      -9.790  10.054  66.837  1.00  0.00    -0.248 C  
HETATM    3  C   UNL     1      -8.273   9.957  66.647  1.00  0.00    -0.121 C  
HETATM    4  C   UNL     1     -10.175  11.158  67.855  1.00  0.00    -0.180 C  
HETATM    5  N   UNL     1      -9.691  10.845  69.218  1.00  0.00    -0.401 NA 
HETATM    6  H1  UNL     1      -9.944  11.572  69.888  1.00  0.00     0.000 HD 
HETATM    7  H2  UNL     1      -8.686  10.670  69.225  1.00  0.00     0.000 HD 
ENDROOT
BRANCH   4   8
HETATM    8  C   UNL     1     -11.696  11.413  67.845  1.00  0.00    -0.228 C  
HETATM    9  O   UNL     1     -12.426  11.294  68.822  1.00  0.00    -0.444 OA 
BRANCH   8  10
HETATM   10  O   UNL     1     -12.147  11.719  66.592  1.00  0.00    -0.527 OA 
BRANCH  10  11
HETATM   11  C   UNL     1     -12.223  13.119  66.268  1.00  0.00    -0.355 C  
BRANCH  11  12
HETATM   12  C   UNL     1     -11.282  13.439  65.096  1.00  0.00    -0.305 C  
BRANCH  12  13
HETATM   13  O   UNL     1     -10.889  14.829  65.046  1.00  0.00    -0.372 OA 
BRANCH  13  14
HETATM   14  C   UNL     1     -11.064  15.505  66.290  1.00  0.00    -0.177 C  
BRANCH  14  15
HETATM   15  N   UNL     1      -9.776  15.949  66.771  1.00  0.00    -0.230 NA 
HETATM   16  C   UNL     1      -8.574  15.347  66.482  1.00  0.00    -0.259 A  
HETATM   17  N   UNL     1      -7.548  16.036  66.944  1.00  0.00    -0.232 NA 
HETATM   18  C   UNL     1      -8.109  17.136  67.555  1.00  0.00    -0.184 A  
HETATM   19  C   UNL     1      -9.477  17.080  67.452  1.00  0.00    -0.242 A  
HETATM   20  N   UNL     1     -10.271  18.036  67.946  1.00  0.00    -0.358 NA 
HETATM   21  C   UNL     1      -9.650  19.104  68.545  1.00  0.00    -0.395 C  
HETATM   22  N   UNL     1     -10.511  20.064  68.963  1.00  0.00    -0.527 NA 
HETATM   23  N   UNL     1      -8.367  19.261  68.697  1.00  0.00    -0.368 N  
HETATM   24  H2  UNL     1     -11.522  19.999  68.844  1.00  0.00     0.000 HD 
HETATM   25  H1  UNL     1     -10.050  20.857  69.409  1.00  0.00     0.000 HD 
HETATM   26  H   UNL     1      -8.007  20.096  69.158  1.00  0.00     0.000 HD 
HETATM   27  C   UNL     1      -7.479  18.284  68.228  1.00  0.00    -0.279 C  
HETATM   28  O   UNL     1      -6.265  18.381  68.360  1.00  0.00    -0.192 OA 
ENDBRANCH  14  15
ENDBRANCH  13  14
ENDBRANCH  12  13
BRANCH  12  29
HETATM   29  C   UNL     1     -11.964  13.104  63.760  1.00  0.00    -0.508 C  
HETATM   30  O   UNL     1     -12.652  14.259  63.276  1.00  0.00    -1.069 OA 
HETATM   31  H   UNL     1     -13.074  14.051  62.451  1.00  0.00     0.000 HD 
ENDBRANCH  12  29
ENDBRANCH  11  12
ENDBRANCH  10  11
ENDBRANCH   8  10
ENDBRANCH   4   8
TORSDOF 8
ENDMDL
MODEL       81
REMARK 921   NORMALIZED FREE ENERGY PREDICTED BY IDOCK:   -5.54 KCAL/MOL
REMARK 922        TOTAL FREE ENERGY PREDICTED BY IDOCK:   -9.34 KCAL/MOL
REMARK 923 INTER-LIGAND FREE ENERGY PREDICTED BY IDOCK:   -8.20 KCAL/MOL
REMARK 924 INTRA-LIGAND FREE ENERGY PREDICTED BY IDOCK:   -1.14 KCAL/MOL
REMARK 927      BINDING AFFINITY PREDICTED BY RF-SCORE:    0.00 PKD
ROOT
HETATM    1  C   UNL     1      -8.041  12.547  67.446  1.00  0.00    -0.180 C  
HETATM    2  C   UNL     1      -6.789  12.564  68.331  1.00  0.00    -0.085 C  
HETATM    3  C   UNL     1      -6.892  11.467  69.395  1.00  0.00    -0.112 C  
HETATM    4  C   UNL     1      -6.507  13.952  68.958  1.00  0.00    -0.103 C  
HETATM    5  N   UNL     1      -7.631  14.416  69.802  1.00  0.00    -0.376 NA 
HETATM    6  H1  UNL     1      -7.445  15.330  70.215  1.00  0.00     0.000 HD 
HETATM    7  H2  UNL     1      -7.867  13.728  70.517  1.00  0.00     0.000 HD 
ENDROOT
BRANCH   4   8
HETATM    8  C   UNL     1      -6.157  14.990  67.871  1.00  0.00    -0.155 C  
HETATM    9  O   UNL     1      -5.127  14.979  67.208  1.00  0.00    -0.314 OA 
BRANCH   8  10
HETATM   10  O   UNL     1      -7.106  15.970  67.787  1.00  0.00    -0.123 OA 
BRANCH  10  11
HETATM   11  C   UNL     1      -7.038  16.821  66.629  1.00  0.00    -0.240 C  
BRANCH  11  12
HETATM   12  C   UNL     1      -8.206  17.820  66.644  1.00  0.00    -0.259 C  
BRANCH  12  13
HETATM   13  O   UNL     1      -9.267  17.468  65.727  1.00  0.00    -0.510 OA 
BRANCH  13  14
HETATM   14  C   UNL     1     -10.549  17.410  66.351  1.00  0.00    -0.192 C  
BRANCH  14  15
HETATM   15  N   UNL     1     -10.785  16.064  66.821  1.00  0.00    -0.298 NA 
HETATM   16  C   UNL     1     -10.726  15.665  68.135  1.00  0.00    -0.287 A  
HETATM   17  N   UNL     1     -11.113  14.413  68.292  1.00  0.00    -0.250 NA 
HETATM   18  C   UNL     1     -11.442  13.983  67.025  1.00  0.00    -0.351 A  
HETATM   19  C   UNL     1     -11.237  14.997  66.122  1.00  0.00    -0.307 A  
HETATM   20  N   UNL     1     -11.496  14.854  64.818  1.00  0.00    -0.410 NA 
HETATM   21  C   UNL     1     -12.008  13.644  64.419  1.00  0.00    -0.437 C  
HETATM   22  N   UNL     1     -12.307  13.594  63.098  1.00  0.00    -1.076 NA 
HETATM   23  N   UNL     1     -12.242  12.619  65.186  1.00  0.00    -0.466 N  
HETATM   24  H2  UNL     1     -12.166  14.378  62.462  1.00  0.00     0.000 HD 
HETATM   25  H1  UNL     1     -12.687  12.695  62.801  1.00  0.00     0.000 HD 
HETATM   26  H   UNL     1     -12.627  11.763  64.788  1.00  0.00     0.000 HD 
HETATM   27  C   UNL     1     -11.968  12.690  66.557  1.00  0.00    -0.331 C  
HETATM   28  O   UNL     1     -12.158  11.748  67.317  1.00  0.00    -0.595 OA 
ENDBRANCH  14  15
ENDBRANCH  13  14
ENDBRANCH  12  13
BRANCH  12  29
HETATM   29  C   UNL     1      -7.711  19.223  66.259  1.00  0.00    -0.289 C  
HETATM   30  O   UNL     1      -6.838  19.125  65.132  1.00  0.00    -0.461 OA 
HETATM   31  H   UNL     1      -6.532  19.992  64.894  1.00  0.00     0.000 HD 
ENDBRANCH  12  29
ENDBRANCH  11  12
ENDBRANCH  10  11
ENDBRANCH   8  10
ENDBRANCH   4   8
TORSDOF 8
ENDMDL
MODEL       82
REMARK 921   NORMALIZED FREE ENERGY PREDICTED BY IDOCK:   -5.53 KCAL/MOL
REMARK 922        TOTAL FREE ENERGY PREDICTED BY IDOCK:   -9.33 KCAL/MOL
REMARK 923 INTER-LIGAND FREE ENERGY PREDICTED BY IDOCK:   -8.22 KCAL/MOL
REMARK 924 INTRA-LIGAND FREE ENERGY PREDICTED BY IDOCK:   -1.11 KCAL/MOL
REMARK 927      BINDING AFFINITY PREDICTED BY RF-SCORE:    0.00 PKD
ROOT
HETATM    1  C   UNL     1      -7.987   5.331  71.693  1.00  0.00    -0.115 C  
HETATM    2  C   UNL     1      -9.468   5.222  71.312  1.00  0.00    -0.197 C  
HETATM    3  C   UNL     1      -9.767   3.813  70.789  1.00  0.00    -0.235 C  
HETATM    4  C   UNL     1      -9.921   6.317  70.314  1.00  0.00    -0.173 C  
HETATM    5  N   UNL     1      -9.152   6.264  69.050  1.00  0.00    -0.129 NA 
HETATM    6  H1  UNL     1      -9.450   6.985  68.393  1.00  0.00     0.000 HD 
HETATM    7  H2  UNL     1      -9.195   5.337  68.628  1.00  0.00     0.000 HD 
ENDROOT
BRANCH   4   8
HETATM    8  C   UNL     1      -9.848   7.717  70.957  1.00  0.00    -0.174 C  
HETATM    9  O   UNL     1     -10.346   8.012  72.036  1.00  0.00    -0.205 OA 
BRANCH   8  10
HETATM   10  O   UNL     1      -9.219   8.613  70.139  1.00  0.00    -0.151 OA 
BRANCH  10  11
HETATM   11  C   UNL     1     -10.044   9.652  69.582  1.00  0.00    -0.224 C  
BRANCH  11  12
HETATM   12  C   UNL     1      -9.424  10.169  68.273  1.00  0.00    -0.140 C  
BRANCH  12  13
HETATM   13  O   UNL     1      -9.681  11.572  68.039  1.00  0.00    -0.174 OA 
BRANCH  13  14
HETATM   14  C   UNL     1      -9.056  12.064  66.855  1.00  0.00    -0.196 C  
BRANCH  14  15
HETATM   15  N   UNL     1      -9.809  13.194  66.358  1.00  0.00    -0.274 NA 
HETATM   16  C   UNL     1      -9.602  14.503  66.725  1.00  0.00    -0.263 A  
HETATM   17  N   UNL     1     -10.342  15.340  66.021  1.00  0.00    -0.293 NA 
HETATM   18  C   UNL     1     -11.055  14.538  65.157  1.00  0.00    -0.370 A  
HETATM   19  C   UNL     1     -10.730  13.221  65.367  1.00  0.00    -0.297 A  
HETATM   20  N   UNL     1     -11.266  12.229  64.648  1.00  0.00    -0.305 NA 
HETATM   21  C   UNL     1     -12.147  12.591  63.659  1.00  0.00    -0.554 C  
HETATM   22  N   UNL     1     -12.600  11.542  62.929  1.00  0.00    -0.874 NA 
HETATM   23  N   UNL     1     -12.525  13.803  63.372  1.00  0.00    -1.072 N  
HETATM   24  H2  UNL     1     -12.314  10.578  63.099  1.00  0.00     0.000 HD 
HETATM   25  H1  UNL     1     -13.255  11.810  62.195  1.00  0.00     0.000 HD 
HETATM   26  H   UNL     1     -13.187  13.964  62.613  1.00  0.00     0.000 HD 
HETATM   27  C   UNL     1     -12.024  14.886  64.104  1.00  0.00    -0.235 C  
HETATM   28  O   UNL     1     -12.360  16.043  63.881  1.00  0.00    -0.855 OA 
ENDBRANCH  14  15
ENDBRANCH  13  14
ENDBRANCH  12  13
BRANCH  12  29
HETATM   29  C   UNL     1      -9.988   9.390  67.075  1.00  0.00    -0.221 C  
HETATM   30  O   UNL     1     -10.954   8.443  67.535  1.00  0.00    -0.493 OA 
HETATM   31  H   UNL     1     -11.302   7.962  66.794  1.00  0.00     0.000 HD 
ENDBRANCH  12  29
ENDBRANCH  11  12
ENDBRANCH  10  11
ENDBRANCH   8  10
ENDBRANCH   4   8
TORSDOF 8
ENDMDL
MODEL       83
REMARK 921   NORMALIZED FREE ENERGY PREDICTED BY IDOCK:   -5.51 KCAL/MOL
REMARK 922        TOTAL FREE ENERGY PREDICTED BY IDOCK:   -9.30 KCAL/MOL
REMARK 923 INTER-LIGAND FREE ENERGY PREDICTED BY IDOCK:   -8.30 KCAL/MOL
REMARK 924 INTRA-LIGAND FREE ENERGY PREDICTED BY IDOCK:   -1.00 KCAL/MOL
REMARK 927      BINDING AFFINITY PREDICTED BY RF-SCORE:    0.00 PKD
ROOT
HETATM    1  C   UNL     1     -11.605  15.570  64.262  1.00  0.00    -0.198 C  
HETATM    2  C   UNL     1     -10.825  14.736  65.286  1.00  0.00    -0.395 C  
HETATM    3  C   UNL     1      -9.445  15.359  65.519  1.00  0.00    -0.160 C  
HETATM    4  C   UNL     1     -10.724  13.238  64.900  1.00  0.00    -0.351 C  
HETATM    5  N   UNL     1     -10.052  13.048  63.595  1.00  0.00    -0.686 NA 
HETATM    6  H1  UNL     1      -9.986  12.062  63.341  1.00  0.00     0.000 HD 
HETATM    7  H2  UNL     1      -9.136  13.496  63.581  1.00  0.00     0.000 HD 
ENDROOT
BRANCH   4   8
HETATM    8  C   UNL     1     -12.114  12.568  64.917  1.00  0.00    -0.440 C  
HETATM    9  O   UNL     1     -12.794  12.356  63.921  1.00  0.00    -0.718 OA 
BRANCH   8  10
HETATM   10  O   UNL     1     -12.529  12.304  66.192  1.00  0.00    -0.466 OA 
BRANCH  10  11
HETATM   11  C   UNL     1     -11.525  11.810  67.097  1.00  0.00    -0.295 C  
BRANCH  11  12
HETATM   12  C   UNL     1     -11.616  12.555  68.438  1.00  0.00    -0.322 C  
BRANCH  12  13
HETATM   13  O   UNL     1     -10.456  13.374  68.713  1.00  0.00    -0.242 OA 
BRANCH  13  14
HETATM   14  C   UNL     1     -10.785  14.734  68.991  1.00  0.00    -0.250 C  
BRANCH  14  15
HETATM   15  N   UNL     1      -9.566  15.508  69.071  1.00  0.00    -0.221 NA 
HETATM   16  C   UNL     1      -8.326  14.998  69.375  1.00  0.00    -0.141 A  
HETATM   17  N   UNL     1      -7.372  15.902  69.250  1.00  0.00    -0.211 NA 
HETATM   18  C   UNL     1      -8.022  17.046  68.842  1.00  0.00    -0.217 A  
HETATM   19  C   UNL     1      -9.369  16.804  68.736  1.00  0.00    -0.254 A  
HETATM   20  N   UNL     1     -10.235  17.743  68.338  1.00  0.00    -0.365 NA 
HETATM   21  C   UNL     1      -9.709  18.968  68.010  1.00  0.00    -0.340 C  
HETATM   22  N   UNL     1     -10.633  19.848  67.555  1.00  0.00    -0.389 NA 
HETATM   23  N   UNL     1      -8.453  19.306  68.072  1.00  0.00    -0.306 N  
HETATM   24  H2  UNL     1     -11.624  19.622  67.464  1.00  0.00     0.000 HD 
HETATM   25  H1  UNL     1     -10.243  20.758  67.312  1.00  0.00     0.000 HD 
HETATM   26  H   UNL     1      -8.166  20.247  67.803  1.00  0.00     0.000 HD 
HETATM   27  C   UNL     1      -7.497  18.380  68.507  1.00  0.00    -0.293 C  
HETATM   28  O   UNL     1      -6.307  18.655  68.594  1.00  0.00    -0.210 OA 
ENDBRANCH  14  15
ENDBRANCH  13  14
ENDBRANCH  12  13
BRANCH  12  29
HETATM   29  C   UNL     1     -11.758  11.554  69.595  1.00  0.00    -0.351 C  
HETATM   30  O   UNL     1     -11.740  10.223  69.075  1.00  0.00    -0.478 OA 
HETATM   31  H   UNL     1     -11.827   9.604  69.790  1.00  0.00     0.000 HD 
ENDBRANCH  12  29
ENDBRANCH  11  12
ENDBRANCH  10  11
ENDBRANCH   8  10
ENDBRANCH   4   8
TORSDOF 8
ENDMDL
MODEL       84
REMARK 921   NORMALIZED FREE ENERGY PREDICTED BY IDOCK:   -5.51 KCAL/MOL
REMARK 922        TOTAL FREE ENERGY PREDICTED BY IDOCK:   -9.30 KCAL/MOL
REMARK 923 INTER-LIGAND FREE ENERGY PREDICTED BY IDOCK:   -7.38 KCAL/MOL
REMARK 924 INTRA-LIGAND FREE ENERGY PREDICTED BY IDOCK:   -1.92 KCAL/MOL
REMARK 927      BINDING AFFINITY PREDICTED BY RF-SCORE:    0.00 PKD
ROOT
HETATM    1  C   UNL     1      -7.295  10.985  66.351  1.00  0.00    -0.128 C  
HETATM    2  C   UNL     1      -6.716  11.389  67.712  1.00  0.00    -0.070 C  
HETATM    3  C   UNL     1      -6.624  10.160  68.623  1.00  0.00    -0.053 C  
HETATM    4  C   UNL     1      -7.494  12.548  68.384  1.00  0.00    -0.127 C  
HETATM    5  N   UNL     1      -8.915  12.200  68.612  1.00  0.00    -0.378 NA 
HETATM    6  H1  UNL     1      -9.427  12.964  69.054  1.00  0.00     0.000 HD 
HETATM    7  H2  UNL     1      -9.004  11.336  69.146  1.00  0.00     0.000 HD 
ENDROOT
BRANCH   4   8
HETATM    8  C   UNL     1      -7.360  13.851  67.568  1.00  0.00    -0.166 C  
HETATM    9  O   UNL     1      -6.295  14.385  67.284  1.00  0.00    -0.298 OA 
BRANCH   8  10
HETATM   10  O   UNL     1      -8.583  14.379  67.260  1.00  0.00    -0.192 OA 
BRANCH  10  11
HETATM   11  C   UNL     1      -8.900  15.643  67.870  1.00  0.00    -0.171 C  
BRANCH  11  12
HETATM   12  C   UNL     1     -10.383  15.673  68.274  1.00  0.00    -0.244 C  
BRANCH  12  13
HETATM   13  O   UNL     1     -10.656  14.932  69.485  1.00  0.00    -0.246 OA 
BRANCH  13  14
HETATM   14  C   UNL     1     -11.993  15.099  69.952  1.00  0.00    -0.337 C  
BRANCH  14  15
HETATM   15  N   UNL     1     -12.361  13.952  70.752  1.00  0.00    -0.359 NA 
HETATM   16  C   UNL     1     -13.009  14.009  71.964  1.00  0.00    -0.363 A  
HETATM   17  N   UNL     1     -13.336  12.810  72.409  1.00  0.00    -0.475 NA 
HETATM   18  C   UNL     1     -12.885  11.939  71.442  1.00  0.00    -0.307 A  
HETATM   19  C   UNL     1     -12.283  12.641  70.427  1.00  0.00    -0.288 A  
HETATM   20  N   UNL     1     -11.772  12.039  69.347  1.00  0.00    -0.320 NA 
HETATM   21  C   UNL     1     -11.901  10.673  69.284  1.00  0.00    -0.237 C  
HETATM   22  N   UNL     1     -11.420  10.138  68.135  1.00  0.00    -0.628 NA 
HETATM   23  N   UNL     1     -12.451   9.911  70.184  1.00  0.00    -0.495 N  
HETATM   24  H2  UNL     1     -11.004  10.696  67.390  1.00  0.00     0.000 HD 
HETATM   25  H1  UNL     1     -11.514   9.124  68.088  1.00  0.00     0.000 HD 
HETATM   26  H   UNL     1     -12.496   8.902  70.039  1.00  0.00     0.000 HD 
HETATM   27  C   UNL     1     -12.981  10.473  71.352  1.00  0.00    -0.440 C  
HETATM   28  O   UNL     1     -13.496   9.795  72.234  1.00  0.00    -0.434 OA 
ENDBRANCH  14  15
ENDBRANCH  13  14
ENDBRANCH  12  13
BRANCH  12  29
HETATM   29  C   UNL     1     -11.250  15.068  67.159  1.00  0.00    -0.336 C  
HETATM   30  O   UNL     1     -11.111  13.646  67.168  1.00  0.00    -0.287 OA 
HETATM   31  H   UNL     1     -11.646  13.272  66.478  1.00  0.00     0.000 HD 
ENDBRANCH  12  29
ENDBRANCH  11  12
ENDBRANCH  10  11
ENDBRANCH   8  10
ENDBRANCH   4   8
TORSDOF 8
ENDMDL
MODEL       85
REMARK 921   NORMALIZED FREE ENERGY PREDICTED BY IDOCK:   -5.47 KCAL/MOL
REMARK 922        TOTAL FREE ENERGY PREDICTED BY IDOCK:   -9.25 KCAL/MOL
REMARK 923 INTER-LIGAND FREE ENERGY PREDICTED BY IDOCK:   -8.36 KCAL/MOL
REMARK 924 INTRA-LIGAND FREE ENERGY PREDICTED BY IDOCK:   -0.88 KCAL/MOL
REMARK 927      BINDING AFFINITY PREDICTED BY RF-SCORE:    0.00 PKD
ROOT
HETATM    1  C   UNL     1     -11.799  15.476  64.251  1.00  0.00    -0.179 C  
HETATM    2  C   UNL     1     -10.952  14.747  65.301  1.00  0.00    -0.382 C  
HETATM    3  C   UNL     1      -9.606  15.461  65.469  1.00  0.00    -0.253 C  
HETATM    4  C   UNL     1     -10.771  13.239  64.995  1.00  0.00    -0.333 C  
HETATM    5  N   UNL     1     -10.113  13.015  63.688  1.00  0.00    -0.686 NA 
HETATM    6  H1  UNL     1      -9.994  12.022  63.487  1.00  0.00     0.000 HD 
HETATM    7  H2  UNL     1      -9.226  13.514  63.629  1.00  0.00     0.000 HD 
ENDROOT
BRANCH   4   8
HETATM    8  C   UNL     1     -12.118  12.492  65.080  1.00  0.00    -0.446 C  
HETATM    9  O   UNL     1     -12.974  12.504  64.205  1.00  0.00    -0.740 OA 
BRANCH   8  10
HETATM   10  O   UNL     1     -12.272  11.869  66.287  1.00  0.00    -0.471 OA 
BRANCH  10  11
HETATM   11  C   UNL     1     -11.140  11.914  67.174  1.00  0.00    -0.293 C  
BRANCH  11  12
HETATM   12  C   UNL     1     -11.517  12.654  68.467  1.00  0.00    -0.311 C  
BRANCH  12  13
HETATM   13  O   UNL     1     -10.505  13.592  68.900  1.00  0.00    -0.226 OA 
BRANCH  13  14
HETATM   14  C   UNL     1     -11.051  14.774  69.482  1.00  0.00    -0.279 C  
BRANCH  14  15
HETATM   15  N   UNL     1     -10.361  15.927  68.947  1.00  0.00    -0.217 NA 
HETATM   16  C   UNL     1     -10.971  17.012  68.363  1.00  0.00    -0.263 A  
HETATM   17  N   UNL     1     -10.112  17.974  68.082  1.00  0.00    -0.351 NA 
HETATM   18  C   UNL     1      -8.893  17.493  68.507  1.00  0.00    -0.282 A  
HETATM   19  C   UNL     1      -9.046  16.235  69.034  1.00  0.00    -0.255 A  
HETATM   20  N   UNL     1      -8.019  15.541  69.539  1.00  0.00    -0.222 NA 
HETATM   21  C   UNL     1      -6.794  16.162  69.533  1.00  0.00    -0.190 C  
HETATM   22  N   UNL     1      -5.815  15.428  70.118  1.00  0.00    -0.140 NA 
HETATM   23  N   UNL     1      -6.535  17.347  69.062  1.00  0.00    -0.214 N  
HETATM   24  H2  UNL     1      -5.974  14.506  70.524  1.00  0.00     0.000 HD 
HETATM   25  H1  UNL     1      -4.905  15.888  70.113  1.00  0.00     0.000 HD 
HETATM   26  H   UNL     1      -5.586  17.716  69.107  1.00  0.00     0.000 HD 
HETATM   27  C   UNL     1      -7.559  18.116  68.493  1.00  0.00    -0.289 C  
HETATM   28  O   UNL     1      -7.361  19.230  68.025  1.00  0.00    -0.249 OA 
ENDBRANCH  14  15
ENDBRANCH  13  14
ENDBRANCH  12  13
BRANCH  12  29
HETATM   29  C   UNL     1     -11.734  11.651  69.610  1.00  0.00    -0.350 C  
HETATM   30  O   UNL     1     -12.566  10.583  69.152  1.00  0.00    -0.740 OA 
HETATM   31  H   UNL     1     -12.700   9.963  69.859  1.00  0.00     0.000 HD 
ENDBRANCH  12  29
ENDBRANCH  11  12
ENDBRANCH  10  11
ENDBRANCH   8  10
ENDBRANCH   4   8
TORSDOF 8
ENDMDL
MODEL       86
REMARK 921   NORMALIZED FREE ENERGY PREDICTED BY IDOCK:   -5.46 KCAL/MOL
REMARK 922        TOTAL FREE ENERGY PREDICTED BY IDOCK:   -9.22 KCAL/MOL
REMARK 923 INTER-LIGAND FREE ENERGY PREDICTED BY IDOCK:   -8.74 KCAL/MOL
REMARK 924 INTRA-LIGAND FREE ENERGY PREDICTED BY IDOCK:   -0.48 KCAL/MOL
REMARK 927      BINDING AFFINITY PREDICTED BY RF-SCORE:    0.00 PKD
ROOT
HETATM    1  C   UNL     1     -10.404   8.459  72.409  1.00  0.00    -0.399 C  
HETATM    2  C   UNL     1     -10.906   8.225  70.979  1.00  0.00    -0.269 C  
HETATM    3  C   UNL     1      -9.950   7.283  70.241  1.00  0.00    -0.188 C  
HETATM    4  C   UNL     1     -11.140   9.541  70.195  1.00  0.00    -0.255 C  
HETATM    5  N   UNL     1      -9.903  10.346  70.085  1.00  0.00    -0.372 NA 
HETATM    6  H1  UNL     1     -10.058  11.212  69.569  1.00  0.00     0.000 HD 
HETATM    7  H2  UNL     1      -9.142   9.803  69.678  1.00  0.00     0.000 HD 
ENDROOT
BRANCH   4   8
HETATM    8  C   UNL     1     -12.289  10.361  70.819  1.00  0.00    -0.367 C  
HETATM    9  O   UNL     1     -12.949  10.004  71.788  1.00  0.00    -0.392 OA 
BRANCH   8  10
HETATM   10  O   UNL     1     -12.532  11.505  70.112  1.00  0.00    -0.240 OA 
BRANCH  10  11
HETATM   11  C   UNL     1     -12.350  12.742  70.825  1.00  0.00    -0.287 C  
BRANCH  11  12
HETATM   12  C   UNL     1     -12.556  13.931  69.873  1.00  0.00    -0.118 C  
BRANCH  12  13
HETATM   13  O   UNL     1     -11.505  14.057  68.887  1.00  0.00    -0.255 OA 
BRANCH  13  14
HETATM   14  C   UNL     1     -11.983  13.959  67.547  1.00  0.00    -0.386 C  
BRANCH  14  15
HETATM   15  N   UNL     1     -11.007  13.250  66.748  1.00  0.00    -0.284 NA 
HETATM   16  C   UNL     1      -9.735  12.929  67.159  1.00  0.00    -0.221 A  
HETATM   17  N   UNL     1      -9.107  12.169  66.281  1.00  0.00    -0.182 NA 
HETATM   18  C   UNL     1     -10.013  11.987  65.260  1.00  0.00    -0.247 A  
HETATM   19  C   UNL     1     -11.178  12.654  65.546  1.00  0.00    -0.302 A  
HETATM   20  N   UNL     1     -12.236  12.629  64.728  1.00  0.00    -0.442 NA 
HETATM   21  C   UNL     1     -12.115  11.874  63.586  1.00  0.00    -0.477 C  
HETATM   22  N   UNL     1     -13.245  11.842  62.839  1.00  0.00    -0.571 NA 
HETATM   23  N   UNL     1     -11.063  11.203  63.218  1.00  0.00    -0.789 N  
HETATM   24  H2  UNL     1     -14.102  12.329  63.099  1.00  0.00     0.000 HD 
HETATM   25  H1  UNL     1     -13.155  11.282  61.991  1.00  0.00     0.000 HD 
HETATM   26  H   UNL     1     -11.077  10.672  62.347  1.00  0.00     0.000 HD 
HETATM   27  C   UNL     1      -9.911  11.209  64.014  1.00  0.00    -0.302 C  
HETATM   28  O   UNL     1      -8.892  10.605  63.702  1.00  0.00    -0.182 OA 
ENDBRANCH  14  15
ENDBRANCH  13  14
ENDBRANCH  12  13
BRANCH  12  29
HETATM   29  C   UNL     1     -12.603  15.246  70.667  1.00  0.00    -0.417 C  
HETATM   30  O   UNL     1     -13.949  15.510  71.067  1.00  0.00    -0.795 OA 
HETATM   31  H   UNL     1     -13.978  16.323  71.557  1.00  0.00     0.000 HD 
ENDBRANCH  12  29
ENDBRANCH  11  12
ENDBRANCH  10  11
ENDBRANCH   8  10
ENDBRANCH   4   8
TORSDOF 8
ENDMDL
MODEL       87
REMARK 921   NORMALIZED FREE ENERGY PREDICTED BY IDOCK:   -5.43 KCAL/MOL
REMARK 922        TOTAL FREE ENERGY PREDICTED BY IDOCK:   -9.18 KCAL/MOL
REMARK 923 INTER-LIGAND FREE ENERGY PREDICTED BY IDOCK:   -7.38 KCAL/MOL
REMARK 924 INTRA-LIGAND FREE ENERGY PREDICTED BY IDOCK:   -1.80 KCAL/MOL
REMARK 927      BINDING AFFINITY PREDICTED BY RF-SCORE:    0.00 PKD
ROOT
HETATM    1  C   UNL     1      -8.125   7.597  68.328  1.00  0.00    -0.124 C  
HETATM    2  C   UNL     1      -9.145   6.950  67.383  1.00  0.00    -0.122 C  
HETATM    3  C   UNL     1      -8.948   7.486  65.961  1.00  0.00    -0.164 C  
HETATM    4  C   UNL     1     -10.609   7.115  67.864  1.00  0.00    -0.208 C  
HETATM    5  N   UNL     1     -10.992   8.539  67.992  1.00  0.00    -0.471 NA 
HETATM    6  H1  UNL     1     -11.955   8.647  68.309  1.00  0.00     0.000 HD 
HETATM    7  H2  UNL     1     -10.828   9.047  67.123  1.00  0.00     0.000 HD 
ENDROOT
BRANCH   4   8
HETATM    8  C   UNL     1     -10.848   6.349  69.182  1.00  0.00    -0.322 C  
HETATM    9  O   UNL     1     -10.335   5.272  69.461  1.00  0.00    -0.253 OA 
BRANCH   8  10
HETATM   10  O   UNL     1     -11.761   6.986  69.974  1.00  0.00    -0.233 OA 
BRANCH  10  11
HETATM   11  C   UNL     1     -11.410   7.125  71.363  1.00  0.00    -0.259 C  
BRANCH  11  12
HETATM   12  C   UNL     1     -11.174   8.606  71.698  1.00  0.00    -0.309 C  
BRANCH  12  13
HETATM   13  O   UNL     1     -11.993   9.503  70.913  1.00  0.00    -0.286 OA 
BRANCH  13  14
HETATM   14  C   UNL     1     -12.843  10.326  71.710  1.00  0.00    -0.460 C  
BRANCH  14  15
HETATM   15  N   UNL     1     -12.784  11.683  71.216  1.00  0.00    -0.383 NA 
HETATM   16  C   UNL     1     -12.975  12.810  71.980  1.00  0.00    -0.275 A  
HETATM   17  N   UNL     1     -12.736  13.917  71.302  1.00  0.00    -0.351 NA 
HETATM   18  C   UNL     1     -12.370  13.489  70.045  1.00  0.00    -0.249 A  
HETATM   19  C   UNL     1     -12.404  12.117  69.992  1.00  0.00    -0.096 A  
HETATM   20  N   UNL     1     -12.074  11.436  68.889  1.00  0.00    -0.469 NA 
HETATM   21  C   UNL     1     -11.669  12.177  67.805  1.00  0.00    -0.320 C  
HETATM   22  N   UNL     1     -11.288  11.420  66.747  1.00  0.00    -0.405 NA 
HETATM   23  N   UNL     1     -11.598  13.475  67.745  1.00  0.00    -0.318 N  
HETATM   24  H2  UNL     1     -11.301  10.400  66.755  1.00  0.00     0.000 HD 
HETATM   25  H1  UNL     1     -10.988  11.969  65.942  1.00  0.00     0.000 HD 
HETATM   26  H   UNL     1     -11.282  13.928  66.888  1.00  0.00     0.000 HD 
HETATM   27  C   UNL     1     -11.956  14.250  68.855  1.00  0.00    -0.320 C  
HETATM   28  O   UNL     1     -11.919  15.475  68.842  1.00  0.00    -0.351 OA 
ENDBRANCH  14  15
ENDBRANCH  13  14
ENDBRANCH  12  13
BRANCH  12  29
HETATM   29  C   UNL     1      -9.706   8.982  71.444  1.00  0.00    -0.299 C  
HETATM   30  O   UNL     1      -9.626   9.842  70.306  1.00  0.00    -0.331 OA 
HETATM   31  H   UNL     1      -8.719  10.074  70.150  1.00  0.00     0.000 HD 
ENDBRANCH  12  29
ENDBRANCH  11  12
ENDBRANCH  10  11
ENDBRANCH   8  10
ENDBRANCH   4   8
TORSDOF 8
ENDMDL
MODEL       88
REMARK 921   NORMALIZED FREE ENERGY PREDICTED BY IDOCK:   -5.43 KCAL/MOL
REMARK 922        TOTAL FREE ENERGY PREDICTED BY IDOCK:   -9.18 KCAL/MOL
REMARK 923 INTER-LIGAND FREE ENERGY PREDICTED BY IDOCK:   -8.24 KCAL/MOL
REMARK 924 INTRA-LIGAND FREE ENERGY PREDICTED BY IDOCK:   -0.94 KCAL/MOL
REMARK 927      BINDING AFFINITY PREDICTED BY RF-SCORE:    0.00 PKD
ROOT
HETATM    1  C   UNL     1     -11.645   6.497  70.214  1.00  0.00    -0.473 C  
HETATM    2  C   UNL     1     -10.853   7.383  71.183  1.00  0.00    -0.258 C  
HETATM    3  C   UNL     1     -11.694   7.667  72.432  1.00  0.00    -0.366 C  
HETATM    4  C   UNL     1     -10.334   8.687  70.528  1.00  0.00    -0.202 C  
HETATM    5  N   UNL     1     -11.439   9.517  69.999  1.00  0.00    -0.407 NA 
HETATM    6  H1  UNL     1     -11.097  10.376  69.568  1.00  0.00     0.000 HD 
HETATM    7  H2  UNL     1     -12.132   9.716  70.720  1.00  0.00     0.000 HD 
ENDROOT
BRANCH   4   8
HETATM    8  C   UNL     1      -9.290   8.380  69.434  1.00  0.00    -0.154 C  
HETATM    9  O   UNL     1      -8.204   7.853  69.639  1.00  0.00    -0.119 OA 
BRANCH   8  10
HETATM   10  O   UNL     1      -9.696   8.834  68.210  1.00  0.00    -0.152 OA 
BRANCH  10  11
HETATM   11  C   UNL     1      -8.717   9.562  67.447  1.00  0.00    -0.125 C  
BRANCH  11  12
HETATM   12  C   UNL     1      -9.397  10.708  66.680  1.00  0.00    -0.165 C  
BRANCH  12  13
HETATM   13  O   UNL     1     -10.840  10.611  66.676  1.00  0.00    -0.217 OA 
BRANCH  13  14
HETATM   14  C   UNL     1     -11.478  11.760  67.230  1.00  0.00    -0.303 C  
BRANCH  14  15
HETATM   15  N   UNL     1     -11.591  12.777  66.209  1.00  0.00    -0.358 NA 
HETATM   16  C   UNL     1     -12.390  12.689  65.093  1.00  0.00    -0.484 A  
HETATM   17  N   UNL     1     -12.400  13.812  64.399  1.00  0.00    -0.605 NA 
HETATM   18  C   UNL     1     -11.574  14.665  65.097  1.00  0.00    -0.371 A  
HETATM   19  C   UNL     1     -11.075  14.028  66.206  1.00  0.00    -0.307 A  
HETATM   20  N   UNL     1     -10.258  14.636  67.073  1.00  0.00    -0.259 NA 
HETATM   21  C   UNL     1      -9.957  15.951  66.818  1.00  0.00    -0.248 C  
HETATM   22  N   UNL     1      -9.179  16.521  67.771  1.00  0.00    -0.201 NA 
HETATM   23  N   UNL     1     -10.373  16.651  65.803  1.00  0.00    -0.347 N  
HETATM   24  H2  UNL     1      -8.850  16.022  68.597  1.00  0.00     0.000 HD 
HETATM   25  H1  UNL     1      -8.955  17.498  67.581  1.00  0.00     0.000 HD 
HETATM   26  H   UNL     1     -10.090  17.626  65.707  1.00  0.00     0.000 HD 
HETATM   27  C   UNL     1     -11.209  16.068  64.842  1.00  0.00    -0.312 C  
HETATM   28  O   UNL     1     -11.614  16.682  63.863  1.00  0.00    -1.204 OA 
ENDBRANCH  14  15
ENDBRANCH  13  14
ENDBRANCH  12  13
BRANCH  12  29
HETATM   29  C   UNL     1      -8.932  10.717  65.216  1.00  0.00    -0.190 C  
HETATM   30  O   UNL     1      -9.740   9.816  64.456  1.00  0.00    -0.415 OA 
HETATM   31  H   UNL     1      -9.452   9.821  63.551  1.00  0.00     0.000 HD 
ENDBRANCH  12  29
ENDBRANCH  11  12
ENDBRANCH  10  11
ENDBRANCH   8  10
ENDBRANCH   4   8
TORSDOF 8
ENDMDL
MODEL       89
REMARK 921   NORMALIZED FREE ENERGY PREDICTED BY IDOCK:   -5.42 KCAL/MOL
REMARK 922        TOTAL FREE ENERGY PREDICTED BY IDOCK:   -9.17 KCAL/MOL
REMARK 923 INTER-LIGAND FREE ENERGY PREDICTED BY IDOCK:   -8.32 KCAL/MOL
REMARK 924 INTRA-LIGAND FREE ENERGY PREDICTED BY IDOCK:   -0.85 KCAL/MOL
REMARK 927      BINDING AFFINITY PREDICTED BY RF-SCORE:    0.00 PKD
ROOT
HETATM    1  C   UNL     1      -8.436  20.197  67.061  1.00  0.00    -0.397 C  
HETATM    2  C   UNL     1      -9.374  19.149  66.450  1.00  0.00    -0.379 C  
HETATM    3  C   UNL     1     -10.611  19.838  65.864  1.00  0.00    -0.557 C  
HETATM    4  C   UNL     1      -9.757  18.024  67.444  1.00  0.00    -0.296 C  
HETATM    5  N   UNL     1     -10.439  18.556  68.646  1.00  0.00    -0.394 NA 
HETATM    6  H1  UNL     1     -10.691  17.815  69.300  1.00  0.00     0.000 HD 
HETATM    7  H2  UNL     1     -11.251  19.119  68.393  1.00  0.00     0.000 HD 
ENDROOT
BRANCH   4   8
HETATM    8  C   UNL     1      -8.524  17.180  67.828  1.00  0.00    -0.207 C  
HETATM    9  O   UNL     1      -7.834  17.371  68.823  1.00  0.00    -0.266 OA 
BRANCH   8  10
HETATM   10  O   UNL     1      -8.247  16.235  66.881  1.00  0.00    -0.180 OA 
BRANCH  10  11
HETATM   11  C   UNL     1      -9.361  15.444  66.429  1.00  0.00    -0.299 C  
BRANCH  11  12
HETATM   12  C   UNL     1      -9.055  13.950  66.621  1.00  0.00    -0.190 C  
BRANCH  12  13
HETATM   13  O   UNL     1     -10.184  13.199  67.122  1.00  0.00    -0.241 OA 
BRANCH  13  14
HETATM   14  C   UNL     1     -10.568  13.581  68.442  1.00  0.00    -0.248 C  
BRANCH  14  15
HETATM   15  N   UNL     1     -11.185  12.451  69.100  1.00  0.00    -0.248 NA 
HETATM   16  C   UNL     1     -10.881  11.133  68.856  1.00  0.00    -0.216 A  
HETATM   17  N   UNL     1     -11.500  10.317  69.689  1.00  0.00    -0.249 NA 
HETATM   18  C   UNL     1     -12.233  11.144  70.512  1.00  0.00    -0.384 A  
HETATM   19  C   UNL     1     -12.042  12.453  70.147  1.00  0.00    -0.290 A  
HETATM   20  N   UNL     1     -12.624  13.468  70.796  1.00  0.00    -0.331 NA 
HETATM   21  C   UNL     1     -13.410  13.141  71.874  1.00  0.00    -0.455 C  
HETATM   22  N   UNL     1     -13.913  14.220  72.521  1.00  0.00    -0.591 NA 
HETATM   23  N   UNL     1     -13.659  11.939  72.306  1.00  0.00    -0.492 N  
HETATM   24  H2  UNL     1     -13.726  15.182  72.236  1.00  0.00     0.000 HD 
HETATM   25  H1  UNL     1     -14.498  13.978  73.321  1.00  0.00     0.000 HD 
HETATM   26  H   UNL     1     -14.259  11.806  73.120  1.00  0.00     0.000 HD 
HETATM   27  C   UNL     1     -13.104  10.830  71.657  1.00  0.00    -0.446 C  
HETATM   28  O   UNL     1     -13.320   9.679  72.018  1.00  0.00    -0.409 OA 
ENDBRANCH  14  15
ENDBRANCH  13  14
ENDBRANCH  12  13
BRANCH  12  29
HETATM   29  C   UNL     1      -7.901  13.767  67.618  1.00  0.00    -0.178 C  
HETATM   30  O   UNL     1      -6.705  13.441  66.906  1.00  0.00    -0.375 OA 
HETATM   31  H   UNL     1      -5.992  13.328  67.522  1.00  0.00     0.000 HD 
ENDBRANCH  12  29
ENDBRANCH  11  12
ENDBRANCH  10  11
ENDBRANCH   8  10
ENDBRANCH   4   8
TORSDOF 8
ENDMDL
MODEL       90
REMARK 921   NORMALIZED FREE ENERGY PREDICTED BY IDOCK:   -5.42 KCAL/MOL
REMARK 922        TOTAL FREE ENERGY PREDICTED BY IDOCK:   -9.17 KCAL/MOL
REMARK 923 INTER-LIGAND FREE ENERGY PREDICTED BY IDOCK:   -8.40 KCAL/MOL
REMARK 924 INTRA-LIGAND FREE ENERGY PREDICTED BY IDOCK:   -0.76 KCAL/MOL
REMARK 927      BINDING AFFINITY PREDICTED BY RF-SCORE:    0.00 PKD
ROOT
HETATM    1  C   UNL     1     -14.300  15.189  71.949  1.00  0.00    -0.693 C  
HETATM    2  C   UNL     1     -12.927  14.868  72.552  1.00  0.00    -0.472 C  
HETATM    3  C   UNL     1     -12.720  15.681  73.834  1.00  0.00    -0.737 C  
HETATM    4  C   UNL     1     -11.762  15.065  71.550  1.00  0.00    -0.370 C  
HETATM    5  N   UNL     1     -11.693  16.457  71.050  1.00  0.00    -0.597 NA 
HETATM    6  H1  UNL     1     -10.926  16.586  70.390  1.00  0.00     0.000 HD 
HETATM    7  H2  UNL     1     -11.636  17.124  71.819  1.00  0.00     0.000 HD 
ENDROOT
BRANCH   4   8
HETATM    8  C   UNL     1     -11.857  14.056  70.386  1.00  0.00    -0.286 C  
HETATM    9  O   UNL     1     -12.464  12.993  70.437  1.00  0.00    -0.280 OA 
BRANCH   8  10
HETATM   10  O   UNL     1     -11.117  14.459  69.310  1.00  0.00    -0.257 OA 
BRANCH  10  11
HETATM   11  C   UNL     1     -11.859  14.865  68.146  1.00  0.00    -0.278 C  
BRANCH  11  12
HETATM   12  C   UNL     1     -11.764  13.781  67.060  1.00  0.00    -0.390 C  
BRANCH  12  13
HETATM   13  O   UNL     1     -10.858  12.708  67.406  1.00  0.00    -0.234 OA 
BRANCH  13  14
HETATM   14  C   UNL     1     -11.519  11.459  67.600  1.00  0.00    -0.273 C  
BRANCH  14  15
HETATM   15  N   UNL     1     -10.618  10.387  67.241  1.00  0.00    -0.252 NA 
HETATM   16  C   UNL     1     -10.306   9.316  68.045  1.00  0.00    -0.221 A  
HETATM   17  N   UNL     1      -9.562   8.424  67.418  1.00  0.00    -0.150 NA 
HETATM   18  C   UNL     1      -9.389   8.937  66.151  1.00  0.00    -0.239 A  
HETATM   19  C   UNL     1     -10.034  10.144  66.045  1.00  0.00    -0.256 A  
HETATM   20  N   UNL     1     -10.043  10.853  64.911  1.00  0.00    -0.290 NA 
HETATM   21  C   UNL     1      -9.393  10.301  63.834  1.00  0.00    -0.291 C  
HETATM   22  N   UNL     1      -9.497  11.041  62.703  1.00  0.00    -0.508 NA 
HETATM   23  N   UNL     1      -8.752   9.168  63.822  1.00  0.00    -0.371 N  
HETATM   24  H2  UNL     1     -10.010  11.922  62.657  1.00  0.00     0.000 HD 
HETATM   25  H1  UNL     1      -9.014  10.632  61.904  1.00  0.00     0.000 HD 
HETATM   26  H   UNL     1      -8.302   8.848  62.964  1.00  0.00     0.000 HD 
HETATM   27  C   UNL     1      -8.680   8.389  64.983  1.00  0.00    -0.056 C  
HETATM   28  O   UNL     1      -8.078   7.323  65.024  1.00  0.00    -0.125 OA 
ENDBRANCH  14  15
ENDBRANCH  13  14
ENDBRANCH  12  13
BRANCH  12  29
HETATM   29  C   UNL     1     -11.272  14.392  65.739  1.00  0.00    -0.326 C  
HETATM   30  O   UNL     1     -10.016  13.810  65.386  1.00  0.00    -0.448 OA 
HETATM   31  H   UNL     1      -9.711  14.188  64.570  1.00  0.00     0.000 HD 
ENDBRANCH  12  29
ENDBRANCH  11  12
ENDBRANCH  10  11
ENDBRANCH   8  10
ENDBRANCH   4   8
TORSDOF 8
ENDMDL
MODEL       91
REMARK 921   NORMALIZED FREE ENERGY PREDICTED BY IDOCK:   -5.41 KCAL/MOL
REMARK 922        TOTAL FREE ENERGY PREDICTED BY IDOCK:   -9.15 KCAL/MOL
REMARK 923 INTER-LIGAND FREE ENERGY PREDICTED BY IDOCK:   -8.01 KCAL/MOL
REMARK 924 INTRA-LIGAND FREE ENERGY PREDICTED BY IDOCK:   -1.14 KCAL/MOL
REMARK 927      BINDING AFFINITY PREDICTED BY RF-SCORE:    0.00 PKD
ROOT
HETATM    1  C   UNL     1     -11.228   5.914  69.772  1.00  0.00    -0.331 C  
HETATM    2  C   UNL     1     -10.683   6.665  70.993  1.00  0.00    -0.278 C  
HETATM    3  C   UNL     1     -11.362   6.147  72.266  1.00  0.00    -0.346 C  
HETATM    4  C   UNL     1     -10.800   8.204  70.862  1.00  0.00    -0.230 C  
HETATM    5  N   UNL     1     -12.205   8.639  70.687  1.00  0.00    -0.485 NA 
HETATM    6  H1  UNL     1     -12.281   9.652  70.601  1.00  0.00     0.000 HD 
HETATM    7  H2  UNL     1     -12.799   8.285  71.436  1.00  0.00     0.000 HD 
ENDROOT
BRANCH   4   8
HETATM    8  C   UNL     1      -9.904   8.733  69.723  1.00  0.00    -0.186 C  
HETATM    9  O   UNL     1      -8.679   8.728  69.745  1.00  0.00    -0.126 OA 
BRANCH   8  10
HETATM   10  O   UNL     1     -10.645   9.276  68.711  1.00  0.00    -0.217 OA 
BRANCH  10  11
HETATM   11  C   UNL     1     -10.141  10.497  68.141  1.00  0.00    -0.158 C  
BRANCH  11  12
HETATM   12  C   UNL     1     -11.305  11.455  67.840  1.00  0.00    -0.303 C  
BRANCH  12  13
HETATM   13  O   UNL     1     -11.060  12.305  66.696  1.00  0.00    -0.268 OA 
BRANCH  13  14
HETATM   14  C   UNL     1     -12.062  13.304  66.517  1.00  0.00    -0.375 C  
BRANCH  14  15
HETATM   15  N   UNL     1     -11.427  14.551  66.154  1.00  0.00    -0.353 NA 
HETATM   16  C   UNL     1     -11.233  14.993  64.867  1.00  0.00    -0.416 A  
HETATM   17  N   UNL     1     -10.748  16.220  64.830  1.00  0.00    -0.685 NA 
HETATM   18  C   UNL     1     -10.628  16.591  66.152  1.00  0.00    -0.236 A  
HETATM   19  C   UNL     1     -11.041  15.564  66.964  1.00  0.00    -0.238 A  
HETATM   20  N   UNL     1     -11.045  15.665  68.298  1.00  0.00    -0.320 NA 
HETATM   21  C   UNL     1     -10.639  16.866  68.826  1.00  0.00    -0.355 C  
HETATM   22  N   UNL     1     -10.731  16.919  70.178  1.00  0.00    -0.210 NA 
HETATM   23  N   UNL     1     -10.230  17.902  68.154  1.00  0.00    -0.362 N  
HETATM   24  H2  UNL     1     -11.070  16.143  70.746  1.00  0.00     0.000 HD 
HETATM   25  H1  UNL     1     -10.429  17.811  70.571  1.00  0.00     0.000 HD 
HETATM   26  H   UNL     1      -9.950  18.750  68.646  1.00  0.00     0.000 HD 
HETATM   27  C   UNL     1     -10.173  17.855  66.755  1.00  0.00    -0.360 C  
HETATM   28  O   UNL     1      -9.783  18.799  66.080  1.00  0.00    -0.477 OA 
ENDBRANCH  14  15
ENDBRANCH  13  14
ENDBRANCH  12  13
BRANCH  12  29
HETATM   29  C   UNL     1     -11.566  12.370  69.046  1.00  0.00    -0.311 C  
HETATM   30  O   UNL     1     -11.748  11.571  70.217  1.00  0.00    -0.389 OA 
HETATM   31  H   UNL     1     -11.910  12.137  70.963  1.00  0.00     0.000 HD 
ENDBRANCH  12  29
ENDBRANCH  11  12
ENDBRANCH  10  11
ENDBRANCH   8  10
ENDBRANCH   4   8
TORSDOF 8
ENDMDL
MODEL       92
REMARK 921   NORMALIZED FREE ENERGY PREDICTED BY IDOCK:   -5.40 KCAL/MOL
REMARK 922        TOTAL FREE ENERGY PREDICTED BY IDOCK:   -9.14 KCAL/MOL
REMARK 923 INTER-LIGAND FREE ENERGY PREDICTED BY IDOCK:   -8.02 KCAL/MOL
REMARK 924 INTRA-LIGAND FREE ENERGY PREDICTED BY IDOCK:   -1.12 KCAL/MOL
REMARK 927      BINDING AFFINITY PREDICTED BY RF-SCORE:    0.00 PKD
ROOT
HETATM    1  C   UNL     1      -8.211   7.225  68.908  1.00  0.00    -0.125 C  
HETATM    2  C   UNL     1      -9.179   6.491  67.972  1.00  0.00    -0.111 C  
HETATM    3  C   UNL     1      -8.853   6.836  66.515  1.00  0.00    -0.150 C  
HETATM    4  C   UNL     1     -10.668   6.758  68.308  1.00  0.00    -0.235 C  
HETATM    5  N   UNL     1     -11.005   8.197  68.226  1.00  0.00    -0.430 NA 
HETATM    6  H1  UNL     1     -11.985   8.371  68.448  1.00  0.00     0.000 HD 
HETATM    7  H2  UNL     1     -10.756   8.585  67.317  1.00  0.00     0.000 HD 
ENDROOT
BRANCH   4   8
HETATM    8  C   UNL     1     -11.037   6.174  69.688  1.00  0.00    -0.419 C  
HETATM    9  O   UNL     1     -10.642   5.094  70.112  1.00  0.00    -0.272 OA 
BRANCH   8  10
HETATM   10  O   UNL     1     -11.919   6.976  70.354  1.00  0.00    -0.289 OA 
BRANCH  10  11
HETATM   11  C   UNL     1     -11.586   7.291  71.718  1.00  0.00    -0.275 C  
BRANCH  11  12
HETATM   12  C   UNL     1     -11.099   8.746  71.816  1.00  0.00    -0.347 C  
BRANCH  12  13
HETATM   13  O   UNL     1     -11.478   9.550  70.675  1.00  0.00    -0.267 OA 
BRANCH  13  14
HETATM   14  C   UNL     1     -12.357  10.621  71.014  1.00  0.00    -0.403 C  
BRANCH  14  15
HETATM   15  N   UNL     1     -11.976  11.799  70.267  1.00  0.00    -0.354 NA 
HETATM   16  C   UNL     1     -11.253  11.792  69.098  1.00  0.00    -0.264 A  
HETATM   17  N   UNL     1     -11.161  12.996  68.563  1.00  0.00    -0.256 NA 
HETATM   18  C   UNL     1     -11.860  13.817  69.421  1.00  0.00    -0.341 A  
HETATM   19  C   UNL     1     -12.357  13.082  70.469  1.00  0.00    -0.287 A  
HETATM   20  N   UNL     1     -13.093  13.630  71.441  1.00  0.00    -0.337 NA 
HETATM   21  C   UNL     1     -13.358  14.974  71.331  1.00  0.00    -0.436 C  
HETATM   22  N   UNL     1     -14.162  15.448  72.314  1.00  0.00    -0.561 NA 
HETATM   23  N   UNL     1     -12.941  15.763  70.384  1.00  0.00    -0.714 N  
HETATM   24  H2  UNL     1     -14.534  14.863  73.062  1.00  0.00     0.000 HD 
HETATM   25  H1  UNL     1     -14.358  16.445  72.233  1.00  0.00     0.000 HD 
HETATM   26  H   UNL     1     -13.196  16.751  70.396  1.00  0.00     0.000 HD 
HETATM   27  C   UNL     1     -12.142  15.260  69.350  1.00  0.00    -0.270 C  
HETATM   28  O   UNL     1     -11.714  15.967  68.445  1.00  0.00    -0.358 OA 
ENDBRANCH  14  15
ENDBRANCH  13  14
ENDBRANCH  12  13
BRANCH  12  29
HETATM   29  C   UNL     1      -9.566   8.788  71.920  1.00  0.00    -0.302 C  
HETATM   30  O   UNL     1      -9.172   8.449  73.251  1.00  0.00    -0.222 OA 
HETATM   31  H   UNL     1      -8.224   8.475  73.315  1.00  0.00     0.000 HD 
ENDBRANCH  12  29
ENDBRANCH  11  12
ENDBRANCH  10  11
ENDBRANCH   8  10
ENDBRANCH   4   8
TORSDOF 8
ENDMDL
MODEL       93
REMARK 921   NORMALIZED FREE ENERGY PREDICTED BY IDOCK:   -5.38 KCAL/MOL
REMARK 922        TOTAL FREE ENERGY PREDICTED BY IDOCK:   -9.11 KCAL/MOL
REMARK 923 INTER-LIGAND FREE ENERGY PREDICTED BY IDOCK:   -8.24 KCAL/MOL
REMARK 924 INTRA-LIGAND FREE ENERGY PREDICTED BY IDOCK:   -0.86 KCAL/MOL
REMARK 927      BINDING AFFINITY PREDICTED BY RF-SCORE:    0.00 PKD
ROOT
HETATM    1  C   UNL     1     -12.652  12.709  64.544  1.00  0.00    -0.491 C  
HETATM    2  C   UNL     1     -12.313  13.934  65.403  1.00  0.00    -0.494 C  
HETATM    3  C   UNL     1     -12.116  15.159  64.505  1.00  0.00    -0.310 C  
HETATM    4  C   UNL     1     -11.099  13.703  66.338  1.00  0.00    -0.303 C  
HETATM    5  N   UNL     1      -9.874  13.362  65.581  1.00  0.00    -0.454 NA 
HETATM    6  H1  UNL     1      -9.076  13.210  66.197  1.00  0.00     0.000 HD 
HETATM    7  H2  UNL     1      -9.667  14.067  64.874  1.00  0.00     0.000 HD 
ENDROOT
BRANCH   4   8
HETATM    8  C   UNL     1     -11.417  12.631  67.402  1.00  0.00    -0.337 C  
HETATM    9  O   UNL     1     -11.009  11.476  67.366  1.00  0.00    -0.233 OA 
BRANCH   8  10
HETATM   10  O   UNL     1     -12.272  13.106  68.356  1.00  0.00    -0.248 OA 
BRANCH  10  11
HETATM   11  C   UNL     1     -11.662  13.718  69.507  1.00  0.00    -0.323 C  
BRANCH  11  12
HETATM   12  C   UNL     1     -12.130  15.177  69.634  1.00  0.00    -0.304 C  
BRANCH  12  13
HETATM   13  O   UNL     1     -11.042  16.128  69.592  1.00  0.00    -0.305 OA 
BRANCH  13  14
HETATM   14  C   UNL     1     -10.858  16.709  68.302  1.00  0.00    -0.356 C  
BRANCH  14  15
HETATM   15  N   UNL     1      -9.837  17.729  68.386  1.00  0.00    -0.327 NA 
HETATM   16  C   UNL     1     -10.022  18.992  68.895  1.00  0.00    -0.398 A  
HETATM   17  N   UNL     1      -8.892  19.670  68.969  1.00  0.00    -0.226 NA 
HETATM   18  C   UNL     1      -7.931  18.806  68.491  1.00  0.00    -0.345 A  
HETATM   19  C   UNL     1      -8.513  17.616  68.130  1.00  0.00    -0.260 A  
HETATM   20  N   UNL     1      -7.802  16.590  67.649  1.00  0.00    -0.155 NA 
HETATM   21  C   UNL     1      -6.443  16.771  67.557  1.00  0.00    -0.152 C  
HETATM   22  N   UNL     1      -5.781  15.670  67.125  1.00  0.00    -0.298 NA 
HETATM   23  N   UNL     1      -5.789  17.851  67.872  1.00  0.00    -0.155 N  
HETATM   24  H2  UNL     1      -6.246  14.793  66.892  1.00  0.00     0.000 HD 
HETATM   25  H1  UNL     1      -4.772  15.804  67.056  1.00  0.00     0.000 HD 
HETATM   26  H   UNL     1      -4.775  17.881  67.766  1.00  0.00     0.000 HD 
HETATM   27  C   UNL     1      -6.475  18.972  68.354  1.00  0.00    -0.234 C  
HETATM   28  O   UNL     1      -5.905  20.016  68.650  1.00  0.00    -0.229 OA 
ENDBRANCH  14  15
ENDBRANCH  13  14
ENDBRANCH  12  13
BRANCH  12  29
HETATM   29  C   UNL     1     -12.871  15.383  70.964  1.00  0.00    -0.463 C  
HETATM   30  O   UNL     1     -14.278  15.445  70.719  1.00  0.00    -0.844 OA 
HETATM   31  H   UNL     1     -14.736  15.573  71.541  1.00  0.00     0.000 HD 
ENDBRANCH  12  29
ENDBRANCH  11  12
ENDBRANCH  10  11
ENDBRANCH   8  10
ENDBRANCH   4   8
TORSDOF 8
ENDMDL
MODEL       94
REMARK 921   NORMALIZED FREE ENERGY PREDICTED BY IDOCK:   -5.37 KCAL/MOL
REMARK 922        TOTAL FREE ENERGY PREDICTED BY IDOCK:   -9.10 KCAL/MOL
REMARK 923 INTER-LIGAND FREE ENERGY PREDICTED BY IDOCK:   -8.24 KCAL/MOL
REMARK 924 INTRA-LIGAND FREE ENERGY PREDICTED BY IDOCK:   -0.86 KCAL/MOL
REMARK 927      BINDING AFFINITY PREDICTED BY RF-SCORE:    0.00 PKD
ROOT
HETATM    1  C   UNL     1     -12.684  12.085  63.400  1.00  0.00    -0.527 C  
HETATM    2  C   UNL     1     -12.090  12.259  64.803  1.00  0.00    -0.436 C  
HETATM    3  C   UNL     1     -12.649  13.531  65.449  1.00  0.00    -0.531 C  
HETATM    4  C   UNL     1     -10.540  12.240  64.813  1.00  0.00    -0.297 C  
HETATM    5  N   UNL     1      -9.968  13.315  63.972  1.00  0.00    -0.750 NA 
HETATM    6  H1  UNL     1      -8.949  13.302  63.979  1.00  0.00     0.000 HD 
HETATM    7  H2  UNL     1     -10.329  14.230  64.244  1.00  0.00     0.000 HD 
ENDROOT
BRANCH   4   8
HETATM    8  C   UNL     1     -10.001  10.856  64.396  1.00  0.00    -0.322 C  
HETATM    9  O   UNL     1      -9.591  10.580  63.275  1.00  0.00    -0.292 OA 
BRANCH   8  10
HETATM   10  O   UNL     1     -10.105   9.948  65.413  1.00  0.00    -0.313 OA 
BRANCH  10  11
HETATM   11  C   UNL     1      -9.498  10.323  66.662  1.00  0.00    -0.166 C  
BRANCH  11  12
HETATM   12  C   UNL     1      -8.850   9.095  67.320  1.00  0.00    -0.124 C  
BRANCH  12  13
HETATM   13  O   UNL     1      -9.802   8.246  68.000  1.00  0.00    -0.157 OA 
BRANCH  13  14
HETATM   14  C   UNL     1      -9.459   8.001  69.363  1.00  0.00    -0.159 C  
BRANCH  14  15
HETATM   15  N   UNL     1     -10.668   7.973  70.156  1.00  0.00    -0.242 NA 
HETATM   16  C   UNL     1     -11.193   6.852  70.755  1.00  0.00    -0.294 A  
HETATM   17  N   UNL     1     -12.227   7.138  71.524  1.00  0.00    -0.339 NA 
HETATM   18  C   UNL     1     -12.375   8.504  71.423  1.00  0.00    -0.297 A  
HETATM   19  C   UNL     1     -11.420   9.015  70.580  1.00  0.00    -0.212 A  
HETATM   20  N   UNL     1     -11.324  10.323  70.318  1.00  0.00    -0.301 NA 
HETATM   21  C   UNL     1     -12.218  11.147  70.957  1.00  0.00    -0.333 C  
HETATM   22  N   UNL     1     -12.021  12.463  70.696  1.00  0.00    -0.506 NA 
HETATM   23  N   UNL     1     -13.159  10.772  71.774  1.00  0.00    -0.478 N  
HETATM   24  H2  UNL     1     -11.281  12.807  70.084  1.00  0.00     0.000 HD 
HETATM   25  H1  UNL     1     -12.685  13.075  71.170  1.00  0.00     0.000 HD 
HETATM   26  H   UNL     1     -13.772  11.469  72.198  1.00  0.00     0.000 HD 
HETATM   27  C   UNL     1     -13.333   9.415  72.070  1.00  0.00    -0.450 C  
HETATM   28  O   UNL     1     -14.214   9.013  72.822  1.00  0.00    -0.572 OA 
ENDBRANCH  14  15
ENDBRANCH  13  14
ENDBRANCH  12  13
BRANCH  12  29
HETATM   29  C   UNL     1      -7.803   9.535  68.355  1.00  0.00    -0.086 C  
HETATM   30  O   UNL     1      -6.494   9.263  67.852  1.00  0.00    -0.058 OA 
HETATM   31  H   UNL     1      -5.847   9.535  68.492  1.00  0.00     0.000 HD 
ENDBRANCH  12  29
ENDBRANCH  11  12
ENDBRANCH  10  11
ENDBRANCH   8  10
ENDBRANCH   4   8
TORSDOF 8
ENDMDL
MODEL       95
REMARK 921   NORMALIZED FREE ENERGY PREDICTED BY IDOCK:   -5.37 KCAL/MOL
REMARK 922        TOTAL FREE ENERGY PREDICTED BY IDOCK:   -9.09 KCAL/MOL
REMARK 923 INTER-LIGAND FREE ENERGY PREDICTED BY IDOCK:   -8.14 KCAL/MOL
REMARK 924 INTRA-LIGAND FREE ENERGY PREDICTED BY IDOCK:   -0.95 KCAL/MOL
REMARK 927      BINDING AFFINITY PREDICTED BY RF-SCORE:    0.00 PKD
ROOT
HETATM    1  C   UNL     1     -10.774  11.124  64.196  1.00  0.00    -0.415 C  
HETATM    2  C   UNL     1     -11.770  12.223  64.585  1.00  0.00    -0.420 C  
HETATM    3  C   UNL     1     -12.127  13.060  63.352  1.00  0.00    -0.591 C  
HETATM    4  C   UNL     1     -11.273  13.106  65.758  1.00  0.00    -0.286 C  
HETATM    5  N   UNL     1      -9.996  13.783  65.438  1.00  0.00    -0.507 NA 
HETATM    6  H1  UNL     1      -9.670  14.364  66.209  1.00  0.00     0.000 HD 
HETATM    7  H2  UNL     1     -10.068  14.321  64.574  1.00  0.00     0.000 HD 
ENDROOT
BRANCH   4   8
HETATM    8  C   UNL     1     -11.161  12.286  67.059  1.00  0.00    -0.310 C  
HETATM    9  O   UNL     1     -11.253  11.065  67.120  1.00  0.00    -0.309 OA 
BRANCH   8  10
HETATM   10  O   UNL     1     -11.019  13.093  68.153  1.00  0.00    -0.234 OA 
BRANCH  10  11
HETATM   11  C   UNL     1     -12.036  14.094  68.339  1.00  0.00    -0.273 C  
BRANCH  11  12
HETATM   12  C   UNL     1     -11.385  15.468  68.562  1.00  0.00    -0.351 C  
BRANCH  12  13
HETATM   13  O   UNL     1     -10.157  15.643  67.817  1.00  0.00    -0.223 OA 
BRANCH  13  14
HETATM   14  C   UNL     1      -9.068  16.076  68.628  1.00  0.00    -0.213 C  
BRANCH  14  15
HETATM   15  N   UNL     1      -8.084  16.725  67.791  1.00  0.00    -0.176 NA 
HETATM   16  C   UNL     1      -6.969  16.115  67.266  1.00  0.00    -0.199 A  
HETATM   17  N   UNL     1      -6.316  16.904  66.434  1.00  0.00    -0.255 NA 
HETATM   18  C   UNL     1      -7.041  18.075  66.416  1.00  0.00    -0.247 A  
HETATM   19  C   UNL     1      -8.124  17.965  67.252  1.00  0.00    -0.212 A  
HETATM   20  N   UNL     1      -9.010  18.955  67.409  1.00  0.00    -0.275 NA 
HETATM   21  C   UNL     1      -8.801  20.092  66.667  1.00  0.00    -0.290 C  
HETATM   22  N   UNL     1      -9.771  21.026  66.826  1.00  0.00    -0.507 NA 
HETATM   23  N   UNL     1      -7.814  20.303  65.846  1.00  0.00    -0.535 N  
HETATM   24  H2  UNL     1     -10.577  20.897  67.438  1.00  0.00     0.000 HD 
HETATM   25  H1  UNL     1      -9.616  21.871  66.276  1.00  0.00     0.000 HD 
HETATM   26  H   UNL     1      -7.752  21.187  65.341  1.00  0.00     0.000 HD 
HETATM   27  C   UNL     1      -6.836  19.319  65.656  1.00  0.00    -0.283 C  
HETATM   28  O   UNL     1      -5.881  19.477  64.905  1.00  0.00    -0.201 OA 
ENDBRANCH  14  15
ENDBRANCH  13  14
ENDBRANCH  12  13
BRANCH  12  29
HETATM   29  C   UNL     1     -11.052  15.664  70.049  1.00  0.00    -0.324 C  
HETATM   30  O   UNL     1     -11.146  14.409  70.725  1.00  0.00    -0.499 OA 
HETATM   31  H   UNL     1     -10.940  14.530  71.645  1.00  0.00     0.000 HD 
ENDBRANCH  12  29
ENDBRANCH  11  12
ENDBRANCH  10  11
ENDBRANCH   8  10
ENDBRANCH   4   8
TORSDOF 8
ENDMDL
MODEL       96
REMARK 921   NORMALIZED FREE ENERGY PREDICTED BY IDOCK:   -5.36 KCAL/MOL
REMARK 922        TOTAL FREE ENERGY PREDICTED BY IDOCK:   -9.09 KCAL/MOL
REMARK 923 INTER-LIGAND FREE ENERGY PREDICTED BY IDOCK:   -8.80 KCAL/MOL
REMARK 924 INTRA-LIGAND FREE ENERGY PREDICTED BY IDOCK:   -0.28 KCAL/MOL
REMARK 927      BINDING AFFINITY PREDICTED BY RF-SCORE:    0.00 PKD
ROOT
HETATM    1  C   UNL     1      -8.481   8.084  73.363  1.00  0.00    -0.295 C  
HETATM    2  C   UNL     1      -8.833   7.160  72.191  1.00  0.00    -0.140 C  
HETATM    3  C   UNL     1      -8.740   5.697  72.637  1.00  0.00    -0.123 C  
HETATM    4  C   UNL     1      -7.982   7.433  70.925  1.00  0.00    -0.097 C  
HETATM    5  N   UNL     1      -6.535   7.259  71.184  1.00  0.00    -0.043 NA 
HETATM    6  H1  UNL     1      -5.975   7.439  70.351  1.00  0.00     0.000 HD 
HETATM    7  H2  UNL     1      -6.336   6.337  71.572  1.00  0.00     0.000 HD 
ENDROOT
BRANCH   4   8
HETATM    8  C   UNL     1      -8.284   8.831  70.347  1.00  0.00    -0.122 C  
HETATM    9  O   UNL     1      -7.657   9.847  70.624  1.00  0.00    -0.288 OA 
BRANCH   8  10
HETATM   10  O   UNL     1      -9.386   8.814  69.539  1.00  0.00    -0.154 OA 
BRANCH  10  11
HETATM   11  C   UNL     1      -9.678  10.036  68.838  1.00  0.00    -0.181 C  
BRANCH  11  12
HETATM   12  C   UNL     1     -11.199  10.242  68.755  1.00  0.00    -0.206 C  
BRANCH  12  13
HETATM   13  O   UNL     1     -11.580  11.303  67.849  1.00  0.00    -0.441 OA 
BRANCH  13  14
HETATM   14  C   UNL     1     -11.974  12.497  68.521  1.00  0.00    -0.219 C  
BRANCH  14  15
HETATM   15  N   UNL     1     -11.885  13.609  67.600  1.00  0.00    -0.361 NA 
HETATM   16  C   UNL     1     -11.431  14.866  67.921  1.00  0.00    -0.340 A  
HETATM   17  N   UNL     1     -11.335  15.646  66.860  1.00  0.00    -0.109 NA 
HETATM   18  C   UNL     1     -11.740  14.858  65.805  1.00  0.00    -0.179 A  
HETATM   19  C   UNL     1     -12.081  13.609  66.261  1.00  0.00    -0.434 A  
HETATM   20  N   UNL     1     -12.493  12.636  65.440  1.00  0.00    -0.655 NA 
HETATM   21  C   UNL     1     -12.535  12.937  64.101  1.00  0.00    -0.335 C  
HETATM   22  N   UNL     1     -12.898  11.887  63.323  1.00  0.00    -0.854 NA 
HETATM   23  N   UNL     1     -12.234  14.082  63.561  1.00  0.00    -1.079 N  
HETATM   24  H2  UNL     1     -13.118  10.964  63.697  1.00  0.00     0.000 HD 
HETATM   25  H1  UNL     1     -12.929  12.110  62.328  1.00  0.00     0.000 HD 
HETATM   26  H   UNL     1     -12.298  14.200  62.550  1.00  0.00     0.000 HD 
HETATM   27  C   UNL     1     -11.822  15.151  64.365  1.00  0.00    -0.305 C  
HETATM   28  O   UNL     1     -11.541  16.251  63.905  1.00  0.00    -0.987 OA 
ENDBRANCH  14  15
ENDBRANCH  13  14
ENDBRANCH  12  13
BRANCH  12  29
HETATM   29  C   UNL     1     -11.765  10.594  70.139  1.00  0.00    -0.332 C  
HETATM   30  O   UNL     1     -12.826   9.693  70.461  1.00  0.00    -0.525 OA 
HETATM   31  H   UNL     1     -13.176   9.910  71.317  1.00  0.00     0.000 HD 
ENDBRANCH  12  29
ENDBRANCH  11  12
ENDBRANCH  10  11
ENDBRANCH   8  10
ENDBRANCH   4   8
TORSDOF 8
ENDMDL
MODEL       97
REMARK 921   NORMALIZED FREE ENERGY PREDICTED BY IDOCK:   -5.34 KCAL/MOL
REMARK 922        TOTAL FREE ENERGY PREDICTED BY IDOCK:   -9.05 KCAL/MOL
REMARK 923 INTER-LIGAND FREE ENERGY PREDICTED BY IDOCK:   -8.31 KCAL/MOL
REMARK 924 INTRA-LIGAND FREE ENERGY PREDICTED BY IDOCK:   -0.74 KCAL/MOL
REMARK 927      BINDING AFFINITY PREDICTED BY RF-SCORE:    0.00 PKD
ROOT
HETATM    1  C   UNL     1     -10.403  12.382  64.280  1.00  0.00    -0.388 C  
HETATM    2  C   UNL     1     -11.919  12.446  64.500  1.00  0.00    -0.474 C  
HETATM    3  C   UNL     1     -12.647  11.991  63.231  1.00  0.00    -0.512 C  
HETATM    4  C   UNL     1     -12.406  13.837  64.977  1.00  0.00    -0.428 C  
HETATM    5  N   UNL     1     -12.071  14.903  64.005  1.00  0.00    -0.895 NA 
HETATM    6  H1  UNL     1     -12.392  15.818  64.320  1.00  0.00     0.000 HD 
HETATM    7  H2  UNL     1     -12.431  14.684  63.076  1.00  0.00     0.000 HD 
ENDROOT
BRANCH   4   8
HETATM    8  C   UNL     1     -11.854  14.165  66.380  1.00  0.00    -0.423 C  
HETATM    9  O   UNL     1     -12.453  13.954  67.428  1.00  0.00    -0.215 OA 
BRANCH   8  10
HETATM   10  O   UNL     1     -10.641  14.791  66.310  1.00  0.00    -0.291 OA 
BRANCH  10  11
HETATM   11  C   UNL     1      -9.779  14.634  67.451  1.00  0.00    -0.218 C  
BRANCH  11  12
HETATM   12  C   UNL     1      -9.104  13.254  67.412  1.00  0.00    -0.216 C  
BRANCH  12  13
HETATM   13  O   UNL     1      -9.698  12.305  68.328  1.00  0.00    -0.214 OA 
BRANCH  13  14
HETATM   14  C   UNL     1     -10.093  11.089  67.695  1.00  0.00    -0.182 C  
BRANCH  14  15
HETATM   15  N   UNL     1     -10.297  10.075  68.705  1.00  0.00    -0.181 NA 
HETATM   16  C   UNL     1     -10.414  10.316  70.053  1.00  0.00    -0.241 A  
HETATM   17  N   UNL     1     -10.723   9.225  70.729  1.00  0.00    -0.258 NA 
HETATM   18  C   UNL     1     -10.816   8.235  69.775  1.00  0.00    -0.185 A  
HETATM   19  C   UNL     1     -10.550   8.757  68.534  1.00  0.00    -0.129 A  
HETATM   20  N   UNL     1     -10.590   8.014  67.422  1.00  0.00    -0.285 NA 
HETATM   21  C   UNL     1     -10.939   6.694  67.575  1.00  0.00    -0.338 C  
HETATM   22  N   UNL     1     -11.023   6.019  66.403  1.00  0.00    -0.714 NA 
HETATM   23  N   UNL     1     -11.212   6.097  68.699  1.00  0.00    -0.405 N  
HETATM   24  H2  UNL     1     -10.844   6.449  65.496  1.00  0.00     0.000 HD 
HETATM   25  H1  UNL     1     -11.282   5.039  66.516  1.00  0.00     0.000 HD 
HETATM   26  H   UNL     1     -11.462   5.109  68.702  1.00  0.00     0.000 HD 
HETATM   27  C   UNL     1     -11.162   6.810  69.904  1.00  0.00    -0.326 C  
HETATM   28  O   UNL     1     -11.397   6.288  70.987  1.00  0.00    -0.305 OA 
ENDBRANCH  14  15
ENDBRANCH  13  14
ENDBRANCH  12  13
BRANCH  12  29
HETATM   29  C   UNL     1      -7.617  13.378  67.779  1.00  0.00    -0.157 C  
HETATM   30  O   UNL     1      -6.853  12.478  66.974  1.00  0.00    -0.336 OA 
HETATM   31  H   UNL     1      -5.934  12.555  67.200  1.00  0.00     0.000 HD 
ENDBRANCH  12  29
ENDBRANCH  11  12
ENDBRANCH  10  11
ENDBRANCH   8  10
ENDBRANCH   4   8
TORSDOF 8
ENDMDL
MODEL       98
REMARK 921   NORMALIZED FREE ENERGY PREDICTED BY IDOCK:   -5.34 KCAL/MOL
REMARK 922        TOTAL FREE ENERGY PREDICTED BY IDOCK:   -9.05 KCAL/MOL
REMARK 923 INTER-LIGAND FREE ENERGY PREDICTED BY IDOCK:   -8.38 KCAL/MOL
REMARK 924 INTRA-LIGAND FREE ENERGY PREDICTED BY IDOCK:   -0.67 KCAL/MOL
REMARK 927      BINDING AFFINITY PREDICTED BY RF-SCORE:    0.00 PKD
ROOT
HETATM    1  C   UNL     1     -10.795   6.037  68.860  1.00  0.00    -0.400 C  
HETATM    2  C   UNL     1      -9.483   6.406  69.564  1.00  0.00    -0.151 C  
HETATM    3  C   UNL     1      -8.294   6.034  68.672  1.00  0.00    -0.113 C  
HETATM    4  C   UNL     1      -9.358   5.788  70.979  1.00  0.00    -0.160 C  
HETATM    5  N   UNL     1      -9.421   4.309  70.944  1.00  0.00    -0.154 NA 
HETATM    6  H1  UNL     1      -9.339   3.903  71.876  1.00  0.00     0.000 HD 
HETATM    7  H2  UNL     1      -8.724   3.923  70.309  1.00  0.00     0.000 HD 
ENDROOT
BRANCH   4   8
HETATM    8  C   UNL     1     -10.420   6.371  71.934  1.00  0.00    -0.209 C  
HETATM    9  O   UNL     1     -11.150   5.700  72.653  1.00  0.00    -0.250 OA 
BRANCH   8  10
HETATM   10  O   UNL     1     -10.500   7.731  71.826  1.00  0.00    -0.208 OA 
BRANCH  10  11
HETATM   11  C   UNL     1     -11.665   8.347  72.404  1.00  0.00    -0.382 C  
BRANCH  11  12
HETATM   12  C   UNL     1     -12.806   8.377  71.374  1.00  0.00    -0.245 C  
BRANCH  12  13
HETATM   13  O   UNL     1     -12.956   9.664  70.731  1.00  0.00    -0.219 OA 
BRANCH  13  14
HETATM   14  C   UNL     1     -11.822  10.510  70.903  1.00  0.00    -0.355 C  
BRANCH  14  15
HETATM   15  N   UNL     1     -11.682  11.356  69.739  1.00  0.00    -0.315 NA 
HETATM   16  C   UNL     1     -11.547  10.904  68.447  1.00  0.00    -0.276 A  
HETATM   17  N   UNL     1     -11.569  11.891  67.571  1.00  0.00    -0.474 NA 
HETATM   18  C   UNL     1     -11.731  13.031  68.327  1.00  0.00    -0.353 A  
HETATM   19  C   UNL     1     -11.796  12.702  69.658  1.00  0.00    -0.311 A  
HETATM   20  N   UNL     1     -11.970  13.621  70.614  1.00  0.00    -0.297 NA 
HETATM   21  C   UNL     1     -12.110  14.923  70.200  1.00  0.00    -0.327 C  
HETATM   22  N   UNL     1     -12.348  15.789  71.214  1.00  0.00    -0.420 NA 
HETATM   23  N   UNL     1     -12.066  15.346  68.970  1.00  0.00    -0.582 N  
HETATM   24  H2  UNL     1     -12.417  15.503  72.191  1.00  0.00     0.000 HD 
HETATM   25  H1  UNL     1     -12.452  16.757  70.907  1.00  0.00     0.000 HD 
HETATM   26  H   UNL     1     -12.183  16.339  68.769  1.00  0.00     0.000 HD 
HETATM   27  C   UNL     1     -11.859  14.441  67.922  1.00  0.00    -0.349 C  
HETATM   28  O   UNL     1     -11.796  14.793  66.750  1.00  0.00    -0.353 OA 
ENDBRANCH  14  15
ENDBRANCH  13  14
ENDBRANCH  12  13
BRANCH  12  29
HETATM   29  C   UNL     1     -14.144   8.043  72.053  1.00  0.00    -0.337 C  
HETATM   30  O   UNL     1     -14.378   8.965  73.119  1.00  0.00    -1.143 OA 
HETATM   31  H   UNL     1     -15.205   8.759  73.539  1.00  0.00     0.000 HD 
ENDBRANCH  12  29
ENDBRANCH  11  12
ENDBRANCH  10  11
ENDBRANCH   8  10
ENDBRANCH   4   8
TORSDOF 8
ENDMDL
MODEL       99
REMARK 921   NORMALIZED FREE ENERGY PREDICTED BY IDOCK:   -5.33 KCAL/MOL
REMARK 922        TOTAL FREE ENERGY PREDICTED BY IDOCK:   -9.04 KCAL/MOL
REMARK 923 INTER-LIGAND FREE ENERGY PREDICTED BY IDOCK:   -7.46 KCAL/MOL
REMARK 924 INTRA-LIGAND FREE ENERGY PREDICTED BY IDOCK:   -1.58 KCAL/MOL
REMARK 927      BINDING AFFINITY PREDICTED BY RF-SCORE:    0.00 PKD
ROOT
HETATM    1  C   UNL     1      -6.067  13.351  69.750  1.00  0.00    -0.128 C  
HETATM    2  C   UNL     1      -6.573  14.260  68.624  1.00  0.00    -0.090 C  
HETATM    3  C   UNL     1      -6.625  15.711  69.112  1.00  0.00    -0.140 C  
HETATM    4  C   UNL     1      -7.931  13.800  68.035  1.00  0.00    -0.156 C  
HETATM    5  N   UNL     1      -8.995  13.764  69.064  1.00  0.00    -0.366 NA 
HETATM    6  H1  UNL     1      -9.889  13.461  68.676  1.00  0.00     0.000 HD 
HETATM    7  H2  UNL     1      -9.083  14.662  69.538  1.00  0.00     0.000 HD 
ENDROOT
BRANCH   4   8
HETATM    8  C   UNL     1      -7.793  12.438  67.324  1.00  0.00    -0.166 C  
HETATM    9  O   UNL     1      -6.748  12.003  66.855  1.00  0.00    -0.129 OA 
BRANCH   8  10
HETATM   10  O   UNL     1      -8.998  11.803  67.216  1.00  0.00    -0.163 OA 
BRANCH  10  11
HETATM   11  C   UNL     1      -9.587  11.779  65.903  1.00  0.00    -0.230 C  
BRANCH  11  12
HETATM   12  C   UNL     1     -11.116  11.659  66.017  1.00  0.00    -0.270 C  
BRANCH  12  13
HETATM   13  O   UNL     1     -11.823  12.557  65.132  1.00  0.00    -0.366 OA 
BRANCH  13  14
HETATM   14  C   UNL     1     -12.492  13.611  65.822  1.00  0.00    -0.477 C  
BRANCH  14  15
HETATM   15  N   UNL     1     -11.830  14.862  65.529  1.00  0.00    -0.223 NA 
HETATM   16  C   UNL     1     -11.779  15.457  64.290  1.00  0.00    -0.206 A  
HETATM   17  N   UNL     1     -11.224  16.654  64.336  1.00  0.00    -1.060 NA 
HETATM   18  C   UNL     1     -10.907  16.845  65.662  1.00  0.00    -0.079 A  
HETATM   19  C   UNL     1     -11.275  15.743  66.393  1.00  0.00     0.034 A  
HETATM   20  N   UNL     1     -11.098  15.672  67.717  1.00  0.00    -0.320 NA 
HETATM   21  C   UNL     1     -10.548  16.773  68.326  1.00  0.00    -0.352 C  
HETATM   22  N   UNL     1     -10.457  16.656  69.673  1.00  0.00    -0.277 NA 
HETATM   23  N   UNL     1     -10.164  17.866  67.734  1.00  0.00    -0.350 N  
HETATM   24  H2  UNL     1     -10.768  15.830  70.185  1.00  0.00     0.000 HD 
HETATM   25  H1  UNL     1     -10.049  17.474  70.126  1.00  0.00     0.000 HD 
HETATM   26  H   UNL     1      -9.767  18.630  68.282  1.00  0.00     0.000 HD 
HETATM   27  C   UNL     1     -10.296  17.997  66.346  1.00  0.00    -0.379 C  
HETATM   28  O   UNL     1      -9.936  19.001  65.742  1.00  0.00    -0.473 OA 
ENDBRANCH  14  15
ENDBRANCH  13  14
ENDBRANCH  12  13
BRANCH  12  29
HETATM   29  C   UNL     1     -11.569  11.973  67.451  1.00  0.00    -0.318 C  
HETATM   30  O   UNL     1     -12.008  10.770  68.084  1.00  0.00    -0.775 OA 
HETATM   31  H   UNL     1     -12.289  10.964  68.970  1.00  0.00     0.000 HD 
ENDBRANCH  12  29
ENDBRANCH  11  12
ENDBRANCH  10  11
ENDBRANCH   8  10
ENDBRANCH   4   8
TORSDOF 8
ENDMDL
MODEL      100
REMARK 921   NORMALIZED FREE ENERGY PREDICTED BY IDOCK:   -5.32 KCAL/MOL
REMARK 922        TOTAL FREE ENERGY PREDICTED BY IDOCK:   -9.02 KCAL/MOL
REMARK 923 INTER-LIGAND FREE ENERGY PREDICTED BY IDOCK:   -8.22 KCAL/MOL
REMARK 924 INTRA-LIGAND FREE ENERGY PREDICTED BY IDOCK:   -0.80 KCAL/MOL
REMARK 927      BINDING AFFINITY PREDICTED BY RF-SCORE:    0.00 PKD
ROOT
HETATM    1  C   UNL     1      -9.895   4.800  72.033  1.00  0.00    -0.234 C  
HETATM    2  C   UNL     1     -10.022   5.938  73.054  1.00  0.00    -0.188 C  
HETATM    3  C   UNL     1     -10.616   5.400  74.359  1.00  0.00    -0.160 C  
HETATM    4  C   UNL     1     -10.819   7.152  72.514  1.00  0.00    -0.264 C  
HETATM    5  N   UNL     1     -12.196   6.778  72.120  1.00  0.00    -0.483 NA 
HETATM    6  H1  UNL     1     -12.720   7.578  71.765  1.00  0.00     0.000 HD 
HETATM    7  H2  UNL     1     -12.690   6.323  72.886  1.00  0.00     0.000 HD 
ENDROOT
BRANCH   4   8
HETATM    8  C   UNL     1     -10.069   7.833  71.350  1.00  0.00    -0.182 C  
HETATM    9  O   UNL     1      -9.056   8.511  71.480  1.00  0.00    -0.174 OA 
BRANCH   8  10
HETATM   10  O   UNL     1     -10.714   7.649  70.160  1.00  0.00    -0.233 OA 
BRANCH  10  11
HETATM   11  C   UNL     1     -10.645   8.741  69.225  1.00  0.00    -0.197 C  
BRANCH  11  12
HETATM   12  C   UNL     1      -9.904   8.297  67.954  1.00  0.00    -0.169 C  
BRANCH  12  13
HETATM   13  O   UNL     1     -10.290   9.049  66.780  1.00  0.00    -0.261 OA 
BRANCH  13  14
HETATM   14  C   UNL     1      -9.327  10.033  66.406  1.00  0.00    -0.168 C  
BRANCH  14  15
HETATM   15  N   UNL     1      -9.922  10.935  65.445  1.00  0.00    -0.247 NA 
HETATM   16  C   UNL     1      -9.933  10.743  64.084  1.00  0.00    -0.343 A  
HETATM   17  N   UNL     1     -10.656  11.653  63.459  1.00  0.00    -0.409 NA 
HETATM   18  C   UNL     1     -11.139  12.467  64.459  1.00  0.00    -0.317 A  
HETATM   19  C   UNL     1     -10.685  12.028  65.678  1.00  0.00    -0.272 A  
HETATM   20  N   UNL     1     -11.021  12.629  66.825  1.00  0.00    -0.254 NA 
HETATM   21  C   UNL     1     -11.872  13.703  66.732  1.00  0.00    -0.413 C  
HETATM   22  N   UNL     1     -12.220  14.220  67.936  1.00  0.00    -0.595 NA 
HETATM   23  N   UNL     1     -12.362  14.202  65.635  1.00  0.00    -0.450 N  
HETATM   24  H2  UNL     1     -11.883  13.848  68.823  1.00  0.00     0.000 HD 
HETATM   25  H1  UNL     1     -12.852  15.018  67.867  1.00  0.00     0.000 HD 
HETATM   26  H   UNL     1     -12.990  15.005  65.677  1.00  0.00     0.000 HD 
HETATM   27  C   UNL     1     -12.029  13.638  64.397  1.00  0.00    -0.437 C  
HETATM   28  O   UNL     1     -12.455  14.081  63.337  1.00  0.00    -0.826 OA 
ENDBRANCH  14  15
ENDBRANCH  13  14
ENDBRANCH  12  13
BRANCH  12  29
HETATM   29  C   UNL     1     -10.186   6.815  67.664  1.00  0.00    -0.179 C  
HETATM   30  O   UNL     1     -11.533   6.668  67.208  1.00  0.00    -0.766 OA 
HETATM   31  H   UNL     1     -11.707   5.752  67.029  1.00  0.00     0.000 HD 
ENDBRANCH  12  29
ENDBRANCH  11  12
ENDBRANCH  10  11
ENDBRANCH   8  10
ENDBRANCH   4   8
TORSDOF 8
ENDMDL
MODEL      101
REMARK 921   NORMALIZED FREE ENERGY PREDICTED BY IDOCK:   -5.31 KCAL/MOL
REMARK 922        TOTAL FREE ENERGY PREDICTED BY IDOCK:   -9.00 KCAL/MOL
REMARK 923 INTER-LIGAND FREE ENERGY PREDICTED BY IDOCK:   -8.19 KCAL/MOL
REMARK 924 INTRA-LIGAND FREE ENERGY PREDICTED BY IDOCK:   -0.81 KCAL/MOL
REMARK 927      BINDING AFFINITY PREDICTED BY RF-SCORE:    0.00 PKD
ROOT
HETATM    1  C   UNL     1     -11.120  11.714  66.281  1.00  0.00    -0.345 C  
HETATM    2  C   UNL     1     -11.582  12.026  67.710  1.00  0.00    -0.400 C  
HETATM    3  C   UNL     1     -11.853  13.527  67.851  1.00  0.00    -0.397 C  
HETATM    4  C   UNL     1     -10.598  11.513  68.792  1.00  0.00    -0.211 C  
HETATM    5  N   UNL     1      -9.251  12.107  68.640  1.00  0.00    -0.386 NA 
HETATM    6  H1  UNL     1      -8.604  11.769  69.353  1.00  0.00     0.000 HD 
HETATM    7  H2  UNL     1      -9.293  13.126  68.632  1.00  0.00     0.000 HD 
ENDROOT
BRANCH   4   8
HETATM    8  C   UNL     1     -10.534   9.972  68.795  1.00  0.00    -0.208 C  
HETATM    9  O   UNL     1     -10.358   9.283  67.797  1.00  0.00    -0.209 OA 
BRANCH   8  10
HETATM   10  O   UNL     1     -10.770   9.461  70.040  1.00  0.00    -0.215 OA 
BRANCH  10  11
HETATM   11  C   UNL     1     -11.956   9.933  70.705  1.00  0.00    -0.323 C  
BRANCH  11  12
HETATM   12  C   UNL     1     -12.159   9.166  72.022  1.00  0.00    -0.361 C  
BRANCH  12  13
HETATM   13  O   UNL     1     -11.244   8.057  72.180  1.00  0.00    -0.274 OA 
BRANCH  13  14
HETATM   14  C   UNL     1     -11.894   6.788  72.157  1.00  0.00    -0.290 C  
BRANCH  14  15
HETATM   15  N   UNL     1     -11.026   5.825  71.517  1.00  0.00    -0.259 NA 
HETATM   16  C   UNL     1     -10.377   4.797  72.161  1.00  0.00    -0.190 A  
HETATM   17  N   UNL     1      -9.757   3.994  71.317  1.00  0.00    -0.178 NA 
HETATM   18  C   UNL     1     -10.020   4.521  70.072  1.00  0.00    -0.210 A  
HETATM   19  C   UNL     1     -10.796   5.647  70.196  1.00  0.00    -0.286 A  
HETATM   20  N   UNL     1     -11.214   6.348  69.136  1.00  0.00    -0.366 NA 
HETATM   21  C   UNL     1     -10.851   5.871  67.900  1.00  0.00    -0.233 C  
HETATM   22  N   UNL     1     -11.363   6.592  66.873  1.00  0.00    -0.824 NA 
HETATM   23  N   UNL     1     -10.123   4.818  67.666  1.00  0.00    -0.122 N  
HETATM   24  H2  UNL     1     -11.960   7.409  67.005  1.00  0.00     0.000 HD 
HETATM   25  H1  UNL     1     -11.094   6.239  65.954  1.00  0.00     0.000 HD 
HETATM   26  H   UNL     1      -9.912   4.549  66.705  1.00  0.00     0.000 HD 
HETATM   27  C   UNL     1      -9.629   4.055  68.731  1.00  0.00    -0.130 C  
HETATM   28  O   UNL     1      -8.928   3.064  68.561  1.00  0.00    -0.108 OA 
ENDBRANCH  14  15
ENDBRANCH  13  14
ENDBRANCH  12  13
BRANCH  12  29
HETATM   29  C   UNL     1     -13.585   8.599  72.092  1.00  0.00    -0.406 C  
HETATM   30  O   UNL     1     -14.145   8.880  73.377  1.00  0.00    -1.256 OA 
HETATM   31  H   UNL     1     -15.026   8.530  73.420  1.00  0.00     0.000 HD 
ENDBRANCH  12  29
ENDBRANCH  11  12
ENDBRANCH  10  11
ENDBRANCH   8  10
ENDBRANCH   4   8
TORSDOF 8
ENDMDL
MODEL      102
REMARK 921   NORMALIZED FREE ENERGY PREDICTED BY IDOCK:   -5.29 KCAL/MOL
REMARK 922        TOTAL FREE ENERGY PREDICTED BY IDOCK:   -8.99 KCAL/MOL
REMARK 923 INTER-LIGAND FREE ENERGY PREDICTED BY IDOCK:   -7.91 KCAL/MOL
REMARK 924 INTRA-LIGAND FREE ENERGY PREDICTED BY IDOCK:   -1.07 KCAL/MOL
REMARK 927      BINDING AFFINITY PREDICTED BY RF-SCORE:    0.00 PKD
ROOT
HETATM    1  C   UNL     1     -10.806   7.669  69.533  1.00  0.00    -0.171 C  
HETATM    2  C   UNL     1      -9.784   8.800  69.702  1.00  0.00    -0.173 C  
HETATM    3  C   UNL     1      -9.605   9.119  71.190  1.00  0.00    -0.347 C  
HETATM    4  C   UNL     1     -10.137  10.065  68.880  1.00  0.00    -0.190 C  
HETATM    5  N   UNL     1     -11.455  10.622  69.259  1.00  0.00    -0.270 NA 
HETATM    6  H1  UNL     1     -11.686  11.455  68.717  1.00  0.00     0.000 HD 
HETATM    7  H2  UNL     1     -11.506  10.806  70.261  1.00  0.00     0.000 HD 
ENDROOT
BRANCH   4   8
HETATM    8  C   UNL     1     -10.064   9.779  67.366  1.00  0.00    -0.208 C  
HETATM    9  O   UNL     1      -9.316   8.957  66.850  1.00  0.00    -0.152 OA 
BRANCH   8  10
HETATM   10  O   UNL     1     -10.887  10.608  66.657  1.00  0.00    -0.217 OA 
BRANCH  10  11
HETATM   11  C   UNL     1     -10.464  10.932  65.320  1.00  0.00    -0.230 C  
BRANCH  11  12
HETATM   12  C   UNL     1     -11.267  12.131  64.792  1.00  0.00    -0.323 C  
BRANCH  12  13
HETATM   13  O   UNL     1     -12.462  12.398  65.562  1.00  0.00    -0.643 OA 
BRANCH  13  14
HETATM   14  C   UNL     1     -12.744  13.790  65.690  1.00  0.00    -0.478 C  
BRANCH  14  15
HETATM   15  N   UNL     1     -11.654  14.431  66.391  1.00  0.00    -0.365 NA 
HETATM   16  C   UNL     1     -10.743  15.288  65.819  1.00  0.00    -0.348 A  
HETATM   17  N   UNL     1      -9.938  15.827  66.715  1.00  0.00    -0.245 NA 
HETATM   18  C   UNL     1     -10.347  15.300  67.920  1.00  0.00    -0.246 A  
HETATM   19  C   UNL     1     -11.398  14.440  67.719  1.00  0.00    -0.312 A  
HETATM   20  N   UNL     1     -12.003  13.803  68.728  1.00  0.00    -0.361 NA 
HETATM   21  C   UNL     1     -11.538  14.069  69.993  1.00  0.00    -0.232 C  
HETATM   22  N   UNL     1     -12.238  13.440  70.968  1.00  0.00    -0.437 NA 
HETATM   23  N   UNL     1     -10.554  14.864  70.297  1.00  0.00    -0.486 N  
HETATM   24  H2  UNL     1     -13.032  12.828  70.781  1.00  0.00     0.000 HD 
HETATM   25  H1  UNL     1     -11.893  13.637  71.908  1.00  0.00     0.000 HD 
HETATM   26  H   UNL     1     -10.287  14.993  71.273  1.00  0.00     0.000 HD 
HETATM   27  C   UNL     1      -9.859  15.541  69.288  1.00  0.00    -0.270 C  
HETATM   28  O   UNL     1      -8.917  16.288  69.524  1.00  0.00    -0.145 OA 
ENDBRANCH  14  15
ENDBRANCH  13  14
ENDBRANCH  12  13
BRANCH  12  29
HETATM   29  C   UNL     1     -11.701  11.882  63.339  1.00  0.00    -0.403 C  
HETATM   30  O   UNL     1     -13.115  11.681  63.295  1.00  0.00    -0.661 OA 
HETATM   31  H   UNL     1     -13.384  11.527  62.397  1.00  0.00     0.000 HD 
ENDBRANCH  12  29
ENDBRANCH  11  12
ENDBRANCH  10  11
ENDBRANCH   8  10
ENDBRANCH   4   8
TORSDOF 8
ENDMDL
MODEL      103
REMARK 921   NORMALIZED FREE ENERGY PREDICTED BY IDOCK:   -5.29 KCAL/MOL
REMARK 922        TOTAL FREE ENERGY PREDICTED BY IDOCK:   -8.98 KCAL/MOL
REMARK 923 INTER-LIGAND FREE ENERGY PREDICTED BY IDOCK:   -7.83 KCAL/MOL
REMARK 924 INTRA-LIGAND FREE ENERGY PREDICTED BY IDOCK:   -1.15 KCAL/MOL
REMARK 927      BINDING AFFINITY PREDICTED BY RF-SCORE:    0.00 PKD
ROOT
HETATM    1  C   UNL     1     -12.384  13.212  63.331  1.00  0.00    -0.443 C  
HETATM    2  C   UNL     1     -12.115  12.707  64.754  1.00  0.00    -0.495 C  
HETATM    3  C   UNL     1     -12.767  13.650  65.771  1.00  0.00    -0.470 C  
HETATM    4  C   UNL     1     -10.609  12.494  65.048  1.00  0.00    -0.300 C  
HETATM    5  N   UNL     1      -9.831  13.743  64.885  1.00  0.00    -0.605 NA 
HETATM    6  H1  UNL     1      -8.840  13.601  65.079  1.00  0.00     0.000 HD 
HETATM    7  H2  UNL     1     -10.216  14.496  65.454  1.00  0.00     0.000 HD 
ENDROOT
BRANCH   4   8
HETATM    8  C   UNL     1     -10.031  11.357  64.179  1.00  0.00    -0.290 C  
HETATM    9  O   UNL     1      -9.510  11.518  63.082  1.00  0.00    -0.339 OA 
BRANCH   8  10
HETATM   10  O   UNL     1     -10.237  10.133  64.751  1.00  0.00    -0.296 OA 
BRANCH  10  11
HETATM   11  C   UNL     1      -9.955  10.034  66.158  1.00  0.00    -0.256 C  
BRANCH  11  12
HETATM   12  C   UNL     1     -10.055   8.569  66.612  1.00  0.00    -0.294 C  
BRANCH  12  13
HETATM   13  O   UNL     1     -10.712   8.414  67.891  1.00  0.00    -0.182 OA 
BRANCH  13  14
HETATM   14  C   UNL     1     -10.027   9.073  68.954  1.00  0.00    -0.189 C  
BRANCH  14  15
HETATM   15  N   UNL     1     -10.995   9.736  69.800  1.00  0.00    -0.247 NA 
HETATM   16  C   UNL     1     -11.652   9.150  70.856  1.00  0.00    -0.291 A  
HETATM   17  N   UNL     1     -12.379  10.020  71.533  1.00  0.00    -0.395 NA 
HETATM   18  C   UNL     1     -12.180  11.222  70.890  1.00  0.00    -0.356 A  
HETATM   19  C   UNL     1     -11.333  11.046  69.824  1.00  0.00    -0.292 A  
HETATM   20  N   UNL     1     -10.956  12.059  69.036  1.00  0.00    -0.226 NA 
HETATM   21  C   UNL     1     -11.437  13.304  69.360  1.00  0.00    -0.263 C  
HETATM   22  N   UNL     1     -10.962  14.290  68.560  1.00  0.00    -0.243 NA 
HETATM   23  N   UNL     1     -12.240  13.585  70.345  1.00  0.00    -0.356 N  
HETATM   24  H2  UNL     1     -10.311  14.124  67.793  1.00  0.00     0.000 HD 
HETATM   25  H1  UNL     1     -11.319  15.215  68.800  1.00  0.00     0.000 HD 
HETATM   26  H   UNL     1     -12.538  14.548  70.499  1.00  0.00     0.000 HD 
HETATM   27  C   UNL     1     -12.696  12.567  71.191  1.00  0.00    -0.245 C  
HETATM   28  O   UNL     1     -13.464  12.780  72.122  1.00  0.00    -0.530 OA 
ENDBRANCH  14  15
ENDBRANCH  13  14
ENDBRANCH  12  13
BRANCH  12  29
HETATM   29  C   UNL     1      -8.653   7.953  66.736  1.00  0.00    -0.131 C  
HETATM   30  O   UNL     1      -7.905   8.234  65.551  1.00  0.00    -0.095 OA 
HETATM   31  H   UNL     1      -7.038   7.853  65.628  1.00  0.00     0.000 HD 
ENDBRANCH  12  29
ENDBRANCH  11  12
ENDBRANCH  10  11
ENDBRANCH   8  10
ENDBRANCH   4   8
TORSDOF 8
ENDMDL
MODEL      104
REMARK 921   NORMALIZED FREE ENERGY PREDICTED BY IDOCK:   -5.28 KCAL/MOL
REMARK 922        TOTAL FREE ENERGY PREDICTED BY IDOCK:   -8.96 KCAL/MOL
REMARK 923 INTER-LIGAND FREE ENERGY PREDICTED BY IDOCK:   -7.84 KCAL/MOL
REMARK 924 INTRA-LIGAND FREE ENERGY PREDICTED BY IDOCK:   -1.12 KCAL/MOL
REMARK 927      BINDING AFFINITY PREDICTED BY RF-SCORE:    0.00 PKD
ROOT
HETATM    1  C   UNL     1     -10.129   9.326  71.395  1.00  0.00    -0.348 C  
HETATM    2  C   UNL     1     -11.577   9.070  70.959  1.00  0.00    -0.360 C  
HETATM    3  C   UNL     1     -12.487  10.174  71.507  1.00  0.00    -0.526 C  
HETATM    4  C   UNL     1     -12.086   7.658  71.345  1.00  0.00    -0.316 C  
HETATM    5  N   UNL     1     -12.034   7.432  72.807  1.00  0.00    -0.556 NA 
HETATM    6  H1  UNL     1     -12.369   6.503  73.060  1.00  0.00     0.000 HD 
HETATM    7  H2  UNL     1     -12.540   8.159  73.312  1.00  0.00     0.000 HD 
ENDROOT
BRANCH   4   8
HETATM    8  C   UNL     1     -11.312   6.563  70.582  1.00  0.00    -0.351 C  
HETATM    9  O   UNL     1     -10.857   5.548  71.096  1.00  0.00    -0.239 OA 
BRANCH   8  10
HETATM   10  O   UNL     1     -11.130   6.897  69.269  1.00  0.00    -0.233 OA 
BRANCH  10  11
HETATM   11  C   UNL     1      -9.810   6.685  68.736  1.00  0.00    -0.138 C  
BRANCH  11  12
HETATM   12  C   UNL     1      -9.635   7.487  67.437  1.00  0.00    -0.149 C  
BRANCH  12  13
HETATM   13  O   UNL     1     -10.532   8.616  67.340  1.00  0.00    -0.263 OA 
BRANCH  13  14
HETATM   14  C   UNL     1      -9.924   9.848  67.725  1.00  0.00    -0.165 C  
BRANCH  14  15
HETATM   15  N   UNL     1     -10.367  10.893  66.829  1.00  0.00    -0.232 NA 
HETATM   16  C   UNL     1     -10.369  10.808  65.457  1.00  0.00    -0.241 A  
HETATM   17  N   UNL     1     -10.946  11.854  64.895  1.00  0.00    -0.306 NA 
HETATM   18  C   UNL     1     -11.338  12.649  65.949  1.00  0.00    -0.334 A  
HETATM   19  C   UNL     1     -10.978  12.060  67.136  1.00  0.00    -0.270 A  
HETATM   20  N   UNL     1     -11.257  12.613  68.322  1.00  0.00    -0.252 NA 
HETATM   21  C   UNL     1     -11.950  13.798  68.302  1.00  0.00    -0.357 C  
HETATM   22  N   UNL     1     -12.254  14.267  69.537  1.00  0.00    -0.432 NA 
HETATM   23  N   UNL     1     -12.341  14.442  67.240  1.00  0.00    -0.594 N  
HETATM   24  H2  UNL     1     -11.993  13.786  70.397  1.00  0.00     0.000 HD 
HETATM   25  H1  UNL     1     -12.769  15.147  69.522  1.00  0.00     0.000 HD 
HETATM   26  H   UNL     1     -12.853  15.319  67.336  1.00  0.00     0.000 HD 
HETATM   27  C   UNL     1     -12.058  13.933  65.966  1.00  0.00    -0.437 C  
HETATM   28  O   UNL     1     -12.392  14.510  64.938  1.00  0.00    -0.419 OA 
ENDBRANCH  14  15
ENDBRANCH  13  14
ENDBRANCH  12  13
BRANCH  12  29
HETATM   29  C   UNL     1      -9.893   6.587  66.218  1.00  0.00     0.028 C  
HETATM   30  O   UNL     1     -10.706   5.479  66.610  1.00  0.00    -0.351 OA 
HETATM   31  H   UNL     1     -10.866   4.923  65.857  1.00  0.00     0.000 HD 
ENDBRANCH  12  29
ENDBRANCH  11  12
ENDBRANCH  10  11
ENDBRANCH   8  10
ENDBRANCH   4   8
TORSDOF 8
ENDMDL
MODEL      105
REMARK 921   NORMALIZED FREE ENERGY PREDICTED BY IDOCK:   -5.27 KCAL/MOL
REMARK 922        TOTAL FREE ENERGY PREDICTED BY IDOCK:   -8.95 KCAL/MOL
REMARK 923 INTER-LIGAND FREE ENERGY PREDICTED BY IDOCK:   -7.76 KCAL/MOL
REMARK 924 INTRA-LIGAND FREE ENERGY PREDICTED BY IDOCK:   -1.18 KCAL/MOL
REMARK 927      BINDING AFFINITY PREDICTED BY RF-SCORE:    0.00 PKD
ROOT
HETATM    1  C   UNL     1      -7.870   9.387  68.189  1.00  0.00    -0.087 C  
HETATM    2  C   UNL     1      -8.937   8.404  67.691  1.00  0.00    -0.141 C  
HETATM    3  C   UNL     1      -8.295   7.042  67.410  1.00  0.00    -0.122 C  
HETATM    4  C   UNL     1      -9.728   8.934  66.469  1.00  0.00    -0.254 C  
HETATM    5  N   UNL     1      -8.842   9.218  65.318  1.00  0.00    -0.186 NA 
HETATM    6  H1  UNL     1      -9.363   9.567  64.514  1.00  0.00     0.000 HD 
HETATM    7  H2  UNL     1      -8.281   8.403  65.071  1.00  0.00     0.000 HD 
ENDROOT
BRANCH   4   8
HETATM    8  C   UNL     1     -10.569  10.170  66.848  1.00  0.00    -0.200 C  
HETATM    9  O   UNL     1     -11.322  10.228  67.813  1.00  0.00    -0.322 OA 
BRANCH   8  10
HETATM   10  O   UNL     1     -10.429  11.174  65.931  1.00  0.00    -0.252 OA 
BRANCH  10  11
HETATM   11  C   UNL     1     -11.585  12.003  65.716  1.00  0.00    -0.290 C  
BRANCH  11  12
HETATM   12  C   UNL     1     -11.250  13.118  64.711  1.00  0.00    -0.324 C  
BRANCH  12  13
HETATM   13  O   UNL     1     -11.330  14.443  65.286  1.00  0.00    -0.322 OA 
BRANCH  13  14
HETATM   14  C   UNL     1     -10.094  14.884  65.846  1.00  0.00    -0.325 C  
BRANCH  14  15
HETATM   15  N   UNL     1     -10.348  15.483  67.137  1.00  0.00    -0.266 NA 
HETATM   16  C   UNL     1     -10.372  16.834  67.389  1.00  0.00    -0.302 A  
HETATM   17  N   UNL     1     -10.756  17.103  68.623  1.00  0.00    -0.335 NA 
HETATM   18  C   UNL     1     -10.996  15.873  69.194  1.00  0.00    -0.284 A  
HETATM   19  C   UNL     1     -10.741  14.878  68.282  1.00  0.00    -0.249 A  
HETATM   20  N   UNL     1     -10.911  13.583  68.570  1.00  0.00    -0.258 NA 
HETATM   21  C   UNL     1     -11.383  13.288  69.826  1.00  0.00    -0.062 C  
HETATM   22  N   UNL     1     -11.593  11.964  70.026  1.00  0.00    -0.501 NA 
HETATM   23  N   UNL     1     -11.658  14.147  70.765  1.00  0.00    -0.514 N  
HETATM   24  H2  UNL     1     -11.418  11.256  69.313  1.00  0.00     0.000 HD 
HETATM   25  H1  UNL     1     -11.943  11.744  70.958  1.00  0.00     0.000 HD 
HETATM   26  H   UNL     1     -12.006  13.821  71.666  1.00  0.00     0.000 HD 
HETATM   27  C   UNL     1     -11.476  15.517  70.539  1.00  0.00    -0.347 C  
HETATM   28  O   UNL     1     -11.707  16.361  71.396  1.00  0.00    -0.425 OA 
ENDBRANCH  14  15
ENDBRANCH  13  14
ENDBRANCH  12  13
BRANCH  12  29
HETATM   29  C   UNL     1     -12.223  13.073  63.523  1.00  0.00    -0.501 C  
HETATM   30  O   UNL     1     -12.243  11.752  62.977  1.00  0.00    -0.895 OA 
HETATM   31  H   UNL     1     -12.844  11.724  62.242  1.00  0.00     0.000 HD 
ENDBRANCH  12  29
ENDBRANCH  11  12
ENDBRANCH  10  11
ENDBRANCH   8  10
ENDBRANCH   4   8
TORSDOF 8
ENDMDL
MODEL      106
REMARK 921   NORMALIZED FREE ENERGY PREDICTED BY IDOCK:   -5.26 KCAL/MOL
REMARK 922        TOTAL FREE ENERGY PREDICTED BY IDOCK:   -8.94 KCAL/MOL
REMARK 923 INTER-LIGAND FREE ENERGY PREDICTED BY IDOCK:   -7.63 KCAL/MOL
REMARK 924 INTRA-LIGAND FREE ENERGY PREDICTED BY IDOCK:   -1.32 KCAL/MOL
REMARK 927      BINDING AFFINITY PREDICTED BY RF-SCORE:    0.00 PKD
ROOT
HETATM    1  C   UNL     1     -14.345  15.282  71.423  1.00  0.00    -0.578 C  
HETATM    2  C   UNL     1     -13.011  14.606  71.762  1.00  0.00    -0.410 C  
HETATM    3  C   UNL     1     -12.922  14.363  73.272  1.00  0.00    -0.406 C  
HETATM    4  C   UNL     1     -11.783  15.386  71.229  1.00  0.00    -0.380 C  
HETATM    5  N   UNL     1     -11.717  16.758  71.781  1.00  0.00    -0.485 NA 
HETATM    6  H1  UNL     1     -10.908  17.271  71.430  1.00  0.00     0.000 HD 
HETATM    7  H2  UNL     1     -11.736  16.749  72.800  1.00  0.00     0.000 HD 
ENDROOT
BRANCH   4   8
HETATM    8  C   UNL     1     -11.763  15.401  69.686  1.00  0.00    -0.338 C  
HETATM    9  O   UNL     1     -11.676  16.415  69.003  1.00  0.00    -0.240 OA 
BRANCH   8  10
HETATM   10  O   UNL     1     -11.929  14.147  69.169  1.00  0.00    -0.324 OA 
BRANCH  10  11
HETATM   11  C   UNL     1     -10.803  13.600  68.459  1.00  0.00    -0.257 C  
BRANCH  11  12
HETATM   12  C   UNL     1     -10.683  12.095  68.747  1.00  0.00    -0.219 C  
BRANCH  12  13
HETATM   13  O   UNL     1      -9.364  11.568  68.476  1.00  0.00    -0.184 OA 
BRANCH  13  14
HETATM   14  C   UNL     1      -8.613  12.379  67.575  1.00  0.00    -0.177 C  
BRANCH  14  15
HETATM   15  N   UNL     1      -8.133  11.556  66.487  1.00  0.00    -0.147 NA 
HETATM   16  C   UNL     1      -6.976  10.814  66.510  1.00  0.00    -0.130 A  
HETATM   17  N   UNL     1      -6.849  10.058  65.436  1.00  0.00    -0.116 NA 
HETATM   18  C   UNL     1      -7.976  10.317  64.687  1.00  0.00    -0.131 A  
HETATM   19  C   UNL     1      -8.761  11.240  65.331  1.00  0.00     0.010 A  
HETATM   20  N   UNL     1      -9.929  11.659  64.831  1.00  0.00    -0.249 NA 
HETATM   21  C   UNL     1     -10.327  11.099  63.642  1.00  0.00    -0.389 C  
HETATM   22  N   UNL     1     -11.547  11.521  63.228  1.00  0.00    -0.863 NA 
HETATM   23  N   UNL     1      -9.665  10.219  62.948  1.00  0.00    -0.493 N  
HETATM   24  H2  UNL     1     -12.114  12.189  63.749  1.00  0.00     0.000 HD 
HETATM   25  H1  UNL     1     -11.842  11.105  62.344  1.00  0.00     0.000 HD 
HETATM   26  H   UNL     1     -10.052   9.865  62.073  1.00  0.00     0.000 HD 
HETATM   27  C   UNL     1      -8.422   9.758  63.400  1.00  0.00    -0.186 C  
HETATM   28  O   UNL     1      -7.756   8.941  62.775  1.00  0.00    -0.110 OA 
ENDBRANCH  14  15
ENDBRANCH  13  14
ENDBRANCH  12  13
BRANCH  12  29
HETATM   29  C   UNL     1     -11.681  11.307  67.884  1.00  0.00    -0.214 C  
HETATM   30  O   UNL     1     -12.100  12.117  66.784  1.00  0.00    -0.609 OA 
HETATM   31  H   UNL     1     -12.717  11.630  66.251  1.00  0.00     0.000 HD 
ENDBRANCH  12  29
ENDBRANCH  11  12
ENDBRANCH  10  11
ENDBRANCH   8  10
ENDBRANCH   4   8
TORSDOF 8
ENDMDL
MODEL      107
REMARK 921   NORMALIZED FREE ENERGY PREDICTED BY IDOCK:   -5.26 KCAL/MOL
REMARK 922        TOTAL FREE ENERGY PREDICTED BY IDOCK:   -8.93 KCAL/MOL
REMARK 923 INTER-LIGAND FREE ENERGY PREDICTED BY IDOCK:   -7.75 KCAL/MOL
REMARK 924 INTRA-LIGAND FREE ENERGY PREDICTED BY IDOCK:   -1.18 KCAL/MOL
REMARK 927      BINDING AFFINITY PREDICTED BY RF-SCORE:    0.00 PKD
ROOT
HETATM    1  C   UNL     1      -7.489   9.943  67.088  1.00  0.00    -0.091 C  
HETATM    2  C   UNL     1      -8.919   9.395  67.006  1.00  0.00    -0.146 C  
HETATM    3  C   UNL     1      -9.266   8.657  68.303  1.00  0.00    -0.140 C  
HETATM    4  C   UNL     1      -9.160   8.512  65.756  1.00  0.00    -0.167 C  
HETATM    5  N   UNL     1      -8.254   7.342  65.722  1.00  0.00    -0.128 NA 
HETATM    6  H1  UNL     1      -8.413   6.761  64.900  1.00  0.00     0.000 HD 
HETATM    7  H2  UNL     1      -8.321   6.795  66.580  1.00  0.00     0.000 HD 
ENDROOT
BRANCH   4   8
HETATM    8  C   UNL     1      -9.050   9.343  64.461  1.00  0.00    -0.150 C  
HETATM    9  O   UNL     1      -8.289   9.089  63.536  1.00  0.00    -0.175 OA 
BRANCH   8  10
HETATM   10  O   UNL     1      -9.857  10.446  64.502  1.00  0.00    -0.308 OA 
BRANCH  10  11
HETATM   11  C   UNL     1      -9.817  11.304  63.347  1.00  0.00    -0.385 C  
BRANCH  11  12
HETATM   12  C   UNL     1     -10.436  12.669  63.687  1.00  0.00    -0.314 C  
BRANCH  12  13
HETATM   13  O   UNL     1     -10.251  13.048  65.070  1.00  0.00    -0.294 OA 
BRANCH  13  14
HETATM   14  C   UNL     1     -11.425  13.601  65.660  1.00  0.00    -0.308 C  
BRANCH  14  15
HETATM   15  N   UNL     1     -11.717  12.892  66.887  1.00  0.00    -0.366 NA 
HETATM   16  C   UNL     1     -11.784  11.525  67.011  1.00  0.00    -0.005 A  
HETATM   17  N   UNL     1     -11.937  11.146  68.266  1.00  0.00    -0.619 NA 
HETATM   18  C   UNL     1     -11.964  12.320  68.987  1.00  0.00    -0.248 A  
HETATM   19  C   UNL     1     -11.833  13.391  68.139  1.00  0.00    -0.361 A  
HETATM   20  N   UNL     1     -11.809  14.654  68.580  1.00  0.00    -0.323 NA 
HETATM   21  C   UNL     1     -11.895  14.833  69.939  1.00  0.00    -0.316 C  
HETATM   22  N   UNL     1     -11.798  16.131  70.319  1.00  0.00    -0.404 NA 
HETATM   23  N   UNL     1     -12.020  13.894  70.832  1.00  0.00    -0.488 N  
HETATM   24  H2  UNL     1     -11.674  16.899  69.660  1.00  0.00     0.000 HD 
HETATM   25  H1  UNL     1     -11.863  16.265  71.328  1.00  0.00     0.000 HD 
HETATM   26  H   UNL     1     -12.075  14.137  71.821  1.00  0.00     0.000 HD 
HETATM   27  C   UNL     1     -12.080  12.552  70.436  1.00  0.00    -0.297 C  
HETATM   28  O   UNL     1     -12.212  11.635  71.238  1.00  0.00    -0.234 OA 
ENDBRANCH  14  15
ENDBRANCH  13  14
ENDBRANCH  12  13
BRANCH  12  29
HETATM   29  C   UNL     1     -11.948  12.651  63.413  1.00  0.00    -0.528 C  
HETATM   30  O   UNL     1     -12.323  11.367  62.910  1.00  0.00    -0.954 OA 
HETATM   31  H   UNL     1     -13.258  11.356  62.740  1.00  0.00     0.000 HD 
ENDBRANCH  12  29
ENDBRANCH  11  12
ENDBRANCH  10  11
ENDBRANCH   8  10
ENDBRANCH   4   8
TORSDOF 8
ENDMDL
MODEL      108
REMARK 921   NORMALIZED FREE ENERGY PREDICTED BY IDOCK:   -5.24 KCAL/MOL
REMARK 922        TOTAL FREE ENERGY PREDICTED BY IDOCK:   -8.90 KCAL/MOL
REMARK 923 INTER-LIGAND FREE ENERGY PREDICTED BY IDOCK:   -7.75 KCAL/MOL
REMARK 924 INTRA-LIGAND FREE ENERGY PREDICTED BY IDOCK:   -1.15 KCAL/MOL
REMARK 927      BINDING AFFINITY PREDICTED BY RF-SCORE:    0.00 PKD
ROOT
HETATM    1  C   UNL     1      -6.792  10.435  68.205  1.00  0.00    -0.072 C  
HETATM    2  C   UNL     1      -6.998  10.781  69.684  1.00  0.00    -0.134 C  
HETATM    3  C   UNL     1      -5.735  11.446  70.242  1.00  0.00    -0.143 C  
HETATM    4  C   UNL     1      -7.435   9.563  70.538  1.00  0.00    -0.148 C  
HETATM    5  N   UNL     1      -6.438   8.470  70.491  1.00  0.00    -0.035 NA 
HETATM    6  H1  UNL     1      -6.726   7.669  71.053  1.00  0.00     0.000 HD 
HETATM    7  H2  UNL     1      -5.512   8.800  70.763  1.00  0.00     0.000 HD 
ENDROOT
BRANCH   4   8
HETATM    8  C   UNL     1      -8.833   9.066  70.117  1.00  0.00    -0.182 C  
HETATM    9  O   UNL     1      -9.125   7.890  69.934  1.00  0.00    -0.145 OA 
BRANCH   8  10
HETATM   10  O   UNL     1      -9.693  10.106  69.900  1.00  0.00    -0.222 OA 
BRANCH  10  11
HETATM   11  C   UNL     1     -10.590   9.965  68.783  1.00  0.00    -0.222 C  
BRANCH  11  12
HETATM   12  C   UNL     1     -11.851  10.812  69.015  1.00  0.00    -0.254 C  
BRANCH  12  13
HETATM   13  O   UNL     1     -12.239  11.582  67.854  1.00  0.00    -0.586 OA 
BRANCH  13  14
HETATM   14  C   UNL     1     -11.380  11.377  66.735  1.00  0.00    -0.179 C  
BRANCH  14  15
HETATM   15  N   UNL     1     -11.532  12.481  65.814  1.00  0.00    -0.346 NA 
HETATM   16  C   UNL     1     -12.362  12.486  64.718  1.00  0.00    -0.474 A  
HETATM   17  N   UNL     1     -12.402  13.667  64.130  1.00  0.00    -0.649 NA 
HETATM   18  C   UNL     1     -11.566  14.464  64.881  1.00  0.00    -0.395 A  
HETATM   19  C   UNL     1     -11.029  13.734  65.912  1.00  0.00    -0.283 A  
HETATM   20  N   UNL     1     -10.194  14.270  66.808  1.00  0.00    -0.268 NA 
HETATM   21  C   UNL     1      -9.913  15.607  66.667  1.00  0.00    -0.258 C  
HETATM   22  N   UNL     1      -9.114  16.097  67.646  1.00  0.00    -0.196 NA 
HETATM   23  N   UNL     1     -10.365  16.392  65.732  1.00  0.00    -0.371 N  
HETATM   24  H2  UNL     1      -8.756  15.528  68.413  1.00  0.00     0.000 HD 
HETATM   25  H1  UNL     1      -8.905  17.090  67.541  1.00  0.00     0.000 HD 
HETATM   26  H   UNL     1     -10.094  17.375  65.718  1.00  0.00     0.000 HD 
HETATM   27  C   UNL     1     -11.221  15.889  64.745  1.00  0.00    -0.355 C  
HETATM   28  O   UNL     1     -11.661  16.585  63.838  1.00  0.00    -1.175 OA 
ENDBRANCH  14  15
ENDBRANCH  13  14
ENDBRANCH  12  13
BRANCH  12  29
HETATM   29  C   UNL     1     -11.624  11.800  70.169  1.00  0.00    -0.195 C  
HETATM   30  O   UNL     1     -11.121  13.032  69.647  1.00  0.00    -0.462 OA 
HETATM   31  H   UNL     1     -10.980  13.643  70.360  1.00  0.00     0.000 HD 
ENDBRANCH  12  29
ENDBRANCH  11  12
ENDBRANCH  10  11
ENDBRANCH   8  10
ENDBRANCH   4   8
TORSDOF 8
ENDMDL
MODEL      109
REMARK 921   NORMALIZED FREE ENERGY PREDICTED BY IDOCK:   -5.22 KCAL/MOL
REMARK 922        TOTAL FREE ENERGY PREDICTED BY IDOCK:   -8.88 KCAL/MOL
REMARK 923 INTER-LIGAND FREE ENERGY PREDICTED BY IDOCK:   -7.42 KCAL/MOL
REMARK 924 INTRA-LIGAND FREE ENERGY PREDICTED BY IDOCK:   -1.45 KCAL/MOL
REMARK 927      BINDING AFFINITY PREDICTED BY RF-SCORE:    0.00 PKD
ROOT
HETATM    1  C   UNL     1      -8.332  13.135  66.713  1.00  0.00     0.064 C  
HETATM    2  C   UNL     1      -7.354  12.813  67.850  1.00  0.00    -0.120 C  
HETATM    3  C   UNL     1      -7.870  11.615  68.653  1.00  0.00    -0.132 C  
HETATM    4  C   UNL     1      -7.057  14.033  68.759  1.00  0.00    -0.108 C  
HETATM    5  N   UNL     1      -8.285  14.564  69.391  1.00  0.00    -0.376 NA 
HETATM    6  H1  UNL     1      -8.089  15.366  69.989  1.00  0.00     0.000 HD 
HETATM    7  H2  UNL     1      -8.784  13.835  69.901  1.00  0.00     0.000 HD 
ENDROOT
BRANCH   4   8
HETATM    8  C   UNL     1      -6.307  15.133  67.980  1.00  0.00    -0.146 C  
HETATM    9  O   UNL     1      -5.154  15.036  67.577  1.00  0.00    -0.322 OA 
BRANCH   8  10
HETATM   10  O   UNL     1      -7.063  16.265  67.855  1.00  0.00    -0.123 OA 
BRANCH  10  11
HETATM   11  C   UNL     1      -7.108  16.857  66.544  1.00  0.00    -0.246 C  
BRANCH  11  12
HETATM   12  C   UNL     1      -7.871  18.190  66.597  1.00  0.00    -0.242 C  
BRANCH  12  13
HETATM   13  O   UNL     1      -9.216  18.096  66.074  1.00  0.00    -0.507 OA 
BRANCH  13  14
HETATM   14  C   UNL     1     -10.139  17.530  67.002  1.00  0.00    -0.323 C  
BRANCH  14  15
HETATM   15  N   UNL     1     -10.767  16.376  66.400  1.00  0.00    -0.222 NA 
HETATM   16  C   UNL     1     -10.954  16.192  65.050  1.00  0.00    -0.344 A  
HETATM   17  N   UNL     1     -11.433  14.994  64.773  1.00  0.00    -0.412 NA 
HETATM   18  C   UNL     1     -11.557  14.372  65.995  1.00  0.00    -0.363 A  
HETATM   19  C   UNL     1     -11.152  15.222  66.994  1.00  0.00    -0.305 A  
HETATM   20  N   UNL     1     -11.153  14.863  68.283  1.00  0.00    -0.270 NA 
HETATM   21  C   UNL     1     -11.556  13.581  68.565  1.00  0.00    -0.333 C  
HETATM   22  N   UNL     1     -11.469  13.265  69.880  1.00  0.00    -0.502 NA 
HETATM   23  N   UNL     1     -11.957  12.694  67.701  1.00  0.00    -0.321 N  
HETATM   24  H2  UNL     1     -11.137  13.917  70.591  1.00  0.00     0.000 HD 
HETATM   25  H1  UNL     1     -11.769  12.313  70.091  1.00  0.00     0.000 HD 
HETATM   26  H   UNL     1     -12.236  11.765  68.017  1.00  0.00     0.000 HD 
HETATM   27  C   UNL     1     -12.008  13.013  66.339  1.00  0.00    -0.402 C  
HETATM   28  O   UNL     1     -12.392  12.217  65.490  1.00  0.00    -0.602 OA 
ENDBRANCH  14  15
ENDBRANCH  13  14
ENDBRANCH  12  13
BRANCH  12  29
HETATM   29  C   UNL     1      -7.132  19.259  65.778  1.00  0.00    -0.279 C  
HETATM   30  O   UNL     1      -7.646  20.550  66.109  1.00  0.00    -0.486 OA 
HETATM   31  H   UNL     1      -7.189  21.211  65.602  1.00  0.00     0.000 HD 
ENDBRANCH  12  29
ENDBRANCH  11  12
ENDBRANCH  10  11
ENDBRANCH   8  10
ENDBRANCH   4   8
TORSDOF 8
ENDMDL
MODEL      110
REMARK 921   NORMALIZED FREE ENERGY PREDICTED BY IDOCK:   -5.22 KCAL/MOL
REMARK 922        TOTAL FREE ENERGY PREDICTED BY IDOCK:   -8.88 KCAL/MOL
REMARK 923 INTER-LIGAND FREE ENERGY PREDICTED BY IDOCK:   -7.82 KCAL/MOL
REMARK 924 INTRA-LIGAND FREE ENERGY PREDICTED BY IDOCK:   -1.06 KCAL/MOL
REMARK 927      BINDING AFFINITY PREDICTED BY RF-SCORE:    0.00 PKD
ROOT
HETATM    1  C   UNL     1     -13.676  14.227  71.255  1.00  0.00    -0.328 C  
HETATM    2  C   UNL     1     -12.143  14.277  71.221  1.00  0.00    -0.391 C  
HETATM    3  C   UNL     1     -11.635  15.288  72.253  1.00  0.00    -0.530 C  
HETATM    4  C   UNL     1     -11.576  14.560  69.807  1.00  0.00    -0.295 C  
HETATM    5  N   UNL     1     -12.056  15.852  69.267  1.00  0.00    -0.457 NA 
HETATM    6  H1  UNL     1     -11.682  16.038  68.337  1.00  0.00     0.000 HD 
HETATM    7  H2  UNL     1     -11.854  16.619  69.908  1.00  0.00     0.000 HD 
ENDROOT
BRANCH   4   8
HETATM    8  C   UNL     1     -11.889  13.398  68.842  1.00  0.00    -0.334 C  
HETATM    9  O   UNL     1     -11.845  12.212  69.146  1.00  0.00    -0.300 OA 
BRANCH   8  10
HETATM   10  O   UNL     1     -12.154  13.850  67.580  1.00  0.00    -0.389 OA 
BRANCH  10  11
HETATM   11  C   UNL     1     -11.236  13.436  66.552  1.00  0.00    -0.307 C  
BRANCH  11  12
HETATM   12  C   UNL     1     -12.012  13.028  65.289  1.00  0.00    -0.407 C  
BRANCH  12  13
HETATM   13  O   UNL     1     -11.412  11.914  64.589  1.00  0.00    -0.323 OA 
BRANCH  13  14
HETATM   14  C   UNL     1      -9.986  11.922  64.644  1.00  0.00    -0.230 C  
BRANCH  14  15
HETATM   15  N   UNL     1      -9.520  10.599  64.992  1.00  0.00    -0.223 NA 
HETATM   16  C   UNL     1      -9.010   9.682  64.103  1.00  0.00    -0.229 A  
HETATM   17  N   UNL     1      -8.542   8.608  64.710  1.00  0.00    -0.151 NA 
HETATM   18  C   UNL     1      -8.752   8.841  66.052  1.00  0.00    -0.167 A  
HETATM   19  C   UNL     1      -9.357  10.062  66.223  1.00  0.00    -0.168 A  
HETATM   20  N   UNL     1      -9.658  10.546  67.433  1.00  0.00    -0.157 NA 
HETATM   21  C   UNL     1      -9.309   9.771  68.512  1.00  0.00    -0.142 C  
HETATM   22  N   UNL     1      -9.585  10.352  69.705  1.00  0.00    -0.413 NA 
HETATM   23  N   UNL     1      -8.734   8.605  68.466  1.00  0.00    -0.138 N  
HETATM   24  H2  UNL     1     -10.011  11.275  69.793  1.00  0.00     0.000 HD 
HETATM   25  H1  UNL     1      -9.326   9.777  70.507  1.00  0.00     0.000 HD 
HETATM   26  H   UNL     1      -8.516   8.111  69.331  1.00  0.00     0.000 HD 
HETATM   27  C   UNL     1      -8.416   8.026  67.231  1.00  0.00    -0.125 C  
HETATM   28  O   UNL     1      -7.888   6.925  67.137  1.00  0.00    -0.105 OA 
ENDBRANCH  14  15
ENDBRANCH  13  14
ENDBRANCH  12  13
BRANCH  12  29
HETATM   29  C   UNL     1     -12.083  14.206  64.306  1.00  0.00    -0.444 C  
HETATM   30  O   UNL     1     -12.483  13.727  63.020  1.00  0.00    -1.068 OA 
HETATM   31  H   UNL     1     -12.527  14.455  62.412  1.00  0.00     0.000 HD 
ENDBRANCH  12  29
ENDBRANCH  11  12
ENDBRANCH  10  11
ENDBRANCH   8  10
ENDBRANCH   4   8
TORSDOF 8
ENDMDL
MODEL      111
REMARK 921   NORMALIZED FREE ENERGY PREDICTED BY IDOCK:   -5.19 KCAL/MOL
REMARK 922        TOTAL FREE ENERGY PREDICTED BY IDOCK:   -8.83 KCAL/MOL
REMARK 923 INTER-LIGAND FREE ENERGY PREDICTED BY IDOCK:   -8.06 KCAL/MOL
REMARK 924 INTRA-LIGAND FREE ENERGY PREDICTED BY IDOCK:   -0.77 KCAL/MOL
REMARK 927      BINDING AFFINITY PREDICTED BY RF-SCORE:    0.00 PKD
ROOT
HETATM    1  C   UNL     1     -10.473  10.534  66.478  1.00  0.00    -0.276 C  
HETATM    2  C   UNL     1     -10.062  10.367  67.947  1.00  0.00    -0.200 C  
HETATM    3  C   UNL     1      -9.964   8.877  68.291  1.00  0.00    -0.201 C  
HETATM    4  C   UNL     1     -10.991  11.126  68.927  1.00  0.00    -0.225 C  
HETATM    5  N   UNL     1     -12.395  10.670  68.824  1.00  0.00    -0.784 NA 
HETATM    6  H1  UNL     1     -13.006  11.170  69.469  1.00  0.00     0.000 HD 
HETATM    7  H2  UNL     1     -12.468   9.661  68.951  1.00  0.00     0.000 HD 
ENDROOT
BRANCH   4   8
HETATM    8  C   UNL     1     -10.881  12.652  68.725  1.00  0.00    -0.231 C  
HETATM    9  O   UNL     1      -9.846  13.240  68.435  1.00  0.00    -0.234 OA 
BRANCH   8  10
HETATM   10  O   UNL     1     -12.067  13.280  68.981  1.00  0.00    -0.307 OA 
BRANCH  10  11
HETATM   11  C   UNL     1     -12.206  13.865  70.289  1.00  0.00    -0.358 C  
BRANCH  11  12
HETATM   12  C   UNL     1     -12.271  15.396  70.174  1.00  0.00    -0.375 C  
BRANCH  12  13
HETATM   13  O   UNL     1     -11.699  15.898  68.944  1.00  0.00    -0.390 OA 
BRANCH  13  14
HETATM   14  C   UNL     1     -10.835  17.015  69.145  1.00  0.00    -0.164 C  
BRANCH  14  15
HETATM   15  N   UNL     1      -9.918  17.109  68.031  1.00  0.00    -0.282 NA 
HETATM   16  C   UNL     1     -10.108  16.525  66.801  1.00  0.00    -0.288 A  
HETATM   17  N   UNL     1      -9.180  16.882  65.932  1.00  0.00    -0.532 NA 
HETATM   18  C   UNL     1      -8.356  17.738  66.629  1.00  0.00    -0.259 A  
HETATM   19  C   UNL     1      -8.808  17.874  67.918  1.00  0.00    -0.260 A  
HETATM   20  N   UNL     1      -8.200  18.666  68.808  1.00  0.00    -0.303 NA 
HETATM   21  C   UNL     1      -7.107  19.368  68.364  1.00  0.00    -0.304 C  
HETATM   22  N   UNL     1      -6.582  20.198  69.299  1.00  0.00    -0.296 NA 
HETATM   23  N   UNL     1      -6.595  19.317  67.169  1.00  0.00    -0.192 N  
HETATM   24  H2  UNL     1      -6.963  20.293  70.240  1.00  0.00     0.000 HD 
HETATM   25  H1  UNL     1      -5.769  20.719  68.969  1.00  0.00     0.000 HD 
HETATM   26  H   UNL     1      -5.777  19.882  66.940  1.00  0.00     0.000 HD 
HETATM   27  C   UNL     1      -7.164  18.487  66.195  1.00  0.00    -0.266 C  
HETATM   28  O   UNL     1      -6.710  18.394  65.061  1.00  0.00    -0.473 OA 
ENDBRANCH  14  15
ENDBRANCH  13  14
ENDBRANCH  12  13
BRANCH  12  29
HETATM   29  C   UNL     1     -11.509  16.049  71.337  1.00  0.00    -0.398 C  
HETATM   30  O   UNL     1     -12.436  16.445  72.349  1.00  0.00    -0.462 OA 
HETATM   31  H   UNL     1     -11.965  16.849  73.068  1.00  0.00     0.000 HD 
ENDBRANCH  12  29
ENDBRANCH  11  12
ENDBRANCH  10  11
ENDBRANCH   8  10
ENDBRANCH   4   8
TORSDOF 8
ENDMDL
MODEL      112
REMARK 921   NORMALIZED FREE ENERGY PREDICTED BY IDOCK:   -5.18 KCAL/MOL
REMARK 922        TOTAL FREE ENERGY PREDICTED BY IDOCK:   -8.83 KCAL/MOL
REMARK 923 INTER-LIGAND FREE ENERGY PREDICTED BY IDOCK:   -7.91 KCAL/MOL
REMARK 924 INTRA-LIGAND FREE ENERGY PREDICTED BY IDOCK:   -0.92 KCAL/MOL
REMARK 927      BINDING AFFINITY PREDICTED BY RF-SCORE:    0.00 PKD
ROOT
HETATM    1  C   UNL     1     -12.147  15.970  72.242  1.00  0.00    -0.617 C  
HETATM    2  C   UNL     1     -13.102  15.459  71.156  1.00  0.00    -0.565 C  
HETATM    3  C   UNL     1     -14.408  14.978  71.797  1.00  0.00    -0.674 C  
HETATM    4  C   UNL     1     -12.468  14.372  70.252  1.00  0.00    -0.354 C  
HETATM    5  N   UNL     1     -12.036  13.189  71.030  1.00  0.00    -0.430 NA 
HETATM    6  H1  UNL     1     -11.619  12.473  70.435  1.00  0.00     0.000 HD 
HETATM    7  H2  UNL     1     -12.804  12.809  71.584  1.00  0.00     0.000 HD 
ENDROOT
BRANCH   4   8
HETATM    8  C   UNL     1     -11.303  14.952  69.423  1.00  0.00    -0.290 C  
HETATM    9  O   UNL     1     -10.121  14.871  69.736  1.00  0.00    -0.129 OA 
BRANCH   8  10
HETATM   10  O   UNL     1     -11.755  15.633  68.328  1.00  0.00    -0.349 OA 
BRANCH  10  11
HETATM   11  C   UNL     1     -11.109  15.329  67.079  1.00  0.00    -0.305 C  
BRANCH  11  12
HETATM   12  C   UNL     1     -11.634  13.993  66.529  1.00  0.00    -0.374 C  
BRANCH  12  13
HETATM   13  O   UNL     1     -10.586  13.139  66.017  1.00  0.00    -0.274 OA 
BRANCH  13  14
HETATM   14  C   UNL     1      -9.665  12.721  67.023  1.00  0.00    -0.224 C  
BRANCH  14  15
HETATM   15  N   UNL     1      -9.942  11.347  67.376  1.00  0.00    -0.185 NA 
HETATM   16  C   UNL     1     -10.752  10.946  68.413  1.00  0.00    -0.203 A  
HETATM   17  N   UNL     1     -10.932   9.639  68.427  1.00  0.00    -0.163 NA 
HETATM   18  C   UNL     1     -10.211   9.172  67.349  1.00  0.00    -0.247 A  
HETATM   19  C   UNL     1      -9.601  10.221  66.708  1.00  0.00    -0.172 A  
HETATM   20  N   UNL     1      -8.851  10.050  65.613  1.00  0.00    -0.153 NA 
HETATM   21  C   UNL     1      -8.738   8.767  65.137  1.00  0.00    -0.167 C  
HETATM   22  N   UNL     1      -8.019   8.678  63.991  1.00  0.00    -0.151 NA 
HETATM   23  N   UNL     1      -9.272   7.703  65.663  1.00  0.00    -0.391 N  
HETATM   24  H2  UNL     1      -7.603   9.486  63.528  1.00  0.00     0.000 HD 
HETATM   25  H1  UNL     1      -7.934   7.725  63.638  1.00  0.00     0.000 HD 
HETATM   26  H   UNL     1      -9.126   6.793  65.227  1.00  0.00     0.000 HD 
HETATM   27  C   UNL     1     -10.046   7.807  66.825  1.00  0.00    -0.270 C  
HETATM   28  O   UNL     1     -10.557   6.832  67.364  1.00  0.00    -0.223 OA 
ENDBRANCH  14  15
ENDBRANCH  13  14
ENDBRANCH  12  13
BRANCH  12  29
HETATM   29  C   UNL     1     -12.626  14.243  65.383  1.00  0.00    -0.410 C  
HETATM   30  O   UNL     1     -11.926  14.222  64.137  1.00  0.00    -0.588 OA 
HETATM   31  H   UNL     1     -12.540  14.376  63.429  1.00  0.00     0.000 HD 
ENDBRANCH  12  29
ENDBRANCH  11  12
ENDBRANCH  10  11
ENDBRANCH   8  10
ENDBRANCH   4   8
TORSDOF 8
ENDMDL
MODEL      113
REMARK 921   NORMALIZED FREE ENERGY PREDICTED BY IDOCK:   -5.16 KCAL/MOL
REMARK 922        TOTAL FREE ENERGY PREDICTED BY IDOCK:   -8.78 KCAL/MOL
REMARK 923 INTER-LIGAND FREE ENERGY PREDICTED BY IDOCK:   -7.91 KCAL/MOL
REMARK 924 INTRA-LIGAND FREE ENERGY PREDICTED BY IDOCK:   -0.87 KCAL/MOL
REMARK 927      BINDING AFFINITY PREDICTED BY RF-SCORE:    0.00 PKD
ROOT
HETATM    1  C   UNL     1     -12.192   8.412  72.061  1.00  0.00    -0.419 C  
HETATM    2  C   UNL     1     -11.070   7.368  72.010  1.00  0.00    -0.279 C  
HETATM    3  C   UNL     1     -10.335   7.330  73.354  1.00  0.00    -0.410 C  
HETATM    4  C   UNL     1     -10.095   7.582  70.825  1.00  0.00    -0.192 C  
HETATM    5  N   UNL     1      -9.440   8.908  70.881  1.00  0.00    -0.214 NA 
HETATM    6  H1  UNL     1      -8.798   9.048  70.101  1.00  0.00     0.000 HD 
HETATM    7  H2  UNL     1      -8.973   9.054  71.776  1.00  0.00     0.000 HD 
ENDROOT
BRANCH   4   8
HETATM    8  C   UNL     1     -10.809   7.366  69.475  1.00  0.00    -0.189 C  
HETATM    9  O   UNL     1     -11.411   6.345  69.164  1.00  0.00    -0.364 OA 
BRANCH   8  10
HETATM   10  O   UNL     1     -10.626   8.427  68.634  1.00  0.00    -0.196 OA 
BRANCH  10  11
HETATM   11  C   UNL     1     -10.589   8.124  67.228  1.00  0.00    -0.273 C  
BRANCH  11  12
HETATM   12  C   UNL     1      -9.131   8.011  66.754  1.00  0.00    -0.155 C  
BRANCH  12  13
HETATM   13  O   UNL     1      -8.757   9.046  65.815  1.00  0.00    -0.148 OA 
BRANCH  13  14
HETATM   14  C   UNL     1      -8.924  10.362  66.338  1.00  0.00    -0.149 C  
BRANCH  14  15
HETATM   15  N   UNL     1      -9.677  11.154  65.391  1.00  0.00    -0.220 NA 
HETATM   16  C   UNL     1      -9.745  10.914  64.039  1.00  0.00    -0.301 A  
HETATM   17  N   UNL     1     -10.606  11.712  63.435  1.00  0.00    -0.406 NA 
HETATM   18  C   UNL     1     -11.122  12.500  64.441  1.00  0.00    -0.339 A  
HETATM   19  C   UNL     1     -10.548  12.159  65.641  1.00  0.00    -0.262 A  
HETATM   20  N   UNL     1     -10.883  12.757  66.789  1.00  0.00    -0.260 NA 
HETATM   21  C   UNL     1     -11.859  13.721  66.720  1.00  0.00    -0.420 C  
HETATM   22  N   UNL     1     -12.194  14.238  67.928  1.00  0.00    -0.595 NA 
HETATM   23  N   UNL     1     -12.469  14.121  65.642  1.00  0.00    -0.472 N  
HETATM   24  H2  UNL     1     -11.763  13.939  68.803  1.00  0.00     0.000 HD 
HETATM   25  H1  UNL     1     -12.918  14.954  67.877  1.00  0.00     0.000 HD 
HETATM   26  H   UNL     1     -13.183  14.847  65.701  1.00  0.00     0.000 HD 
HETATM   27  C   UNL     1     -12.146  13.557  64.402  1.00  0.00    -0.420 C  
HETATM   28  O   UNL     1     -12.683  13.910  63.358  1.00  0.00    -0.806 OA 
ENDBRANCH  14  15
ENDBRANCH  13  14
ENDBRANCH  12  13
BRANCH  12  29
HETATM   29  C   UNL     1      -8.898   6.658  66.066  1.00  0.00    -0.139 C  
HETATM   30  O   UNL     1      -8.348   6.875  64.765  1.00  0.00    -0.282 OA 
HETATM   31  H   UNL     1      -8.204   6.039  64.339  1.00  0.00     0.000 HD 
ENDBRANCH  12  29
ENDBRANCH  11  12
ENDBRANCH  10  11
ENDBRANCH   8  10
ENDBRANCH   4   8
TORSDOF 8
ENDMDL
MODEL      114
REMARK 921   NORMALIZED FREE ENERGY PREDICTED BY IDOCK:   -5.14 KCAL/MOL
REMARK 922        TOTAL FREE ENERGY PREDICTED BY IDOCK:   -8.77 KCAL/MOL
REMARK 923 INTER-LIGAND FREE ENERGY PREDICTED BY IDOCK:   -7.88 KCAL/MOL
REMARK 924 INTRA-LIGAND FREE ENERGY PREDICTED BY IDOCK:   -0.89 KCAL/MOL
REMARK 927      BINDING AFFINITY PREDICTED BY RF-SCORE:    0.00 PKD
ROOT
HETATM    1  C   UNL     1     -10.617  11.770  64.641  1.00  0.00    -0.359 C  
HETATM    2  C   UNL     1     -12.055  12.302  64.687  1.00  0.00    -0.449 C  
HETATM    3  C   UNL     1     -12.744  12.050  63.342  1.00  0.00    -0.527 C  
HETATM    4  C   UNL     1     -12.138  13.791  65.108  1.00  0.00    -0.399 C  
HETATM    5  N   UNL     1     -11.388  14.670  64.183  1.00  0.00    -0.607 NA 
HETATM    6  H1  UNL     1     -11.444  15.649  64.461  1.00  0.00     0.000 HD 
HETATM    7  H2  UNL     1     -11.694  14.540  63.219  1.00  0.00     0.000 HD 
ENDROOT
BRANCH   4   8
HETATM    8  C   UNL     1     -11.669  13.980  66.566  1.00  0.00    -0.394 C  
HETATM    9  O   UNL     1     -12.347  13.719  67.552  1.00  0.00    -0.287 OA 
BRANCH   8  10
HETATM   10  O   UNL     1     -10.427  14.546  66.624  1.00  0.00    -0.269 OA 
BRANCH  10  11
HETATM   11  C   UNL     1      -9.670  14.293  67.822  1.00  0.00    -0.222 C  
BRANCH  11  12
HETATM   12  C   UNL     1      -9.000  12.912  67.736  1.00  0.00    -0.191 C  
BRANCH  12  13
HETATM   13  O   UNL     1      -9.537  11.960  68.682  1.00  0.00    -0.178 OA 
BRANCH  13  14
HETATM   14  C   UNL     1     -10.333  10.949  68.067  1.00  0.00    -0.185 C  
BRANCH  14  15
HETATM   15  N   UNL     1     -10.633   9.925  69.042  1.00  0.00    -0.212 NA 
HETATM   16  C   UNL     1     -10.018   8.698  69.113  1.00  0.00    -0.192 A  
HETATM   17  N   UNL     1     -10.394   8.014  70.178  1.00  0.00    -0.211 NA 
HETATM   18  C   UNL     1     -11.288   8.836  70.828  1.00  0.00    -0.272 A  
HETATM   19  C   UNL     1     -11.437  10.007  70.128  1.00  0.00    -0.277 A  
HETATM   20  N   UNL     1     -12.237  10.994  70.548  1.00  0.00    -0.350 NA 
HETATM   21  C   UNL     1     -12.890  10.793  71.739  1.00  0.00    -0.423 C  
HETATM   22  N   UNL     1     -13.629  11.858  72.135  1.00  0.00    -0.444 NA 
HETATM   23  N   UNL     1     -12.821   9.728  72.483  1.00  0.00    -0.335 N  
HETATM   24  H2  UNL     1     -13.694  12.724  71.600  1.00  0.00     0.000 HD 
HETATM   25  H1  UNL     1     -14.115  11.709  73.020  1.00  0.00     0.000 HD 
HETATM   26  H   UNL     1     -13.348   9.680  73.355  1.00  0.00     0.000 HD 
HETATM   27  C   UNL     1     -12.024   8.646  72.088  1.00  0.00    -0.379 C  
HETATM   28  O   UNL     1     -11.939   7.616  72.747  1.00  0.00    -0.218 OA 
ENDBRANCH  14  15
ENDBRANCH  13  14
ENDBRANCH  12  13
BRANCH  12  29
HETATM   29  C   UNL     1      -7.493  13.035  68.011  1.00  0.00    -0.134 C  
HETATM   30  O   UNL     1      -6.764  12.493  66.907  1.00  0.00    -0.366 OA 
HETATM   31  H   UNL     1      -5.832  12.569  67.077  1.00  0.00     0.000 HD 
ENDBRANCH  12  29
ENDBRANCH  11  12
ENDBRANCH  10  11
ENDBRANCH   8  10
ENDBRANCH   4   8
TORSDOF 8
ENDMDL
MODEL      115
REMARK 921   NORMALIZED FREE ENERGY PREDICTED BY IDOCK:   -5.13 KCAL/MOL
REMARK 922        TOTAL FREE ENERGY PREDICTED BY IDOCK:   -8.74 KCAL/MOL
REMARK 923 INTER-LIGAND FREE ENERGY PREDICTED BY IDOCK:   -7.67 KCAL/MOL
REMARK 924 INTRA-LIGAND FREE ENERGY PREDICTED BY IDOCK:   -1.07 KCAL/MOL
REMARK 927      BINDING AFFINITY PREDICTED BY RF-SCORE:    0.00 PKD
ROOT
HETATM    1  C   UNL     1     -10.649   7.582  69.156  1.00  0.00    -0.204 C  
HETATM    2  C   UNL     1      -9.425   8.495  69.021  1.00  0.00    -0.150 C  
HETATM    3  C   UNL     1      -8.394   8.144  70.098  1.00  0.00    -0.125 C  
HETATM    4  C   UNL     1      -9.786  10.002  69.037  1.00  0.00    -0.199 C  
HETATM    5  N   UNL     1     -10.473  10.392  70.290  1.00  0.00    -0.442 NA 
HETATM    6  H1  UNL     1     -10.710  11.383  70.300  1.00  0.00     0.000 HD 
HETATM    7  H2  UNL     1      -9.924  10.134  71.109  1.00  0.00     0.000 HD 
ENDROOT
BRANCH   4   8
HETATM    8  C   UNL     1     -10.622  10.384  67.798  1.00  0.00    -0.250 C  
HETATM    9  O   UNL     1     -11.800  10.720  67.832  1.00  0.00    -0.553 OA 
BRANCH   8  10
HETATM   10  O   UNL     1      -9.908  10.232  66.643  1.00  0.00    -0.188 OA 
BRANCH  10  11
HETATM   11  C   UNL     1      -9.270  11.416  66.130  1.00  0.00    -0.210 C  
BRANCH  11  12
HETATM   12  C   UNL     1      -9.845  11.763  64.747  1.00  0.00    -0.211 C  
BRANCH  12  13
HETATM   13  O   UNL     1     -11.239  12.143  64.791  1.00  0.00    -0.307 OA 
BRANCH  13  14
HETATM   14  C   UNL     1     -11.446  13.536  64.567  1.00  0.00    -0.381 C  
BRANCH  14  15
HETATM   15  N   UNL     1     -11.527  14.213  65.842  1.00  0.00    -0.331 NA 
HETATM   16  C   UNL     1     -12.404  13.893  66.851  1.00  0.00    -0.292 A  
HETATM   17  N   UNL     1     -12.172  14.585  67.950  1.00  0.00    -0.211 NA 
HETATM   18  C   UNL     1     -11.094  15.386  67.642  1.00  0.00    -0.316 A  
HETATM   19  C   UNL     1     -10.701  15.159  66.346  1.00  0.00    -0.317 A  
HETATM   20  N   UNL     1      -9.661  15.793  65.793  1.00  0.00    -0.335 NA 
HETATM   21  C   UNL     1      -8.977  16.672  66.596  1.00  0.00    -0.255 C  
HETATM   22  N   UNL     1      -7.898  17.228  65.991  1.00  0.00    -0.500 NA 
HETATM   23  N   UNL     1      -9.260  16.962  67.833  1.00  0.00    -0.230 N  
HETATM   24  H2  UNL     1      -7.622  17.013  65.034  1.00  0.00     0.000 HD 
HETATM   25  H1  UNL     1      -7.391  17.882  66.587  1.00  0.00     0.000 HD 
HETATM   26  H   UNL     1      -8.684  17.632  68.343  1.00  0.00     0.000 HD 
HETATM   27  C   UNL     1     -10.352  16.356  68.465  1.00  0.00    -0.270 C  
HETATM   28  O   UNL     1     -10.666  16.606  69.622  1.00  0.00    -0.326 OA 
ENDBRANCH  14  15
ENDBRANCH  13  14
ENDBRANCH  12  13
BRANCH  12  29
HETATM   29  C   UNL     1      -9.725  10.556  63.804  1.00  0.00    -0.326 C  
HETATM   30  O   UNL     1     -10.556  10.764  62.660  1.00  0.00    -0.742 OA 
HETATM   31  H   UNL     1     -10.483  10.018  62.077  1.00  0.00     0.000 HD 
ENDBRANCH  12  29
ENDBRANCH  11  12
ENDBRANCH  10  11
ENDBRANCH   8  10
ENDBRANCH   4   8
TORSDOF 8
ENDMDL
MODEL      116
REMARK 921   NORMALIZED FREE ENERGY PREDICTED BY IDOCK:   -5.12 KCAL/MOL
REMARK 922        TOTAL FREE ENERGY PREDICTED BY IDOCK:   -8.74 KCAL/MOL
REMARK 923 INTER-LIGAND FREE ENERGY PREDICTED BY IDOCK:   -7.80 KCAL/MOL
REMARK 924 INTRA-LIGAND FREE ENERGY PREDICTED BY IDOCK:   -0.94 KCAL/MOL
REMARK 927      BINDING AFFINITY PREDICTED BY RF-SCORE:    0.00 PKD
ROOT
HETATM    1  C   UNL     1     -10.565  17.688  66.249  1.00  0.00    -0.215 C  
HETATM    2  C   UNL     1     -10.594  18.314  67.648  1.00  0.00    -0.427 C  
HETATM    3  C   UNL     1      -9.789  19.618  67.651  1.00  0.00    -0.494 C  
HETATM    4  C   UNL     1     -10.121  17.341  68.758  1.00  0.00    -0.337 C  
HETATM    5  N   UNL     1      -8.735  16.874  68.530  1.00  0.00    -0.243 NA 
HETATM    6  H1  UNL     1      -8.424  16.234  69.260  1.00  0.00     0.000 HD 
HETATM    7  H2  UNL     1      -8.091  17.658  68.426  1.00  0.00     0.000 HD 
ENDROOT
BRANCH   4   8
HETATM    8  C   UNL     1     -11.095  16.154  68.906  1.00  0.00    -0.347 C  
HETATM    9  O   UNL     1     -12.106  16.169  69.598  1.00  0.00    -0.207 OA 
BRANCH   8  10
HETATM   10  O   UNL     1     -10.653  15.054  68.227  1.00  0.00    -0.239 OA 
BRANCH  10  11
HETATM   11  C   UNL     1     -11.663  14.116  67.813  1.00  0.00    -0.373 C  
BRANCH  11  12
HETATM   12  C   UNL     1     -11.076  12.696  67.776  1.00  0.00    -0.247 C  
BRANCH  12  13
HETATM   13  O   UNL     1     -11.438  11.901  68.928  1.00  0.00    -0.249 OA 
BRANCH  13  14
HETATM   14  C   UNL     1     -11.621  10.520  68.619  1.00  0.00    -0.171 C  
BRANCH  14  15
HETATM   15  N   UNL     1     -10.974   9.719  69.634  1.00  0.00    -0.240 NA 
HETATM   16  C   UNL     1      -9.621   9.490  69.716  1.00  0.00    -0.216 A  
HETATM   17  N   UNL     1      -9.293   8.834  70.813  1.00  0.00    -0.189 NA 
HETATM   18  C   UNL     1     -10.485   8.635  71.475  1.00  0.00    -0.274 A  
HETATM   19  C   UNL     1     -11.517   9.175  70.748  1.00  0.00    -0.282 A  
HETATM   20  N   UNL     1     -12.785   9.139  71.171  1.00  0.00    -0.261 NA 
HETATM   21  C   UNL     1     -13.011   8.554  72.393  1.00  0.00    -0.307 C  
HETATM   22  N   UNL     1     -14.306   8.610  72.788  1.00  0.00    -0.994 NA 
HETATM   23  N   UNL     1     -12.112   8.013  73.164  1.00  0.00    -0.327 N  
HETATM   24  H2  UNL     1     -15.042   9.046  72.231  1.00  0.00     0.000 HD 
HETATM   25  H1  UNL     1     -14.474   8.175  73.695  1.00  0.00     0.000 HD 
HETATM   26  H   UNL     1     -12.386   7.604  74.057  1.00  0.00     0.000 HD 
HETATM   27  C   UNL     1     -10.769   7.992  72.768  1.00  0.00    -0.362 C  
HETATM   28  O   UNL     1      -9.889   7.483  73.453  1.00  0.00    -0.259 OA 
ENDBRANCH  14  15
ENDBRANCH  13  14
ENDBRANCH  12  13
BRANCH  12  29
HETATM   29  C   UNL     1      -9.542  12.756  67.722  1.00  0.00    -0.204 C  
HETATM   30  O   UNL     1      -9.023  12.837  69.051  1.00  0.00    -0.330 OA 
HETATM   31  H   UNL     1      -8.075  12.874  69.017  1.00  0.00     0.000 HD 
ENDBRANCH  12  29
ENDBRANCH  11  12
ENDBRANCH  10  11
ENDBRANCH   8  10
ENDBRANCH   4   8
TORSDOF 8
ENDMDL
MODEL      117
REMARK 921   NORMALIZED FREE ENERGY PREDICTED BY IDOCK:   -5.11 KCAL/MOL
REMARK 922        TOTAL FREE ENERGY PREDICTED BY IDOCK:   -8.72 KCAL/MOL
REMARK 923 INTER-LIGAND FREE ENERGY PREDICTED BY IDOCK:   -7.38 KCAL/MOL
REMARK 924 INTRA-LIGAND FREE ENERGY PREDICTED BY IDOCK:   -1.34 KCAL/MOL
REMARK 927      BINDING AFFINITY PREDICTED BY RF-SCORE:    0.00 PKD
ROOT
HETATM    1  C   UNL     1     -12.478  14.357  66.259  1.00  0.00    -0.239 C  
HETATM    2  C   UNL     1     -11.216  14.168  65.408  1.00  0.00    -0.325 C  
HETATM    3  C   UNL     1     -10.504  15.513  65.233  1.00  0.00    -0.437 C  
HETATM    4  C   UNL     1     -11.498  13.483  64.047  1.00  0.00    -0.320 C  
HETATM    5  N   UNL     1     -12.454  14.258  63.225  1.00  0.00    -1.068 NA 
HETATM    6  H1  UNL     1     -12.638  13.806  62.329  1.00  0.00     0.000 HD 
HETATM    7  H2  UNL     1     -12.139  15.219  63.096  1.00  0.00     0.000 HD 
ENDROOT
BRANCH   4   8
HETATM    8  C   UNL     1     -11.980  12.031  64.248  1.00  0.00    -0.335 C  
HETATM    9  O   UNL     1     -13.138  11.658  64.103  1.00  0.00    -0.324 OA 
BRANCH   8  10
HETATM   10  O   UNL     1     -10.969  11.221  64.682  1.00  0.00    -0.294 OA 
BRANCH  10  11
HETATM   11  C   UNL     1     -11.154  10.609  65.971  1.00  0.00     0.239 C  
BRANCH  11  12
HETATM   12  C   UNL     1      -9.811  10.079  66.498  1.00  0.00    -0.210 C  
BRANCH  12  13
HETATM   13  O   UNL     1      -9.264  10.882  67.569  1.00  0.00    -0.147 OA 
BRANCH  13  14
HETATM   14  C   UNL     1     -10.260  11.613  68.283  1.00  0.00    -0.199 C  
BRANCH  14  15
HETATM   15  N   UNL     1      -9.826  12.985  68.425  1.00  0.00    -0.225 NA 
HETATM   16  C   UNL     1      -8.692  13.517  67.858  1.00  0.00    -0.183 A  
HETATM   17  N   UNL     1      -8.609  14.822  68.044  1.00  0.00    -0.160 NA 
HETATM   18  C   UNL     1      -9.741  15.149  68.757  1.00  0.00    -0.221 A  
HETATM   19  C   UNL     1     -10.485  14.020  68.995  1.00  0.00    -0.156 A  
HETATM   20  N   UNL     1     -11.648  14.057  69.655  1.00  0.00    -0.278 NA 
HETATM   21  C   UNL     1     -12.085  15.292  70.067  1.00  0.00    -0.352 C  
HETATM   22  N   UNL     1     -13.299  15.261  70.670  1.00  0.00    -0.712 NA 
HETATM   23  N   UNL     1     -11.464  16.423  69.895  1.00  0.00    -0.359 N  
HETATM   24  H2  UNL     1     -13.835  14.405  70.804  1.00  0.00     0.000 HD 
HETATM   25  H1  UNL     1     -13.623  16.178  70.976  1.00  0.00     0.000 HD 
HETATM   26  H   UNL     1     -11.878  17.288  70.242  1.00  0.00     0.000 HD 
HETATM   27  C   UNL     1     -10.228  16.453  69.238  1.00  0.00    -0.278 C  
HETATM   28  O   UNL     1      -9.600  17.490  69.065  1.00  0.00    -0.243 OA 
ENDBRANCH  14  15
ENDBRANCH  13  14
ENDBRANCH  12  13
BRANCH  12  29
HETATM   29  C   UNL     1      -8.770  10.050  65.367  1.00  0.00    -0.159 C  
HETATM   30  O   UNL     1      -8.939   8.857  64.598  1.00  0.00    -0.398 OA 
HETATM   31  H   UNL     1      -8.296   8.839  63.900  1.00  0.00     0.000 HD 
ENDBRANCH  12  29
ENDBRANCH  11  12
ENDBRANCH  10  11
ENDBRANCH   8  10
ENDBRANCH   4   8
TORSDOF 8
ENDMDL
MODEL      118
REMARK 921   NORMALIZED FREE ENERGY PREDICTED BY IDOCK:   -5.10 KCAL/MOL
REMARK 922        TOTAL FREE ENERGY PREDICTED BY IDOCK:   -8.70 KCAL/MOL
REMARK 923 INTER-LIGAND FREE ENERGY PREDICTED BY IDOCK:   -7.97 KCAL/MOL
REMARK 924 INTRA-LIGAND FREE ENERGY PREDICTED BY IDOCK:   -0.73 KCAL/MOL
REMARK 927      BINDING AFFINITY PREDICTED BY RF-SCORE:    0.00 PKD
ROOT
HETATM    1  C   UNL     1     -10.241   8.374  72.647  1.00  0.00    -0.320 C  
HETATM    2  C   UNL     1     -11.340   7.320  72.460  1.00  0.00    -0.338 C  
HETATM    3  C   UNL     1     -10.707   5.966  72.125  1.00  0.00    -0.278 C  
HETATM    4  C   UNL     1     -12.407   7.734  71.416  1.00  0.00    -0.323 C  
HETATM    5  N   UNL     1     -11.812   7.969  70.081  1.00  0.00    -0.421 NA 
HETATM    6  H1  UNL     1     -12.514   8.241  69.394  1.00  0.00     0.000 HD 
HETATM    7  H2  UNL     1     -11.278   7.160  69.765  1.00  0.00     0.000 HD 
ENDROOT
BRANCH   4   8
HETATM    8  C   UNL     1     -13.206   8.962  71.897  1.00  0.00    -0.393 C  
HETATM    9  O   UNL     1     -13.947   8.970  72.873  1.00  0.00    -0.427 OA 
BRANCH   8  10
HETATM   10  O   UNL     1     -13.044  10.028  71.057  1.00  0.00    -0.375 OA 
BRANCH  10  11
HETATM   11  C   UNL     1     -12.522  11.230  71.651  1.00  0.00    -0.146 C  
BRANCH  11  12
HETATM   12  C   UNL     1     -12.903  12.447  70.793  1.00  0.00    -0.015 C  
BRANCH  12  13
HETATM   13  O   UNL     1     -11.809  12.938  69.984  1.00  0.00    -0.326 OA 
BRANCH  13  14
HETATM   14  C   UNL     1     -11.236  11.933  69.150  1.00  0.00    -0.255 C  
BRANCH  14  15
HETATM   15  N   UNL     1     -11.504  12.258  67.767  1.00  0.00    -0.307 NA 
HETATM   16  C   UNL     1     -12.088  13.423  67.329  1.00  0.00    -0.304 A  
HETATM   17  N   UNL     1     -12.092  13.512  66.012  1.00  0.00    -0.421 NA 
HETATM   18  C   UNL     1     -11.481  12.357  65.578  1.00  0.00    -0.361 A  
HETATM   19  C   UNL     1     -11.124  11.586  66.656  1.00  0.00    -0.295 A  
HETATM   20  N   UNL     1     -10.493  10.414  66.519  1.00  0.00    -0.223 NA 
HETATM   21  C   UNL     1     -10.191  10.022  65.238  1.00  0.00    -0.126 C  
HETATM   22  N   UNL     1      -9.496   8.860  65.179  1.00  0.00    -0.427 NA 
HETATM   23  N   UNL     1     -10.480  10.672  64.148  1.00  0.00    -0.429 N  
HETATM   24  H2  UNL     1      -9.225   8.328  66.005  1.00  0.00     0.000 HD 
HETATM   25  H1  UNL     1      -9.272   8.568  64.227  1.00  0.00     0.000 HD 
HETATM   26  H   UNL     1     -10.208  10.292  63.242  1.00  0.00     0.000 HD 
HETATM   27  C   UNL     1     -11.163  11.892  64.217  1.00  0.00    -0.357 C  
HETATM   28  O   UNL     1     -11.469  12.533  63.219  1.00  0.00    -0.466 OA 
ENDBRANCH  14  15
ENDBRANCH  13  14
ENDBRANCH  12  13
BRANCH  12  29
HETATM   29  C   UNL     1     -13.369  13.605  71.689  1.00  0.00    -0.346 C  
HETATM   30  O   UNL     1     -12.551  14.751  71.447  1.00  0.00    -0.290 OA 
HETATM   31  H   UNL     1     -12.839  15.467  72.001  1.00  0.00     0.000 HD 
ENDBRANCH  12  29
ENDBRANCH  11  12
ENDBRANCH  10  11
ENDBRANCH   8  10
ENDBRANCH   4   8
TORSDOF 8
ENDMDL
MODEL      119
REMARK 921   NORMALIZED FREE ENERGY PREDICTED BY IDOCK:   -5.09 KCAL/MOL
REMARK 922        TOTAL FREE ENERGY PREDICTED BY IDOCK:   -8.69 KCAL/MOL
REMARK 923 INTER-LIGAND FREE ENERGY PREDICTED BY IDOCK:   -7.94 KCAL/MOL
REMARK 924 INTRA-LIGAND FREE ENERGY PREDICTED BY IDOCK:   -0.75 KCAL/MOL
REMARK 927      BINDING AFFINITY PREDICTED BY RF-SCORE:    0.00 PKD
ROOT
HETATM    1  C   UNL     1     -12.217  15.478  64.210  1.00  0.00    -0.078 C  
HETATM    2  C   UNL     1     -11.320  15.022  65.367  1.00  0.00    -0.328 C  
HETATM    3  C   UNL     1     -10.091  15.932  65.460  1.00  0.00    -0.353 C  
HETATM    4  C   UNL     1     -10.925  13.526  65.277  1.00  0.00    -0.295 C  
HETATM    5  N   UNL     1     -10.194  13.222  64.026  1.00  0.00    -0.758 NA 
HETATM    6  H1  UNL     1      -9.934  12.238  63.967  1.00  0.00     0.000 HD 
HETATM    7  H2  UNL     1      -9.380  13.827  63.915  1.00  0.00     0.000 HD 
ENDROOT
BRANCH   4   8
HETATM    8  C   UNL     1     -12.160  12.617  65.439  1.00  0.00    -0.462 C  
HETATM    9  O   UNL     1     -13.080  12.546  64.633  1.00  0.00    -0.845 OA 
BRANCH   8  10
HETATM   10  O   UNL     1     -12.141  11.950  66.631  1.00  0.00    -0.587 OA 
BRANCH  10  11
HETATM   11  C   UNL     1     -11.832  12.738  67.795  1.00  0.00    -0.332 C  
BRANCH  11  12
HETATM   12  C   UNL     1     -10.991  11.911  68.780  1.00  0.00    -0.235 C  
BRANCH  12  13
HETATM   13  O   UNL     1     -10.036  11.045  68.124  1.00  0.00    -0.170 OA 
BRANCH  13  14
HETATM   14  C   UNL     1     -10.555   9.744  67.855  1.00  0.00    -0.259 C  
BRANCH  14  15
HETATM   15  N   UNL     1      -9.594   9.006  67.067  1.00  0.00    -0.165 NA 
HETATM   16  C   UNL     1      -8.867   7.928  67.514  1.00  0.00    -0.128 A  
HETATM   17  N   UNL     1      -8.164   7.367  66.549  1.00  0.00    -0.116 NA 
HETATM   18  C   UNL     1      -8.452   8.111  65.425  1.00  0.00    -0.147 A  
HETATM   19  C   UNL     1      -9.327   9.119  65.745  1.00  0.00    -0.245 A  
HETATM   20  N   UNL     1      -9.789   9.981  64.832  1.00  0.00    -0.318 NA 
HETATM   21  C   UNL     1      -9.365   9.796  63.539  1.00  0.00    -0.088 C  
HETATM   22  N   UNL     1      -9.922  10.663  62.659  1.00  0.00    -0.741 NA 
HETATM   23  N   UNL     1      -8.541   8.877  63.125  1.00  0.00    -0.374 N  
HETATM   24  H2  UNL     1     -10.591  11.383  62.931  1.00  0.00     0.000 HD 
HETATM   25  H1  UNL     1      -9.607  10.526  61.699  1.00  0.00     0.000 HD 
HETATM   26  H   UNL     1      -8.291   8.826  62.138  1.00  0.00     0.000 HD 
HETATM   27  C   UNL     1      -7.999   7.959  64.033  1.00  0.00    -0.124 C  
HETATM   28  O   UNL     1      -7.209   7.086  63.693  1.00  0.00    -0.060 OA 
ENDBRANCH  14  15
ENDBRANCH  13  14
ENDBRANCH  12  13
BRANCH  12  29
HETATM   29  C   UNL     1     -11.902  11.024  69.643  1.00  0.00    -0.342 C  
HETATM   30  O   UNL     1     -12.028  11.598  70.945  1.00  0.00    -0.388 OA 
HETATM   31  H   UNL     1     -12.591  11.049  71.478  1.00  0.00     0.000 HD 
ENDBRANCH  12  29
ENDBRANCH  11  12
ENDBRANCH  10  11
ENDBRANCH   8  10
ENDBRANCH   4   8
TORSDOF 8
ENDMDL
MODEL      120
REMARK 921   NORMALIZED FREE ENERGY PREDICTED BY IDOCK:   -5.06 KCAL/MOL
REMARK 922        TOTAL FREE ENERGY PREDICTED BY IDOCK:   -8.65 KCAL/MOL
REMARK 923 INTER-LIGAND FREE ENERGY PREDICTED BY IDOCK:   -8.08 KCAL/MOL
REMARK 924 INTRA-LIGAND FREE ENERGY PREDICTED BY IDOCK:   -0.56 KCAL/MOL
REMARK 927      BINDING AFFINITY PREDICTED BY RF-SCORE:    0.00 PKD
ROOT
HETATM    1  C   UNL     1     -12.284  14.480  64.142  1.00  0.00    -0.372 C  
HETATM    2  C   UNL     1     -11.185  13.415  64.240  1.00  0.00    -0.406 C  
HETATM    3  C   UNL     1     -11.573  12.192  63.404  1.00  0.00    -0.508 C  
HETATM    4  C   UNL     1     -10.841  13.030  65.701  1.00  0.00    -0.273 C  
HETATM    5  N   UNL     1     -12.017  12.496  66.424  1.00  0.00    -0.577 NA 
HETATM    6  H1  UNL     1     -11.790  12.243  67.385  1.00  0.00     0.000 HD 
HETATM    7  H2  UNL     1     -12.436  11.712  65.923  1.00  0.00     0.000 HD 
ENDROOT
BRANCH   4   8
HETATM    8  C   UNL     1     -10.214  14.222  66.454  1.00  0.00    -0.291 C  
HETATM    9  O   UNL     1     -10.830  15.219  66.810  1.00  0.00    -0.308 OA 
BRANCH   8  10
HETATM   10  O   UNL     1      -8.866  14.063  66.614  1.00  0.00    -0.196 OA 
BRANCH  10  11
HETATM   11  C   UNL     1      -8.425  13.665  67.925  1.00  0.00    -0.177 C  
BRANCH  11  12
HETATM   12  C   UNL     1      -8.405  12.131  68.027  1.00  0.00    -0.167 C  
BRANCH  12  13
HETATM   13  O   UNL     1      -9.687  11.570  68.393  1.00  0.00    -0.191 OA 
BRANCH  13  14
HETATM   14  C   UNL     1      -9.582  10.501  69.332  1.00  0.00    -0.148 C  
BRANCH  14  15
HETATM   15  N   UNL     1     -10.830  10.381  70.051  1.00  0.00    -0.290 NA 
HETATM   16  C   UNL     1     -12.008  10.994  69.697  1.00  0.00    -0.353 A  
HETATM   17  N   UNL     1     -13.018  10.607  70.453  1.00  0.00    -0.242 NA 
HETATM   18  C   UNL     1     -12.471   9.699  71.333  1.00  0.00    -0.373 A  
HETATM   19  C   UNL     1     -11.127   9.564  71.088  1.00  0.00    -0.379 A  
HETATM   20  N   UNL     1     -10.354   8.727  71.789  1.00  0.00    -0.315 NA 
HETATM   21  C   UNL     1     -10.975   7.980  72.759  1.00  0.00    -0.382 C  
HETATM   22  N   UNL     1     -10.144   7.109  73.384  1.00  0.00    -0.266 NA 
HETATM   23  N   UNL     1     -12.237   8.026  73.074  1.00  0.00    -0.502 N  
HETATM   24  H2  UNL     1      -9.155   7.018  73.155  1.00  0.00     0.000 HD 
HETATM   25  H1  UNL     1     -10.605   6.554  74.105  1.00  0.00     0.000 HD 
HETATM   26  H   UNL     1     -12.599   7.425  73.814  1.00  0.00     0.000 HD 
HETATM   27  C   UNL     1     -13.098   8.900  72.400  1.00  0.00    -0.418 C  
HETATM   28  O   UNL     1     -14.289   8.989  72.670  1.00  0.00    -0.603 OA 
ENDBRANCH  14  15
ENDBRANCH  13  14
ENDBRANCH  12  13
BRANCH  12  29
HETATM   29  C   UNL     1      -7.387  11.682  69.087  1.00  0.00    -0.032 C  
HETATM   30  O   UNL     1      -6.688  12.824  69.587  1.00  0.00    -0.311 OA 
HETATM   31  H   UNL     1      -6.058  12.546  70.241  1.00  0.00     0.000 HD 
ENDBRANCH  12  29
ENDBRANCH  11  12
ENDBRANCH  10  11
ENDBRANCH   8  10
ENDBRANCH   4   8
TORSDOF 8
ENDMDL
MODEL      121
REMARK 921   NORMALIZED FREE ENERGY PREDICTED BY IDOCK:   -5.06 KCAL/MOL
REMARK 922        TOTAL FREE ENERGY PREDICTED BY IDOCK:   -8.64 KCAL/MOL
REMARK 923 INTER-LIGAND FREE ENERGY PREDICTED BY IDOCK:   -7.99 KCAL/MOL
REMARK 924 INTRA-LIGAND FREE ENERGY PREDICTED BY IDOCK:   -0.65 KCAL/MOL
REMARK 927      BINDING AFFINITY PREDICTED BY RF-SCORE:    0.00 PKD
ROOT
HETATM    1  C   UNL     1      -8.182  10.815  65.602  1.00  0.00    -0.127 C  
HETATM    2  C   UNL     1      -9.603  10.822  66.177  1.00  0.00    -0.236 C  
HETATM    3  C   UNL     1     -10.035   9.390  66.508  1.00  0.00    -0.339 C  
HETATM    4  C   UNL     1     -10.627  11.536  65.258  1.00  0.00    -0.283 C  
HETATM    5  N   UNL     1     -10.710  10.900  63.924  1.00  0.00    -0.509 NA 
HETATM    6  H1  UNL     1     -11.384  11.370  63.320  1.00  0.00     0.000 HD 
HETATM    7  H2  UNL     1     -10.913   9.903  64.000  1.00  0.00     0.000 HD 
ENDROOT
BRANCH   4   8
HETATM    8  C   UNL     1     -10.310  13.041  65.142  1.00  0.00    -0.304 C  
HETATM    9  O   UNL     1     -10.286  13.666  64.089  1.00  0.00    -0.315 OA 
BRANCH   8  10
HETATM   10  O   UNL     1      -9.987  13.582  66.355  1.00  0.00    -0.280 OA 
BRANCH  10  11
HETATM   11  C   UNL     1     -11.053  14.242  67.061  1.00  0.00    -0.312 C  
BRANCH  11  12
HETATM   12  C   UNL     1     -10.626  15.668  67.441  1.00  0.00    -0.301 C  
BRANCH  12  13
HETATM   13  O   UNL     1      -9.191  15.841  67.477  1.00  0.00    -0.201 OA 
BRANCH  13  14
HETATM   14  C   UNL     1      -8.689  16.080  68.790  1.00  0.00    -0.223 C  
BRANCH  14  15
HETATM   15  N   UNL     1      -7.828  17.241  68.763  1.00  0.00    -0.266 NA 
HETATM   16  C   UNL     1      -6.536  17.277  69.232  1.00  0.00    -0.237 A  
HETATM   17  N   UNL     1      -5.942  18.425  68.964  1.00  0.00    -0.214 NA 
HETATM   18  C   UNL     1      -6.889  19.162  68.287  1.00  0.00    -0.254 A  
HETATM   19  C   UNL     1      -8.047  18.436  68.168  1.00  0.00    -0.290 A  
HETATM   20  N   UNL     1      -9.126  18.911  67.535  1.00  0.00    -0.279 NA 
HETATM   21  C   UNL     1      -9.014  20.161  66.978  1.00  0.00    -0.350 C  
HETATM   22  N   UNL     1     -10.120  20.550  66.298  1.00  0.00    -0.518 NA 
HETATM   23  N   UNL     1      -7.968  20.934  67.029  1.00  0.00    -0.579 N  
HETATM   24  H2  UNL     1     -10.954  19.970  66.208  1.00  0.00     0.000 HD 
HETATM   25  H1  UNL     1     -10.037  21.479  65.885  1.00  0.00     0.000 HD 
HETATM   26  H   UNL     1      -7.989  21.849  66.579  1.00  0.00     0.000 HD 
HETATM   27  C   UNL     1      -6.814  20.511  67.701  1.00  0.00    -0.320 C  
HETATM   28  O   UNL     1      -5.810  21.207  67.787  1.00  0.00    -0.292 OA 
ENDBRANCH  14  15
ENDBRANCH  13  14
ENDBRANCH  12  13
BRANCH  12  29
HETATM   29  C   UNL     1     -11.169  16.033  68.832  1.00  0.00    -0.353 C  
HETATM   30  O   UNL     1     -12.512  15.562  68.956  1.00  0.00    -0.607 OA 
HETATM   31  H   UNL     1     -12.847  15.787  69.815  1.00  0.00     0.000 HD 
ENDBRANCH  12  29
ENDBRANCH  11  12
ENDBRANCH  10  11
ENDBRANCH   8  10
ENDBRANCH   4   8
TORSDOF 8
ENDMDL
MODEL      122
REMARK 921   NORMALIZED FREE ENERGY PREDICTED BY IDOCK:   -5.06 KCAL/MOL
REMARK 922        TOTAL FREE ENERGY PREDICTED BY IDOCK:   -8.64 KCAL/MOL
REMARK 923 INTER-LIGAND FREE ENERGY PREDICTED BY IDOCK:   -7.78 KCAL/MOL
REMARK 924 INTRA-LIGAND FREE ENERGY PREDICTED BY IDOCK:   -0.87 KCAL/MOL
REMARK 927      BINDING AFFINITY PREDICTED BY RF-SCORE:    0.00 PKD
ROOT
HETATM    1  C   UNL     1      -9.556  13.083  67.633  1.00  0.00    -0.206 C  
HETATM    2  C   UNL     1     -10.934  12.430  67.463  1.00  0.00    -0.293 C  
HETATM    3  C   UNL     1     -11.272  12.313  65.973  1.00  0.00    -0.375 C  
HETATM    4  C   UNL     1     -12.052  13.157  68.253  1.00  0.00    -0.179 C  
HETATM    5  N   UNL     1     -12.195  14.570  67.835  1.00  0.00    -0.622 NA 
HETATM    6  H1  UNL     1     -12.931  15.047  68.355  1.00  0.00     0.000 HD 
HETATM    7  H2  UNL     1     -12.344  14.646  66.829  1.00  0.00     0.000 HD 
ENDROOT
BRANCH   4   8
HETATM    8  C   UNL     1     -11.818  13.044  69.774  1.00  0.00    -0.311 C  
HETATM    9  O   UNL     1     -11.615  13.996  70.517  1.00  0.00    -0.230 OA 
BRANCH   8  10
HETATM   10  O   UNL     1     -11.791  11.740  70.183  1.00  0.00    -0.329 OA 
BRANCH  10  11
HETATM   11  C   UNL     1     -12.682  11.394  71.259  1.00  0.00    -0.393 C  
BRANCH  11  12
HETATM   12  C   UNL     1     -12.444   9.938  71.689  1.00  0.00    -0.415 C  
BRANCH  12  13
HETATM   13  O   UNL     1     -11.867   9.123  70.642  1.00  0.00    -0.264 OA 
BRANCH  13  14
HETATM   14  C   UNL     1     -10.734   8.374  71.077  1.00  0.00    -0.223 C  
BRANCH  14  15
HETATM   15  N   UNL     1     -10.537   7.255  70.183  1.00  0.00    -0.226 NA 
HETATM   16  C   UNL     1     -10.688   5.933  70.527  1.00  0.00    -0.294 A  
HETATM   17  N   UNL     1     -10.574   5.131  69.485  1.00  0.00    -0.175 NA 
HETATM   18  C   UNL     1     -10.343   5.971  68.418  1.00  0.00    -0.207 A  
HETATM   19  C   UNL     1     -10.316   7.274  68.848  1.00  0.00    -0.201 A  
HETATM   20  N   UNL     1     -10.128   8.299  68.010  1.00  0.00    -0.190 NA 
HETATM   21  C   UNL     1      -9.986   7.990  66.679  1.00  0.00    -0.256 C  
HETATM   22  N   UNL     1      -9.864   9.080  65.882  1.00  0.00    -0.431 NA 
HETATM   23  N   UNL     1      -9.996   6.795  66.163  1.00  0.00    -0.411 N  
HETATM   24  H2  UNL     1      -9.877  10.036  66.236  1.00  0.00     0.000 HD 
HETATM   25  H1  UNL     1      -9.759   8.850  64.894  1.00  0.00     0.000 HD 
HETATM   26  H   UNL     1      -9.883   6.675  65.157  1.00  0.00     0.000 HD 
HETATM   27  C   UNL     1     -10.161   5.675  66.987  1.00  0.00    -0.222 C  
HETATM   28  O   UNL     1     -10.164   4.531  66.550  1.00  0.00    -0.243 OA 
ENDBRANCH  14  15
ENDBRANCH  13  14
ENDBRANCH  12  13
BRANCH  12  29
HETATM   29  C   UNL     1     -13.770   9.282  72.104  1.00  0.00    -0.453 C  
HETATM   30  O   UNL     1     -14.350   8.627  70.975  1.00  0.00    -0.628 OA 
HETATM   31  H   UNL     1     -15.169   8.222  71.232  1.00  0.00     0.000 HD 
ENDBRANCH  12  29
ENDBRANCH  11  12
ENDBRANCH  10  11
ENDBRANCH   8  10
ENDBRANCH   4   8
TORSDOF 8
ENDMDL
MODEL      123
REMARK 921   NORMALIZED FREE ENERGY PREDICTED BY IDOCK:   -5.06 KCAL/MOL
REMARK 922        TOTAL FREE ENERGY PREDICTED BY IDOCK:   -8.64 KCAL/MOL
REMARK 923 INTER-LIGAND FREE ENERGY PREDICTED BY IDOCK:   -7.65 KCAL/MOL
REMARK 924 INTRA-LIGAND FREE ENERGY PREDICTED BY IDOCK:   -0.99 KCAL/MOL
REMARK 927      BINDING AFFINITY PREDICTED BY RF-SCORE:    0.00 PKD
ROOT
HETATM    1  C   UNL     1      -9.215   5.655  65.963  1.00  0.00    -0.164 C  
HETATM    2  C   UNL     1      -8.855   6.517  67.180  1.00  0.00    -0.110 C  
HETATM    3  C   UNL     1      -8.944   5.675  68.457  1.00  0.00    -0.115 C  
HETATM    4  C   UNL     1      -9.703   7.810  67.280  1.00  0.00    -0.171 C  
HETATM    5  N   UNL     1     -11.150   7.515  67.381  1.00  0.00    -0.541 NA 
HETATM    6  H1  UNL     1     -11.708   8.366  67.447  1.00  0.00     0.000 HD 
HETATM    7  H2  UNL     1     -11.347   6.882  68.156  1.00  0.00     0.000 HD 
ENDROOT
BRANCH   4   8
HETATM    8  C   UNL     1      -9.405   8.760  66.102  1.00  0.00    -0.234 C  
HETATM    9  O   UNL     1      -8.369   8.751  65.448  1.00  0.00    -0.133 OA 
BRANCH   8  10
HETATM   10  O   UNL     1     -10.412   9.667  65.920  1.00  0.00    -0.138 OA 
BRANCH  10  11
HETATM   11  C   UNL     1     -10.065  11.048  66.122  1.00  0.00    -0.237 C  
BRANCH  11  12
HETATM   12  C   UNL     1     -11.234  11.790  66.790  1.00  0.00    -0.328 C  
BRANCH  12  13
HETATM   13  O   UNL     1     -11.165  13.225  66.626  1.00  0.00    -0.293 OA 
BRANCH  13  14
HETATM   14  C   UNL     1     -10.326  13.623  65.543  1.00  0.00    -0.309 C  
BRANCH  14  15
HETATM   15  N   UNL     1     -10.521  15.033  65.289  1.00  0.00    -0.376 NA 
HETATM   16  C   UNL     1     -11.315  15.553  64.294  1.00  0.00    -0.155 A  
HETATM   17  N   UNL     1     -11.413  16.867  64.372  1.00  0.00    -0.995 NA 
HETATM   18  C   UNL     1     -10.654  17.213  65.468  1.00  0.00    -0.150 A  
HETATM   19  C   UNL     1     -10.104  16.087  66.028  1.00  0.00    -0.341 A  
HETATM   20  N   UNL     1      -9.334  16.135  67.121  1.00  0.00    -0.212 NA 
HETATM   21  C   UNL     1      -9.137  17.373  67.682  1.00  0.00    -0.234 C  
HETATM   22  N   UNL     1      -8.403  17.339  68.821  1.00  0.00    -0.256 NA 
HETATM   23  N   UNL     1      -9.609  18.502  67.238  1.00  0.00    -0.289 N  
HETATM   24  H2  UNL     1      -8.033  16.477  69.222  1.00  0.00     0.000 HD 
HETATM   25  H1  UNL     1      -8.256  18.258  69.238  1.00  0.00     0.000 HD 
HETATM   26  H   UNL     1      -9.403  19.369  67.733  1.00  0.00     0.000 HD 
HETATM   27  C   UNL     1     -10.400  18.527  66.082  1.00  0.00    -0.426 C  
HETATM   28  O   UNL     1     -10.855  19.565  65.619  1.00  0.00    -0.458 OA 
ENDBRANCH  14  15
ENDBRANCH  13  14
ENDBRANCH  12  13
BRANCH  12  29
HETATM   29  C   UNL     1     -11.257  11.499  68.298  1.00  0.00    -0.261 C  
HETATM   30  O   UNL     1     -11.974  10.286  68.537  1.00  0.00    -0.720 OA 
HETATM   31  H   UNL     1     -11.988  10.107  69.470  1.00  0.00     0.000 HD 
ENDBRANCH  12  29
ENDBRANCH  11  12
ENDBRANCH  10  11
ENDBRANCH   8  10
ENDBRANCH   4   8
TORSDOF 8
ENDMDL
MODEL      124
REMARK 921   NORMALIZED FREE ENERGY PREDICTED BY IDOCK:   -5.03 KCAL/MOL
REMARK 922        TOTAL FREE ENERGY PREDICTED BY IDOCK:   -8.60 KCAL/MOL
REMARK 923 INTER-LIGAND FREE ENERGY PREDICTED BY IDOCK:   -6.98 KCAL/MOL
REMARK 924 INTRA-LIGAND FREE ENERGY PREDICTED BY IDOCK:   -1.63 KCAL/MOL
REMARK 927      BINDING AFFINITY PREDICTED BY RF-SCORE:    0.00 PKD
ROOT
HETATM    1  C   UNL     1     -12.896  13.516  65.562  1.00  0.00    -0.406 C  
HETATM    2  C   UNL     1     -11.842  13.557  64.448  1.00  0.00    -0.455 C  
HETATM    3  C   UNL     1     -12.273  12.647  63.293  1.00  0.00    -0.512 C  
HETATM    4  C   UNL     1     -10.416  13.218  64.948  1.00  0.00    -0.371 C  
HETATM    5  N   UNL     1     -10.347  11.867  65.550  1.00  0.00    -0.254 NA 
HETATM    6  H1  UNL     1      -9.408  11.645  65.879  1.00  0.00     0.000 HD 
HETATM    7  H2  UNL     1     -10.691  11.156  64.905  1.00  0.00     0.000 HD 
ENDROOT
BRANCH   4   8
HETATM    8  C   UNL     1      -9.903  14.294  65.928  1.00  0.00    -0.298 C  
HETATM    9  O   UNL     1      -9.880  15.495  65.689  1.00  0.00    -0.334 OA 
BRANCH   8  10
HETATM   10  O   UNL     1      -9.406  13.736  67.073  1.00  0.00    -0.229 OA 
BRANCH  10  11
HETATM   11  C   UNL     1     -10.200  13.911  68.260  1.00  0.00    -0.247 C  
BRANCH  11  12
HETATM   12  C   UNL     1     -10.426  12.554  68.944  1.00  0.00    -0.080 C  
BRANCH  12  13
HETATM   13  O   UNL     1      -9.753  11.462  68.276  1.00  0.00    -0.187 OA 
BRANCH  13  14
HETATM   14  C   UNL     1      -8.862  10.747  69.130  1.00  0.00    -0.086 C  
BRANCH  14  15
HETATM   15  N   UNL     1      -9.146   9.333  69.032  1.00  0.00    -0.144 NA 
HETATM   16  C   UNL     1      -8.368   8.416  68.367  1.00  0.00    -0.131 A  
HETATM   17  N   UNL     1      -8.792   7.179  68.549  1.00  0.00    -0.126 NA 
HETATM   18  C   UNL     1      -9.890   7.300  69.372  1.00  0.00    -0.163 A  
HETATM   19  C   UNL     1     -10.109   8.623  69.665  1.00  0.00    -0.201 A  
HETATM   20  N   UNL     1     -11.105   9.023  70.463  1.00  0.00    -0.248 NA 
HETATM   21  C   UNL     1     -11.893   8.037  71.006  1.00  0.00    -0.263 C  
HETATM   22  N   UNL     1     -12.839   8.510  71.855  1.00  0.00    -0.345 NA 
HETATM   23  N   UNL     1     -11.775   6.758  70.799  1.00  0.00    -0.367 N  
HETATM   24  H2  UNL     1     -12.954   9.500  72.069  1.00  0.00     0.000 HD 
HETATM   25  H1  UNL     1     -13.425   7.778  72.258  1.00  0.00     0.000 HD 
HETATM   26  H   UNL     1     -12.416   6.108  71.254  1.00  0.00     0.000 HD 
HETATM   27  C   UNL     1     -10.772   6.273  69.951  1.00  0.00    -0.294 C  
HETATM   28  O   UNL     1     -10.630   5.079  69.714  1.00  0.00    -0.222 OA 
ENDBRANCH  14  15
ENDBRANCH  13  14
ENDBRANCH  12  13
BRANCH  12  29
HETATM   29  C   UNL     1     -11.925  12.218  68.980  1.00  0.00    -0.248 C  
HETATM   30  O   UNL     1     -12.173  11.068  68.168  1.00  0.00    -0.765 OA 
HETATM   31  H   UNL     1     -13.099  10.861  68.190  1.00  0.00     0.000 HD 
ENDBRANCH  12  29
ENDBRANCH  11  12
ENDBRANCH  10  11
ENDBRANCH   8  10
ENDBRANCH   4   8
TORSDOF 8
ENDMDL
MODEL      125
REMARK 921   NORMALIZED FREE ENERGY PREDICTED BY IDOCK:   -5.03 KCAL/MOL
REMARK 922        TOTAL FREE ENERGY PREDICTED BY IDOCK:   -8.60 KCAL/MOL
REMARK 923 INTER-LIGAND FREE ENERGY PREDICTED BY IDOCK:   -8.09 KCAL/MOL
REMARK 924 INTRA-LIGAND FREE ENERGY PREDICTED BY IDOCK:   -0.51 KCAL/MOL
REMARK 927      BINDING AFFINITY PREDICTED BY RF-SCORE:    0.00 PKD
ROOT
HETATM    1  C   UNL     1      -8.883   6.168  71.692  1.00  0.00    -0.138 C  
HETATM    2  C   UNL     1      -9.149   7.659  71.928  1.00  0.00    -0.158 C  
HETATM    3  C   UNL     1      -8.316   8.154  73.115  1.00  0.00    -0.266 C  
HETATM    4  C   UNL     1     -10.654   7.987  72.102  1.00  0.00    -0.272 C  
HETATM    5  N   UNL     1     -11.248   7.262  73.248  1.00  0.00    -0.587 NA 
HETATM    6  H1  UNL     1     -12.238   7.479  73.362  1.00  0.00     0.000 HD 
HETATM    7  H2  UNL     1     -10.729   7.438  74.108  1.00  0.00     0.000 HD 
ENDROOT
BRANCH   4   8
HETATM    8  C   UNL     1     -11.434   7.714  70.800  1.00  0.00    -0.277 C  
HETATM    9  O   UNL     1     -12.089   6.702  70.583  1.00  0.00    -0.394 OA 
BRANCH   8  10
HETATM   10  O   UNL     1     -11.247   8.710  69.883  1.00  0.00    -0.177 OA 
BRANCH  10  11
HETATM   11  C   UNL     1     -11.027  10.029  70.415  1.00  0.00    -0.320 C  
BRANCH  11  12
HETATM   12  C   UNL     1     -12.239  10.925  70.113  1.00  0.00    -0.343 C  
BRANCH  12  13
HETATM   13  O   UNL     1     -11.945  11.981  69.170  1.00  0.00    -0.305 OA 
BRANCH  13  14
HETATM   14  C   UNL     1     -11.295  11.511  67.990  1.00  0.00    -0.298 C  
BRANCH  14  15
HETATM   15  N   UNL     1     -11.262  12.576  67.014  1.00  0.00    -0.284 NA 
HETATM   16  C   UNL     1     -11.936  12.570  65.815  1.00  0.00    -0.420 A  
HETATM   17  N   UNL     1     -11.831  13.723  65.180  1.00  0.00    -0.336 NA 
HETATM   18  C   UNL     1     -11.060  14.511  66.005  1.00  0.00    -0.329 A  
HETATM   19  C   UNL     1     -10.707  13.805  67.129  1.00  0.00    -0.281 A  
HETATM   20  N   UNL     1      -9.971  14.342  68.108  1.00  0.00    -0.224 NA 
HETATM   21  C   UNL     1      -9.600  15.655  67.953  1.00  0.00    -0.206 C  
HETATM   22  N   UNL     1      -8.913  16.150  69.011  1.00  0.00    -0.239 NA 
HETATM   23  N   UNL     1      -9.878  16.416  66.934  1.00  0.00    -0.252 N  
HETATM   24  H2  UNL     1      -8.694  15.602  69.842  1.00  0.00     0.000 HD 
HETATM   25  H1  UNL     1      -8.637  17.126  68.896  1.00  0.00     0.000 HD 
HETATM   26  H   UNL     1      -9.554  17.383  66.918  1.00  0.00     0.000 HD 
HETATM   27  C   UNL     1     -10.622  15.910  65.861  1.00  0.00    -0.337 C  
HETATM   28  O   UNL     1     -10.897  16.583  64.875  1.00  0.00    -0.684 OA 
ENDBRANCH  14  15
ENDBRANCH  13  14
ENDBRANCH  12  13
BRANCH  12  29
HETATM   29  C   UNL     1     -12.744  11.588  71.404  1.00  0.00    -0.364 C  
HETATM   30  O   UNL     1     -13.414  10.614  72.207  1.00  0.00    -0.594 OA 
HETATM   31  H   UNL     1     -13.727  11.024  73.004  1.00  0.00     0.000 HD 
ENDBRANCH  12  29
ENDBRANCH  11  12
ENDBRANCH  10  11
ENDBRANCH   8  10
ENDBRANCH   4   8
TORSDOF 8
ENDMDL
MODEL      126
REMARK 921   NORMALIZED FREE ENERGY PREDICTED BY IDOCK:   -5.01 KCAL/MOL
REMARK 922        TOTAL FREE ENERGY PREDICTED BY IDOCK:   -8.57 KCAL/MOL
REMARK 923 INTER-LIGAND FREE ENERGY PREDICTED BY IDOCK:   -7.35 KCAL/MOL
REMARK 924 INTRA-LIGAND FREE ENERGY PREDICTED BY IDOCK:   -1.23 KCAL/MOL
REMARK 927      BINDING AFFINITY PREDICTED BY RF-SCORE:    0.00 PKD
ROOT
HETATM    1  C   UNL     1      -8.060  16.452  66.523  1.00  0.00    -0.345 C  
HETATM    2  C   UNL     1      -8.884  17.733  66.345  1.00  0.00    -0.256 C  
HETATM    3  C   UNL     1      -8.323  18.839  67.245  1.00  0.00    -0.281 C  
HETATM    4  C   UNL     1     -10.401  17.517  66.573  1.00  0.00    -0.325 C  
HETATM    5  N   UNL     1     -10.689  17.012  67.935  1.00  0.00    -0.362 NA 
HETATM    6  H1  UNL     1     -11.687  16.870  68.084  1.00  0.00     0.000 HD 
HETATM    7  H2  UNL     1     -10.290  17.621  68.648  1.00  0.00     0.000 HD 
ENDROOT
BRANCH   4   8
HETATM    8  C   UNL     1     -10.996  16.589  65.494  1.00  0.00    -0.092 C  
HETATM    9  O   UNL     1     -11.068  16.867  64.303  1.00  0.00    -1.135 OA 
BRANCH   8  10
HETATM   10  O   UNL     1     -11.504  15.444  66.040  1.00  0.00    -0.180 OA 
BRANCH  10  11
HETATM   11  C   UNL     1     -10.960  14.208  65.541  1.00  0.00    -0.310 C  
BRANCH  11  12
HETATM   12  C   UNL     1     -12.078  13.161  65.404  1.00  0.00    -0.433 C  
BRANCH  12  13
HETATM   13  O   UNL     1     -11.679  11.844  65.847  1.00  0.00    -0.424 OA 
BRANCH  13  14
HETATM   14  C   UNL     1     -11.351  10.968  64.771  1.00  0.00     0.290 C  
BRANCH  14  15
HETATM   15  N   UNL     1     -10.134  10.258  65.093  1.00  0.00    -0.314 NA 
HETATM   16  C   UNL     1      -8.892  10.544  64.575  1.00  0.00    -0.200 A  
HETATM   17  N   UNL     1      -7.940   9.826  65.140  1.00  0.00    -0.123 NA 
HETATM   18  C   UNL     1      -8.592   9.043  66.067  1.00  0.00    -0.142 A  
HETATM   19  C   UNL     1      -9.939   9.306  66.035  1.00  0.00    -0.255 A  
HETATM   20  N   UNL     1     -10.807   8.696  66.850  1.00  0.00    -0.069 NA 
HETATM   21  C   UNL     1     -10.282   7.802  67.751  1.00  0.00    -0.212 C  
HETATM   22  N   UNL     1     -11.208   7.271  68.586  1.00  0.00    -0.446 NA 
HETATM   23  N   UNL     1      -9.027   7.478  67.870  1.00  0.00    -0.132 N  
HETATM   24  H2  UNL     1     -12.198   7.513  68.550  1.00  0.00     0.000 HD 
HETATM   25  H1  UNL     1     -10.819   6.607  69.255  1.00  0.00     0.000 HD 
HETATM   26  H   UNL     1      -8.741   6.800  68.576  1.00  0.00     0.000 HD 
HETATM   27  C   UNL     1      -8.069   8.059  67.029  1.00  0.00    -0.116 C  
HETATM   28  O   UNL     1      -6.879   7.776  67.094  1.00  0.00    -0.065 OA 
ENDBRANCH  14  15
ENDBRANCH  13  14
ENDBRANCH  12  13
BRANCH  12  29
HETATM   29  C   UNL     1     -12.517  13.041  63.937  1.00  0.00    -0.296 C  
HETATM   30  O   UNL     1     -12.531  14.338  63.338  1.00  0.00    -1.125 OA 
HETATM   31  H   UNL     1     -12.803  14.263  62.431  1.00  0.00     0.000 HD 
ENDBRANCH  12  29
ENDBRANCH  11  12
ENDBRANCH  10  11
ENDBRANCH   8  10
ENDBRANCH   4   8
TORSDOF 8
ENDMDL
MODEL      127
REMARK 921   NORMALIZED FREE ENERGY PREDICTED BY IDOCK:   -5.01 KCAL/MOL
REMARK 922        TOTAL FREE ENERGY PREDICTED BY IDOCK:   -8.57 KCAL/MOL
REMARK 923 INTER-LIGAND FREE ENERGY PREDICTED BY IDOCK:   -7.16 KCAL/MOL
REMARK 924 INTRA-LIGAND FREE ENERGY PREDICTED BY IDOCK:   -1.41 KCAL/MOL
REMARK 927      BINDING AFFINITY PREDICTED BY RF-SCORE:    0.00 PKD
ROOT
HETATM    1  C   UNL     1      -8.489   5.578  70.415  1.00  0.00    -0.122 C  
HETATM    2  C   UNL     1      -9.450   5.312  71.580  1.00  0.00    -0.191 C  
HETATM    3  C   UNL     1      -9.916   3.853  71.545  1.00  0.00    -0.209 C  
HETATM    4  C   UNL     1     -10.644   6.299  71.620  1.00  0.00    -0.227 C  
HETATM    5  N   UNL     1     -11.451   6.240  70.380  1.00  0.00    -0.373 NA 
HETATM    6  H1  UNL     1     -12.237   6.889  70.407  1.00  0.00     0.000 HD 
HETATM    7  H2  UNL     1     -11.764   5.289  70.186  1.00  0.00     0.000 HD 
ENDROOT
BRANCH   4   8
HETATM    8  C   UNL     1     -10.165   7.736  71.908  1.00  0.00    -0.202 C  
HETATM    9  O   UNL     1      -9.702   8.112  72.978  1.00  0.00    -0.275 OA 
BRANCH   8  10
HETATM   10  O   UNL     1     -10.387   8.564  70.843  1.00  0.00    -0.190 OA 
BRANCH  10  11
HETATM   11  C   UNL     1      -9.281   9.390  70.440  1.00  0.00    -0.257 C  
BRANCH  11  12
HETATM   12  C   UNL     1      -9.602  10.081  69.105  1.00  0.00    -0.210 C  
BRANCH  12  13
HETATM   13  O   UNL     1     -10.217  11.380  69.271  1.00  0.00    -0.122 OA 
BRANCH  13  14
HETATM   14  C   UNL     1     -11.631  11.356  69.086  1.00  0.00    -0.314 C  
BRANCH  14  15
HETATM   15  N   UNL     1     -12.261  12.091  70.160  1.00  0.00    -0.267 NA 
HETATM   16  C   UNL     1     -12.850  11.524  71.265  1.00  0.00    -0.360 A  
HETATM   17  N   UNL     1     -13.229  12.430  72.147  1.00  0.00    -0.466 NA 
HETATM   18  C   UNL     1     -12.864  13.636  71.592  1.00  0.00    -0.338 A  
HETATM   19  C   UNL     1     -12.274  13.428  70.370  1.00  0.00    -0.345 A  
HETATM   20  N   UNL     1     -11.807  14.432  69.621  1.00  0.00    -0.302 NA 
HETATM   21  C   UNL     1     -11.921  15.697  70.145  1.00  0.00    -0.367 C  
HETATM   22  N   UNL     1     -11.369  16.657  69.362  1.00  0.00    -0.268 NA 
HETATM   23  N   UNL     1     -12.459  16.009  71.288  1.00  0.00    -0.569 N  
HETATM   24  H2  UNL     1     -10.914  16.459  68.472  1.00  0.00     0.000 HD 
HETATM   25  H1  UNL     1     -11.454  17.596  69.751  1.00  0.00     0.000 HD 
HETATM   26  H   UNL     1     -12.493  16.984  71.585  1.00  0.00     0.000 HD 
HETATM   27  C   UNL     1     -12.993  15.009  72.109  1.00  0.00    -0.342 C  
HETATM   28  O   UNL     1     -13.522  15.255  73.187  1.00  0.00    -0.474 OA 
ENDBRANCH  14  15
ENDBRANCH  13  14
ENDBRANCH  12  13
BRANCH  12  29
HETATM   29  C   UNL     1     -10.567   9.217  68.277  1.00  0.00    -0.189 C  
HETATM   30  O   UNL     1     -10.085   7.872  68.240  1.00  0.00    -0.182 OA 
HETATM   31  H   UNL     1     -10.681   7.339  67.728  1.00  0.00     0.000 HD 
ENDBRANCH  12  29
ENDBRANCH  11  12
ENDBRANCH  10  11
ENDBRANCH   8  10
ENDBRANCH   4   8
TORSDOF 8
ENDMDL
MODEL      128
REMARK 921   NORMALIZED FREE ENERGY PREDICTED BY IDOCK:   -5.01 KCAL/MOL
REMARK 922        TOTAL FREE ENERGY PREDICTED BY IDOCK:   -8.57 KCAL/MOL
REMARK 923 INTER-LIGAND FREE ENERGY PREDICTED BY IDOCK:   -7.50 KCAL/MOL
REMARK 924 INTRA-LIGAND FREE ENERGY PREDICTED BY IDOCK:   -1.06 KCAL/MOL
REMARK 927      BINDING AFFINITY PREDICTED BY RF-SCORE:    0.00 PKD
ROOT
HETATM    1  C   UNL     1     -14.406  15.186  71.207  1.00  0.00    -0.512 C  
HETATM    2  C   UNL     1     -13.113  14.431  71.537  1.00  0.00    -0.411 C  
HETATM    3  C   UNL     1     -12.987  14.255  73.053  1.00  0.00    -0.512 C  
HETATM    4  C   UNL     1     -11.851  15.092  70.926  1.00  0.00    -0.325 C  
HETATM    5  N   UNL     1     -11.668  16.481  71.405  1.00  0.00    -0.613 NA 
HETATM    6  H1  UNL     1     -10.837  16.915  71.003  1.00  0.00     0.000 HD 
HETATM    7  H2  UNL     1     -11.651  16.522  72.423  1.00  0.00     0.000 HD 
ENDROOT
BRANCH   4   8
HETATM    8  C   UNL     1     -11.886  15.031  69.385  1.00  0.00    -0.329 C  
HETATM    9  O   UNL     1     -11.673  15.986  68.647  1.00  0.00    -0.382 OA 
BRANCH   8  10
HETATM   10  O   UNL     1     -12.256  13.793  68.938  1.00  0.00    -0.344 OA 
BRANCH  10  11
HETATM   11  C   UNL     1     -11.202  12.967  68.413  1.00  0.00    -0.270 C  
BRANCH  11  12
HETATM   12  C   UNL     1     -11.560  12.501  66.992  1.00  0.00    -0.368 C  
BRANCH  12  13
HETATM   13  O   UNL     1     -11.512  11.064  66.837  1.00  0.00    -0.384 OA 
BRANCH  13  14
HETATM   14  C   UNL     1     -11.222  10.380  68.054  1.00  0.00    -0.272 C  
BRANCH  14  15
HETATM   15  N   UNL     1      -9.997   9.629  67.894  1.00  0.00    -0.158 NA 
HETATM   16  C   UNL     1      -8.756  10.042  68.319  1.00  0.00    -0.119 A  
HETATM   17  N   UNL     1      -7.839   9.107  68.161  1.00  0.00    -0.099 NA 
HETATM   18  C   UNL     1      -8.516   8.039  67.614  1.00  0.00    -0.131 A  
HETATM   19  C   UNL     1      -9.839   8.362  67.446  1.00  0.00    -0.191 A  
HETATM   20  N   UNL     1     -10.729   7.496  66.948  1.00  0.00    -0.328 NA 
HETATM   21  C   UNL     1     -10.261   6.244  66.633  1.00  0.00    -0.164 C  
HETATM   22  N   UNL     1     -11.228   5.401  66.196  1.00  0.00    -0.750 NA 
HETATM   23  N   UNL     1      -9.033   5.831  66.751  1.00  0.00    -0.116 N  
HETATM   24  H2  UNL     1     -12.208   5.670  66.111  1.00  0.00     0.000 HD 
HETATM   25  H1  UNL     1     -10.881   4.471  65.961  1.00  0.00     0.000 HD 
HETATM   26  H   UNL     1      -8.789   4.876  66.488  1.00  0.00     0.000 HD 
HETATM   27  C   UNL     1      -8.045   6.695  67.240  1.00  0.00    -0.121 C  
HETATM   28  O   UNL     1      -6.873   6.356  67.356  1.00  0.00    -0.064 OA 
ENDBRANCH  14  15
ENDBRANCH  13  14
ENDBRANCH  12  13
BRANCH  12  29
HETATM   29  C   UNL     1     -10.585  13.108  65.972  1.00  0.00    -0.281 C  
HETATM   30  O   UNL     1     -10.108  14.363  66.460  1.00  0.00    -0.262 OA 
HETATM   31  H   UNL     1      -9.505  14.738  65.828  1.00  0.00     0.000 HD 
ENDBRANCH  12  29
ENDBRANCH  11  12
ENDBRANCH  10  11
ENDBRANCH   8  10
ENDBRANCH   4   8
TORSDOF 8
ENDMDL
MODEL      129
REMARK 921   NORMALIZED FREE ENERGY PREDICTED BY IDOCK:   -5.00 KCAL/MOL
REMARK 922        TOTAL FREE ENERGY PREDICTED BY IDOCK:   -8.55 KCAL/MOL
REMARK 923 INTER-LIGAND FREE ENERGY PREDICTED BY IDOCK:   -7.63 KCAL/MOL
REMARK 924 INTRA-LIGAND FREE ENERGY PREDICTED BY IDOCK:   -0.92 KCAL/MOL
REMARK 927      BINDING AFFINITY PREDICTED BY RF-SCORE:    0.00 PKD
ROOT
HETATM    1  C   UNL     1     -14.342  14.338  71.960  1.00  0.00    -0.629 C  
HETATM    2  C   UNL     1     -12.816  14.413  72.094  1.00  0.00    -0.418 C  
HETATM    3  C   UNL     1     -12.398  15.832  72.491  1.00  0.00    -0.550 C  
HETATM    4  C   UNL     1     -12.071  13.925  70.825  1.00  0.00    -0.330 C  
HETATM    5  N   UNL     1     -12.433  14.722  69.631  1.00  0.00    -0.552 NA 
HETATM    6  H1  UNL     1     -11.943  14.401  68.797  1.00  0.00     0.000 HD 
HETATM    7  H2  UNL     1     -12.282  15.718  69.790  1.00  0.00     0.000 HD 
ENDROOT
BRANCH   4   8
HETATM    8  C   UNL     1     -12.309  12.420  70.588  1.00  0.00    -0.279 C  
HETATM    9  O   UNL     1     -12.690  11.634  71.446  1.00  0.00    -0.388 OA 
BRANCH   8  10
HETATM   10  O   UNL     1     -11.972  12.052  69.315  1.00  0.00    -0.302 OA 
BRANCH  10  11
HETATM   11  C   UNL     1     -10.611  11.629  69.116  1.00  0.00    -0.108 C  
BRANCH  11  12
HETATM   12  C   UNL     1     -10.525  10.700  67.895  1.00  0.00    -0.208 C  
BRANCH  12  13
HETATM   13  O   UNL     1      -9.940   9.413  68.200  1.00  0.00    -0.162 OA 
BRANCH  13  14
HETATM   14  C   UNL     1      -9.131   9.432  69.375  1.00  0.00    -0.161 C  
BRANCH  14  15
HETATM   15  N   UNL     1      -9.412   8.251  70.160  1.00  0.00    -0.166 NA 
HETATM   16  C   UNL     1      -8.472   7.335  70.571  1.00  0.00    -0.138 A  
HETATM   17  N   UNL     1      -8.984   6.428  71.382  1.00  0.00    -0.138 NA 
HETATM   18  C   UNL     1     -10.311   6.775  71.506  1.00  0.00    -0.208 A  
HETATM   19  C   UNL     1     -10.574   7.892  70.753  1.00  0.00    -0.214 A  
HETATM   20  N   UNL     1     -11.786   8.455  70.707  1.00  0.00    -0.222 NA 
HETATM   21  C   UNL     1     -12.764   7.876  71.478  1.00  0.00    -0.322 C  
HETATM   22  N   UNL     1     -13.947   8.536  71.434  1.00  0.00    -0.571 NA 
HETATM   23  N   UNL     1     -12.627   6.821  72.228  1.00  0.00    -0.541 N  
HETATM   24  H2  UNL     1     -14.097   9.380  70.883  1.00  0.00     0.000 HD 
HETATM   25  H1  UNL     1     -14.674   8.106  72.006  1.00  0.00     0.000 HD 
HETATM   26  H   UNL     1     -13.421   6.471  72.764  1.00  0.00     0.000 HD 
HETATM   27  C   UNL     1     -11.392   6.166  72.300  1.00  0.00    -0.300 C  
HETATM   28  O   UNL     1     -11.218   5.162  72.981  1.00  0.00    -0.286 OA 
ENDBRANCH  14  15
ENDBRANCH  13  14
ENDBRANCH  12  13
BRANCH  12  29
HETATM   29  C   UNL     1      -9.668  11.346  66.795  1.00  0.00    -0.198 C  
HETATM   30  O   UNL     1     -10.095  10.866  65.518  1.00  0.00    -0.242 OA 
HETATM   31  H   UNL     1      -9.565  11.265  64.838  1.00  0.00     0.000 HD 
ENDBRANCH  12  29
ENDBRANCH  11  12
ENDBRANCH  10  11
ENDBRANCH   8  10
ENDBRANCH   4   8
TORSDOF 8
ENDMDL
MODEL      130
REMARK 921   NORMALIZED FREE ENERGY PREDICTED BY IDOCK:   -4.98 KCAL/MOL
REMARK 922        TOTAL FREE ENERGY PREDICTED BY IDOCK:   -8.53 KCAL/MOL
REMARK 923 INTER-LIGAND FREE ENERGY PREDICTED BY IDOCK:   -7.59 KCAL/MOL
REMARK 924 INTRA-LIGAND FREE ENERGY PREDICTED BY IDOCK:   -0.94 KCAL/MOL
REMARK 927      BINDING AFFINITY PREDICTED BY RF-SCORE:    0.00 PKD
ROOT
HETATM    1  C   UNL     1     -10.743   7.025  67.287  1.00  0.00    -0.412 C  
HETATM    2  C   UNL     1      -9.238   7.195  67.524  1.00  0.00    -0.131 C  
HETATM    3  C   UNL     1      -8.483   7.038  66.200  1.00  0.00    -0.136 C  
HETATM    4  C   UNL     1      -8.684   6.248  68.619  1.00  0.00    -0.120 C  
HETATM    5  N   UNL     1      -8.904   4.824  68.281  1.00  0.00    -0.102 NA 
HETATM    6  H1  UNL     1      -8.540   4.201  69.002  1.00  0.00     0.000 HD 
HETATM    7  H2  UNL     1      -8.518   4.596  67.365  1.00  0.00     0.000 HD 
ENDROOT
BRANCH   4   8
HETATM    8  C   UNL     1      -9.278   6.594  70.001  1.00  0.00    -0.158 C  
HETATM    9  O   UNL     1     -10.070   5.887  70.612  1.00  0.00    -0.181 OA 
BRANCH   8  10
HETATM   10  O   UNL     1      -8.868   7.825  70.430  1.00  0.00    -0.143 OA 
BRANCH  10  11
HETATM   11  C   UNL     1      -9.707   8.469  71.406  1.00  0.00    -0.220 C  
BRANCH  11  12
HETATM   12  C   UNL     1     -10.943   9.070  70.717  1.00  0.00    -0.258 C  
BRANCH  12  13
HETATM   13  O   UNL     1     -10.922  10.516  70.673  1.00  0.00    -0.237 OA 
BRANCH  13  14
HETATM   14  C   UNL     1     -12.092  11.074  70.079  1.00  0.00    -0.364 C  
BRANCH  14  15
HETATM   15  N   UNL     1     -12.569  12.161  70.906  1.00  0.00    -0.308 NA 
HETATM   16  C   UNL     1     -13.293  12.012  72.064  1.00  0.00    -0.341 A  
HETATM   17  N   UNL     1     -13.483  13.162  72.683  1.00  0.00    -0.551 NA 
HETATM   18  C   UNL     1     -12.849  14.096  71.893  1.00  0.00    -0.341 A  
HETATM   19  C   UNL     1     -12.291  13.481  70.800  1.00  0.00    -0.363 A  
HETATM   20  N   UNL     1     -11.597  14.155  69.877  1.00  0.00    -0.271 NA 
HETATM   21  C   UNL     1     -11.442  15.504  70.086  1.00  0.00    -0.327 C  
HETATM   22  N   UNL     1     -10.675  16.110  69.147  1.00  0.00    -0.269 NA 
HETATM   23  N   UNL     1     -11.924  16.187  71.083  1.00  0.00    -0.588 N  
HETATM   24  H2  UNL     1     -10.254  15.613  68.362  1.00  0.00     0.000 HD 
HETATM   25  H1  UNL     1     -10.559  17.112  69.301  1.00  0.00     0.000 HD 
HETATM   26  H   UNL     1     -11.749  17.190  71.144  1.00  0.00     0.000 HD 
HETATM   27  C   UNL     1     -12.684  15.548  72.071  1.00  0.00    -0.411 C  
HETATM   28  O   UNL     1     -13.169  16.152  73.020  1.00  0.00    -0.488 OA 
ENDBRANCH  14  15
ENDBRANCH  13  14
ENDBRANCH  12  13
BRANCH  12  29
HETATM   29  C   UNL     1     -12.222   8.651  71.460  1.00  0.00    -0.318 C  
HETATM   30  O   UNL     1     -12.719   7.435  70.898  1.00  0.00    -0.552 OA 
HETATM   31  H   UNL     1     -13.510   7.176  71.357  1.00  0.00     0.000 HD 
ENDBRANCH  12  29
ENDBRANCH  11  12
ENDBRANCH  10  11
ENDBRANCH   8  10
ENDBRANCH   4   8
TORSDOF 8
ENDMDL
MODEL      131
REMARK 921   NORMALIZED FREE ENERGY PREDICTED BY IDOCK:   -4.98 KCAL/MOL
REMARK 922        TOTAL FREE ENERGY PREDICTED BY IDOCK:   -8.53 KCAL/MOL
REMARK 923 INTER-LIGAND FREE ENERGY PREDICTED BY IDOCK:   -7.85 KCAL/MOL
REMARK 924 INTRA-LIGAND FREE ENERGY PREDICTED BY IDOCK:   -0.68 KCAL/MOL
REMARK 927      BINDING AFFINITY PREDICTED BY RF-SCORE:    0.00 PKD
ROOT
HETATM    1  C   UNL     1     -10.256   4.378  66.156  1.00  0.00    -0.232 C  
HETATM    2  C   UNL     1      -9.231   5.519  66.158  1.00  0.00    -0.166 C  
HETATM    3  C   UNL     1      -7.872   4.997  65.681  1.00  0.00    -0.091 C  
HETATM    4  C   UNL     1      -9.126   6.238  67.526  1.00  0.00    -0.110 C  
HETATM    5  N   UNL     1      -8.731   5.310  68.610  1.00  0.00    -0.094 NA 
HETATM    6  H1  UNL     1      -8.661   5.784  69.510  1.00  0.00     0.000 HD 
HETATM    7  H2  UNL     1      -7.866   4.820  68.381  1.00  0.00     0.000 HD 
ENDROOT
BRANCH   4   8
HETATM    8  C   UNL     1     -10.439   6.972  67.868  1.00  0.00    -0.214 C  
HETATM    9  O   UNL     1     -11.222   6.622  68.743  1.00  0.00    -0.248 OA 
BRANCH   8  10
HETATM   10  O   UNL     1     -10.662   8.024  67.025  1.00  0.00    -0.328 OA 
BRANCH  10  11
HETATM   11  C   UNL     1     -10.034   9.268  67.382  1.00  0.00    -0.199 C  
BRANCH  11  12
HETATM   12  C   UNL     1     -11.055  10.194  68.062  1.00  0.00    -0.240 C  
BRANCH  12  13
HETATM   13  O   UNL     1     -11.573  11.215  67.178  1.00  0.00    -0.495 OA 
BRANCH  13  14
HETATM   14  C   UNL     1     -10.934  11.227  65.903  1.00  0.00    -0.157 C  
BRANCH  14  15
HETATM   15  N   UNL     1     -11.216  12.482  65.244  1.00  0.00    -0.295 NA 
HETATM   16  C   UNL     1     -12.264  12.703  64.382  1.00  0.00    -0.443 A  
HETATM   17  N   UNL     1     -12.360  13.972  64.030  1.00  0.00    -0.683 NA 
HETATM   18  C   UNL     1     -11.332  14.601  64.698  1.00  0.00    -0.369 A  
HETATM   19  C   UNL     1     -10.629  13.685  65.440  1.00  0.00    -0.317 A  
HETATM   20  N   UNL     1      -9.586  14.033  66.203  1.00  0.00    -0.272 NA 
HETATM   21  C   UNL     1      -9.263  15.367  66.234  1.00  0.00    -0.319 C  
HETATM   22  N   UNL     1      -8.241  15.655  67.076  1.00  0.00    -0.212 NA 
HETATM   23  N   UNL     1      -9.859  16.318  65.574  1.00  0.00    -0.202 N  
HETATM   24  H2  UNL     1      -7.759  14.950  67.633  1.00  0.00     0.000 HD 
HETATM   25  H1  UNL     1      -8.000  16.646  67.099  1.00  0.00     0.000 HD 
HETATM   26  H   UNL     1      -9.539  17.281  65.669  1.00  0.00     0.000 HD 
HETATM   27  C   UNL     1     -10.940  16.020  64.735  1.00  0.00    -0.356 C  
HETATM   28  O   UNL     1     -11.524  16.878  64.084  1.00  0.00    -1.174 OA 
ENDBRANCH  14  15
ENDBRANCH  13  14
ENDBRANCH  12  13
BRANCH  12  29
HETATM   29  C   UNL     1     -10.412  10.907  69.261  1.00  0.00    -0.202 C  
HETATM   30  O   UNL     1     -11.395  11.708  69.921  1.00  0.00    -0.428 OA 
HETATM   31  H   UNL     1     -10.997  12.149  70.662  1.00  0.00     0.000 HD 
ENDBRANCH  12  29
ENDBRANCH  11  12
ENDBRANCH  10  11
ENDBRANCH   8  10
ENDBRANCH   4   8
TORSDOF 8
ENDMDL
MODEL      132
REMARK 921   NORMALIZED FREE ENERGY PREDICTED BY IDOCK:   -4.98 KCAL/MOL
REMARK 922        TOTAL FREE ENERGY PREDICTED BY IDOCK:   -8.52 KCAL/MOL
REMARK 923 INTER-LIGAND FREE ENERGY PREDICTED BY IDOCK:   -7.78 KCAL/MOL
REMARK 924 INTRA-LIGAND FREE ENERGY PREDICTED BY IDOCK:   -0.75 KCAL/MOL
REMARK 927      BINDING AFFINITY PREDICTED BY RF-SCORE:    0.00 PKD
ROOT
HETATM    1  C   UNL     1      -9.195   9.578  70.415  1.00  0.00    -0.305 C  
HETATM    2  C   UNL     1     -10.133  10.301  69.441  1.00  0.00    -0.255 C  
HETATM    3  C   UNL     1     -11.344  10.852  70.201  1.00  0.00    -0.367 C  
HETATM    4  C   UNL     1     -10.558   9.421  68.239  1.00  0.00    -0.210 C  
HETATM    5  N   UNL     1     -11.260   8.193  68.674  1.00  0.00    -0.194 NA 
HETATM    6  H1  UNL     1     -11.540   7.614  67.882  1.00  0.00     0.000 HD 
HETATM    7  H2  UNL     1     -12.058   8.413  69.270  1.00  0.00     0.000 HD 
ENDROOT
BRANCH   4   8
HETATM    8  C   UNL     1      -9.347   9.086  67.343  1.00  0.00    -0.139 C  
HETATM    9  O   UNL     1      -8.568   8.162  67.546  1.00  0.00    -0.128 OA 
BRANCH   8  10
HETATM   10  O   UNL     1      -9.203   9.993  66.331  1.00  0.00    -0.149 OA 
BRANCH  10  11
HETATM   11  C   UNL     1     -10.244  10.007  65.339  1.00  0.00    -0.156 C  
BRANCH  11  12
HETATM   12  C   UNL     1     -10.057  11.208  64.399  1.00  0.00    -0.320 C  
BRANCH  12  13
HETATM   13  O   UNL     1     -11.236  12.040  64.297  1.00  0.00    -0.319 OA 
BRANCH  13  14
HETATM   14  C   UNL     1     -10.947  13.433  64.396  1.00  0.00    -0.395 C  
BRANCH  14  15
HETATM   15  N   UNL     1     -11.311  13.898  65.716  1.00  0.00    -0.303 NA 
HETATM   16  C   UNL     1     -11.917  13.132  66.683  1.00  0.00    -0.389 A  
HETATM   17  N   UNL     1     -12.016  13.771  67.834  1.00  0.00    -0.372 NA 
HETATM   18  C   UNL     1     -11.444  15.003  67.603  1.00  0.00    -0.333 A  
HETATM   19  C   UNL     1     -11.015  15.082  66.301  1.00  0.00    -0.338 A  
HETATM   20  N   UNL     1     -10.404  16.167  65.814  1.00  0.00    -0.362 NA 
HETATM   21  C   UNL     1     -10.197  17.203  66.691  1.00  0.00    -0.319 C  
HETATM   22  N   UNL     1      -9.515  18.242  66.148  1.00  0.00    -0.502 NA 
HETATM   23  N   UNL     1     -10.559  17.236  67.941  1.00  0.00    -0.379 N  
HETATM   24  H2  UNL     1      -9.188  18.252  65.182  1.00  0.00     0.000 HD 
HETATM   25  H1  UNL     1      -9.362  19.012  66.799  1.00  0.00     0.000 HD 
HETATM   26  H   UNL     1     -10.355  18.059  68.508  1.00  0.00     0.000 HD 
HETATM   27  C   UNL     1     -11.228  16.145  68.507  1.00  0.00    -0.365 C  
HETATM   28  O   UNL     1     -11.601  16.135  69.674  1.00  0.00    -0.312 OA 
ENDBRANCH  14  15
ENDBRANCH  13  14
ENDBRANCH  12  13
BRANCH  12  29
HETATM   29  C   UNL     1      -9.709  10.726  62.982  1.00  0.00    -0.340 C  
HETATM   30  O   UNL     1      -8.720  11.589  62.416  1.00  0.00    -0.530 OA 
HETATM   31  H   UNL     1      -8.505  11.291  61.540  1.00  0.00     0.000 HD 
ENDBRANCH  12  29
ENDBRANCH  11  12
ENDBRANCH  10  11
ENDBRANCH   8  10
ENDBRANCH   4   8
TORSDOF 8
ENDMDL
MODEL      133
REMARK 921   NORMALIZED FREE ENERGY PREDICTED BY IDOCK:   -4.97 KCAL/MOL
REMARK 922        TOTAL FREE ENERGY PREDICTED BY IDOCK:   -8.52 KCAL/MOL
REMARK 923 INTER-LIGAND FREE ENERGY PREDICTED BY IDOCK:   -6.63 KCAL/MOL
REMARK 924 INTRA-LIGAND FREE ENERGY PREDICTED BY IDOCK:   -1.89 KCAL/MOL
REMARK 927      BINDING AFFINITY PREDICTED BY RF-SCORE:    0.00 PKD
ROOT
HETATM    1  C   UNL     1     -12.778  13.426  65.499  1.00  0.00    -0.469 C  
HETATM    2  C   UNL     1     -12.070  13.594  64.149  1.00  0.00    -0.484 C  
HETATM    3  C   UNL     1     -12.404  12.408  63.238  1.00  0.00    -0.497 C  
HETATM    4  C   UNL     1     -10.540  13.803  64.287  1.00  0.00    -0.150 C  
HETATM    5  N   UNL     1      -9.887  12.665  64.973  1.00  0.00    -0.476 NA 
HETATM    6  H1  UNL     1      -8.880  12.803  65.064  1.00  0.00     0.000 HD 
HETATM    7  H2  UNL     1     -10.099  11.782  64.511  1.00  0.00     0.000 HD 
ENDROOT
BRANCH   4   8
HETATM    8  C   UNL     1     -10.226  15.138  64.993  1.00  0.00    -0.297 C  
HETATM    9  O   UNL     1     -10.763  16.207  64.728  1.00  0.00    -0.648 OA 
BRANCH   8  10
HETATM   10  O   UNL     1      -9.219  14.999  65.906  1.00  0.00    -0.280 OA 
BRANCH  10  11
HETATM   11  C   UNL     1      -9.573  15.226  67.282  1.00  0.00    -0.211 C  
BRANCH  11  12
HETATM   12  C   UNL     1      -9.232  13.984  68.123  1.00  0.00    -0.196 C  
BRANCH  12  13
HETATM   13  O   UNL     1      -8.476  12.993  67.390  1.00  0.00    -0.180 OA 
BRANCH  13  14
HETATM   14  C   UNL     1      -7.544  12.286  68.206  1.00  0.00    -0.133 C  
BRANCH  14  15
HETATM   15  N   UNL     1      -7.987  10.917  68.350  1.00  0.00    -0.120 NA 
HETATM   16  C   UNL     1      -8.088  10.241  69.543  1.00  0.00    -0.162 A  
HETATM   17  N   UNL     1      -8.641   9.052  69.396  1.00  0.00    -0.133 NA 
HETATM   18  C   UNL     1      -8.914   8.954  68.049  1.00  0.00    -0.140 A  
HETATM   19  C   UNL     1      -8.508  10.098  67.407  1.00  0.00    -0.122 A  
HETATM   20  N   UNL     1      -8.673  10.276  66.092  1.00  0.00    -0.148 NA 
HETATM   21  C   UNL     1      -9.297   9.263  65.406  1.00  0.00    -0.226 C  
HETATM   22  N   UNL     1      -9.488   9.539  64.093  1.00  0.00    -0.386 NA 
HETATM   23  N   UNL     1      -9.722   8.141  65.911  1.00  0.00    -0.447 N  
HETATM   24  H2  UNL     1      -9.197  10.413  63.656  1.00  0.00     0.000 HD 
HETATM   25  H1  UNL     1      -9.952   8.787  63.583  1.00  0.00     0.000 HD 
HETATM   26  H   UNL     1     -10.175   7.452  65.311  1.00  0.00     0.000 HD 
HETATM   27  C   UNL     1      -9.556   7.878  67.276  1.00  0.00    -0.159 C  
HETATM   28  O   UNL     1      -9.927   6.832  67.795  1.00  0.00    -0.129 OA 
ENDBRANCH  14  15
ENDBRANCH  13  14
ENDBRANCH  12  13
BRANCH  12  29
HETATM   29  C   UNL     1     -10.519  13.308  68.620  1.00  0.00    -0.228 C  
HETATM   30  O   UNL     1     -10.804  12.171  67.802  1.00  0.00    -0.210 OA 
HETATM   31  H   UNL     1     -11.599  11.753  68.109  1.00  0.00     0.000 HD 
ENDBRANCH  12  29
ENDBRANCH  11  12
ENDBRANCH  10  11
ENDBRANCH   8  10
ENDBRANCH   4   8
TORSDOF 8
ENDMDL
MODEL      134
REMARK 921   NORMALIZED FREE ENERGY PREDICTED BY IDOCK:   -4.97 KCAL/MOL
REMARK 922        TOTAL FREE ENERGY PREDICTED BY IDOCK:   -8.51 KCAL/MOL
REMARK 923 INTER-LIGAND FREE ENERGY PREDICTED BY IDOCK:   -7.43 KCAL/MOL
REMARK 924 INTRA-LIGAND FREE ENERGY PREDICTED BY IDOCK:   -1.09 KCAL/MOL
REMARK 927      BINDING AFFINITY PREDICTED BY RF-SCORE:    0.00 PKD
ROOT
HETATM    1  C   UNL     1     -12.259   7.240  71.062  1.00  0.00    -0.350 C  
HETATM    2  C   UNL     1     -12.058   8.545  71.841  1.00  0.00    -0.411 C  
HETATM    3  C   UNL     1     -13.395   9.011  72.426  1.00  0.00    -0.516 C  
HETATM    4  C   UNL     1     -11.376   9.655  71.001  1.00  0.00    -0.374 C  
HETATM    5  N   UNL     1     -12.163   9.996  69.794  1.00  0.00    -0.478 NA 
HETATM    6  H1  UNL     1     -11.714  10.727  69.242  1.00  0.00     0.000 HD 
HETATM    7  H2  UNL     1     -13.121  10.250  70.035  1.00  0.00     0.000 HD 
ENDROOT
BRANCH   4   8
HETATM    8  C   UNL     1      -9.930   9.263  70.635  1.00  0.00    -0.273 C  
HETATM    9  O   UNL     1      -8.989   9.270  71.419  1.00  0.00    -0.311 OA 
BRANCH   8  10
HETATM   10  O   UNL     1      -9.809   8.973  69.304  1.00  0.00    -0.171 OA 
BRANCH  10  11
HETATM   11  C   UNL     1      -8.697   9.580  68.622  1.00  0.00    -0.127 C  
BRANCH  11  12
HETATM   12  C   UNL     1      -9.044  11.027  68.237  1.00  0.00    -0.158 C  
BRANCH  12  13
HETATM   13  O   UNL     1      -9.421  11.170  66.848  1.00  0.00    -0.181 OA 
BRANCH  13  14
HETATM   14  C   UNL     1     -10.720  11.733  66.677  1.00  0.00    -0.263 C  
BRANCH  14  15
HETATM   15  N   UNL     1     -10.610  13.174  66.640  1.00  0.00    -0.277 NA 
HETATM   16  C   UNL     1     -10.410  13.922  65.504  1.00  0.00    -0.333 A  
HETATM   17  N   UNL     1     -10.478  15.218  65.742  1.00  0.00    -0.324 NA 
HETATM   18  C   UNL     1     -10.739  15.314  67.092  1.00  0.00    -0.316 A  
HETATM   19  C   UNL     1     -10.815  14.060  67.643  1.00  0.00    -0.262 A  
HETATM   20  N   UNL     1     -11.078  13.863  68.939  1.00  0.00    -0.257 NA 
HETATM   21  C   UNL     1     -11.298  14.985  69.701  1.00  0.00    -0.286 C  
HETATM   22  N   UNL     1     -11.622  14.708  70.988  1.00  0.00    -0.475 NA 
HETATM   23  N   UNL     1     -11.252  16.217  69.284  1.00  0.00    -0.332 N  
HETATM   24  H2  UNL     1     -11.696  13.759  71.354  1.00  0.00     0.000 HD 
HETATM   25  H1  UNL     1     -11.785  15.541  71.554  1.00  0.00     0.000 HD 
HETATM   26  H   UNL     1     -11.433  16.981  69.935  1.00  0.00     0.000 HD 
HETATM   27  C   UNL     1     -10.954  16.495  67.945  1.00  0.00    -0.288 C  
HETATM   28  O   UNL     1     -10.886  17.638  67.509  1.00  0.00    -0.325 OA 
ENDBRANCH  14  15
ENDBRANCH  13  14
ENDBRANCH  12  13
BRANCH  12  29
HETATM   29  C   UNL     1      -7.838  11.946  68.484  1.00  0.00    -0.136 C  
HETATM   30  O   UNL     1      -6.990  11.361  69.474  1.00  0.00    -0.201 OA 
HETATM   31  H   UNL     1      -6.245  11.930  69.627  1.00  0.00     0.000 HD 
ENDBRANCH  12  29
ENDBRANCH  11  12
ENDBRANCH  10  11
ENDBRANCH   8  10
ENDBRANCH   4   8
TORSDOF 8
ENDMDL
MODEL      135
REMARK 921   NORMALIZED FREE ENERGY PREDICTED BY IDOCK:   -4.97 KCAL/MOL
REMARK 922        TOTAL FREE ENERGY PREDICTED BY IDOCK:   -8.51 KCAL/MOL
REMARK 923 INTER-LIGAND FREE ENERGY PREDICTED BY IDOCK:   -7.81 KCAL/MOL
REMARK 924 INTRA-LIGAND FREE ENERGY PREDICTED BY IDOCK:   -0.70 KCAL/MOL
REMARK 927      BINDING AFFINITY PREDICTED BY RF-SCORE:    0.00 PKD
ROOT
HETATM    1  C   UNL     1     -12.448  14.810  73.528  1.00  0.00    -0.514 C  
HETATM    2  C   UNL     1     -11.947  14.563  72.100  1.00  0.00    -0.176 C  
HETATM    3  C   UNL     1     -11.475  15.882  71.481  1.00  0.00    -0.484 C  
HETATM    4  C   UNL     1     -12.991  13.847  71.205  1.00  0.00    -0.341 C  
HETATM    5  N   UNL     1     -14.245  14.624  71.088  1.00  0.00    -0.519 NA 
HETATM    6  H1  UNL     1     -14.931  14.152  70.499  1.00  0.00     0.000 HD 
HETATM    7  H2  UNL     1     -14.064  15.572  70.759  1.00  0.00     0.000 HD 
ENDROOT
BRANCH   4   8
HETATM    8  C   UNL     1     -13.264  12.415  71.712  1.00  0.00    -0.334 C  
HETATM    9  O   UNL     1     -14.254  12.083  72.352  1.00  0.00     0.266 OA 
BRANCH   8  10
HETATM   10  O   UNL     1     -12.228  11.573  71.421  1.00  0.00    -0.191 OA 
BRANCH  10  11
HETATM   11  C   UNL     1     -12.267  10.940  70.129  1.00  0.00    -0.343 C  
BRANCH  11  12
HETATM   12  C   UNL     1     -10.845  10.554  69.692  1.00  0.00    -0.274 C  
BRANCH  12  13
HETATM   13  O   UNL     1     -10.415  11.236  68.490  1.00  0.00    -0.181 OA 
BRANCH  13  14
HETATM   14  C   UNL     1     -10.236  12.638  68.678  1.00  0.00    -0.154 C  
BRANCH  14  15
HETATM   15  N   UNL     1     -10.939  13.348  67.632  1.00  0.00    -0.254 NA 
HETATM   16  C   UNL     1     -11.498  14.597  67.765  1.00  0.00    -0.340 A  
HETATM   17  N   UNL     1     -11.962  15.058  66.618  1.00  0.00    -0.082 NA 
HETATM   18  C   UNL     1     -11.687  14.067  65.702  1.00  0.00    -0.354 A  
HETATM   19  C   UNL     1     -11.063  13.016  66.327  1.00  0.00    -0.289 A  
HETATM   20  N   UNL     1     -10.667  11.923  65.664  1.00  0.00    -0.271 NA 
HETATM   21  C   UNL     1     -10.890  11.910  64.309  1.00  0.00    -0.344 C  
HETATM   22  N   UNL     1     -10.406  10.803  63.693  1.00  0.00    -0.508 NA 
HETATM   23  N   UNL     1     -11.470  12.847  63.616  1.00  0.00    -0.549 N  
HETATM   24  H2  UNL     1      -9.922  10.054  64.188  1.00  0.00     0.000 HD 
HETATM   25  H1  UNL     1     -10.572  10.793  62.687  1.00  0.00     0.000 HD 
HETATM   26  H   UNL     1     -11.586  12.738  62.609  1.00  0.00     0.000 HD 
HETATM   27  C   UNL     1     -11.934  14.005  64.252  1.00  0.00    -0.435 C  
HETATM   28  O   UNL     1     -12.497  14.908  63.645  1.00  0.00    -0.699 OA 
ENDBRANCH  14  15
ENDBRANCH  13  14
ENDBRANCH  12  13
BRANCH  12  29
HETATM   29  C   UNL     1     -10.763   9.045  69.419  1.00  0.00    -0.191 C  
HETATM   30  O   UNL     1     -11.099   8.329  70.610  1.00  0.00    -0.249 OA 
HETATM   31  H   UNL     1     -11.048   7.395  70.441  1.00  0.00     0.000 HD 
ENDBRANCH  12  29
ENDBRANCH  11  12
ENDBRANCH  10  11
ENDBRANCH   8  10
ENDBRANCH   4   8
TORSDOF 8
ENDMDL
MODEL      136
REMARK 921   NORMALIZED FREE ENERGY PREDICTED BY IDOCK:   -4.92 KCAL/MOL
REMARK 922        TOTAL FREE ENERGY PREDICTED BY IDOCK:   -8.43 KCAL/MOL
REMARK 923 INTER-LIGAND FREE ENERGY PREDICTED BY IDOCK:   -7.29 KCAL/MOL
REMARK 924 INTRA-LIGAND FREE ENERGY PREDICTED BY IDOCK:   -1.14 KCAL/MOL
REMARK 927      BINDING AFFINITY PREDICTED BY RF-SCORE:    0.00 PKD
ROOT
HETATM    1  C   UNL     1     -11.630  15.217  72.273  1.00  0.00    -0.530 C  
HETATM    2  C   UNL     1     -12.425  15.263  70.963  1.00  0.00    -0.444 C  
HETATM    3  C   UNL     1     -13.909  15.009  71.247  1.00  0.00    -0.528 C  
HETATM    4  C   UNL     1     -11.871  14.301  69.882  1.00  0.00    -0.322 C  
HETATM    5  N   UNL     1     -11.882  12.893  70.337  1.00  0.00    -0.546 NA 
HETATM    6  H1  UNL     1     -11.518  12.260  69.626  1.00  0.00     0.000 HD 
HETATM    7  H2  UNL     1     -12.813  12.609  70.643  1.00  0.00     0.000 HD 
ENDROOT
BRANCH   4   8
HETATM    8  C   UNL     1     -10.461  14.731  69.428  1.00  0.00    -0.199 C  
HETATM    9  O   UNL     1      -9.906  15.767  69.776  1.00  0.00    -0.273 OA 
BRANCH   8  10
HETATM   10  O   UNL     1      -9.931  13.850  68.528  1.00  0.00    -0.226 OA 
BRANCH  10  11
HETATM   11  C   UNL     1      -9.761  14.339  67.185  1.00  0.00    -0.254 C  
BRANCH  11  12
HETATM   12  C   UNL     1     -10.741  13.627  66.240  1.00  0.00    -0.285 C  
BRANCH  12  13
HETATM   13  O   UNL     1     -10.092  12.692  65.347  1.00  0.00    -0.280 OA 
BRANCH  13  14
HETATM   14  C   UNL     1     -10.390  11.331  65.651  1.00  0.00    -0.256 C  
BRANCH  14  15
HETATM   15  N   UNL     1      -9.528  10.887  66.723  1.00  0.00    -0.175 NA 
HETATM   16  C   UNL     1      -8.158  10.995  66.731  1.00  0.00    -0.151 A  
HETATM   17  N   UNL     1      -7.637  10.630  67.887  1.00  0.00    -0.091 NA 
HETATM   18  C   UNL     1      -8.717  10.273  68.664  1.00  0.00    -0.133 A  
HETATM   19  C   UNL     1      -9.877  10.427  67.947  1.00  0.00    -0.154 A  
HETATM   20  N   UNL     1     -11.081  10.168  68.471  1.00  0.00    -0.237 NA 
HETATM   21  C   UNL     1     -11.108   9.762  69.782  1.00  0.00    -0.237 C  
HETATM   22  N   UNL     1     -12.361   9.581  70.265  1.00  0.00    -0.456 NA 
HETATM   23  N   UNL     1     -10.074   9.584  70.553  1.00  0.00    -0.270 N  
HETATM   24  H2  UNL     1     -13.203   9.732  69.709  1.00  0.00     0.000 HD 
HETATM   25  H1  UNL     1     -12.382   9.278  71.239  1.00  0.00     0.000 HD 
HETATM   26  H   UNL     1     -10.205   9.279  71.517  1.00  0.00     0.000 HD 
HETATM   27  C   UNL     1      -8.783   9.810  70.060  1.00  0.00    -0.209 C  
HETATM   28  O   UNL     1      -7.779   9.643  70.742  1.00  0.00    -0.283 OA 
ENDBRANCH  14  15
ENDBRANCH  13  14
ENDBRANCH  12  13
BRANCH  12  29
HETATM   29  C   UNL     1     -11.483  14.654  65.371  1.00  0.00    -0.352 C  
HETATM   30  O   UNL     1     -10.634  15.780  65.139  1.00  0.00    -0.403 OA 
HETATM   31  H   UNL     1     -11.093  16.416  64.602  1.00  0.00     0.000 HD 
ENDBRANCH  12  29
ENDBRANCH  11  12
ENDBRANCH  10  11
ENDBRANCH   8  10
ENDBRANCH   4   8
TORSDOF 8
ENDMDL
MODEL      137
REMARK 921   NORMALIZED FREE ENERGY PREDICTED BY IDOCK:   -4.91 KCAL/MOL
REMARK 922        TOTAL FREE ENERGY PREDICTED BY IDOCK:   -8.43 KCAL/MOL
REMARK 923 INTER-LIGAND FREE ENERGY PREDICTED BY IDOCK:   -7.28 KCAL/MOL
REMARK 924 INTRA-LIGAND FREE ENERGY PREDICTED BY IDOCK:   -1.15 KCAL/MOL
REMARK 927      BINDING AFFINITY PREDICTED BY RF-SCORE:    0.00 PKD
ROOT
HETATM    1  C   UNL     1     -12.068   7.431  70.656  1.00  0.00    -0.167 C  
HETATM    2  C   UNL     1     -10.994   8.418  71.128  1.00  0.00    -0.292 C  
HETATM    3  C   UNL     1     -10.713   8.206  72.619  1.00  0.00    -0.421 C  
HETATM    4  C   UNL     1     -11.343   9.894  70.811  1.00  0.00    -0.353 C  
HETATM    5  N   UNL     1     -12.613  10.311  71.448  1.00  0.00    -0.396 NA 
HETATM    6  H1  UNL     1     -12.842  11.282  71.239  1.00  0.00     0.000 HD 
HETATM    7  H2  UNL     1     -12.596  10.142  72.454  1.00  0.00     0.000 HD 
ENDROOT
BRANCH   4   8
HETATM    8  C   UNL     1     -11.373  10.141  69.288  1.00  0.00    -0.156 C  
HETATM    9  O   UNL     1     -12.246  10.773  68.705  1.00  0.00    -0.472 OA 
BRANCH   8  10
HETATM   10  O   UNL     1     -10.342   9.506  68.655  1.00  0.00    -0.192 OA 
BRANCH  10  11
HETATM   11  C   UNL     1     -10.637   8.952  67.361  1.00  0.00    -0.235 C  
BRANCH  11  12
HETATM   12  C   UNL     1      -9.701   9.560  66.304  1.00  0.00    -0.245 C  
BRANCH  12  13
HETATM   13  O   UNL     1     -10.405  10.079  65.152  1.00  0.00    -0.215 OA 
BRANCH  13  14
HETATM   14  C   UNL     1      -9.956  11.374  64.759  1.00  0.00    -0.267 C  
BRANCH  14  15
HETATM   15  N   UNL     1     -10.641  12.372  65.550  1.00  0.00    -0.267 NA 
HETATM   16  C   UNL     1     -11.956  12.740  65.389  1.00  0.00    -0.436 A  
HETATM   17  N   UNL     1     -12.356  13.576  66.329  1.00  0.00    -0.408 NA 
HETATM   18  C   UNL     1     -11.254  13.753  67.136  1.00  0.00    -0.311 A  
HETATM   19  C   UNL     1     -10.200  13.017  66.655  1.00  0.00    -0.257 A  
HETATM   20  N   UNL     1      -9.009  12.992  67.262  1.00  0.00    -0.203 NA 
HETATM   21  C   UNL     1      -8.891  13.724  68.418  1.00  0.00    -0.165 C  
HETATM   22  N   UNL     1      -7.679  13.602  69.013  1.00  0.00    -0.325 NA 
HETATM   23  N   UNL     1      -9.820  14.454  68.963  1.00  0.00    -0.375 N  
HETATM   24  H2  UNL     1      -6.928  13.022  68.639  1.00  0.00     0.000 HD 
HETATM   25  H1  UNL     1      -7.591  14.145  69.871  1.00  0.00     0.000 HD 
HETATM   26  H   UNL     1      -9.628  14.960  69.827  1.00  0.00     0.000 HD 
HETATM   27  C   UNL     1     -11.083  14.547  68.364  1.00  0.00    -0.256 C  
HETATM   28  O   UNL     1     -11.984  15.232  68.832  1.00  0.00    -0.322 OA 
ENDBRANCH  14  15
ENDBRANCH  13  14
ENDBRANCH  12  13
BRANCH  12  29
HETATM   29  C   UNL     1      -8.708   8.502  65.800  1.00  0.00    -0.179 C  
HETATM   30  O   UNL     1      -9.403   7.276  65.559  1.00  0.00    -0.367 OA 
HETATM   31  H   UNL     1      -8.789   6.622  65.247  1.00  0.00     0.000 HD 
ENDBRANCH  12  29
ENDBRANCH  11  12
ENDBRANCH  10  11
ENDBRANCH   8  10
ENDBRANCH   4   8
TORSDOF 8
ENDMDL
MODEL      138
REMARK 921   NORMALIZED FREE ENERGY PREDICTED BY IDOCK:   -4.91 KCAL/MOL
REMARK 922        TOTAL FREE ENERGY PREDICTED BY IDOCK:   -8.42 KCAL/MOL
REMARK 923 INTER-LIGAND FREE ENERGY PREDICTED BY IDOCK:   -7.36 KCAL/MOL
REMARK 924 INTRA-LIGAND FREE ENERGY PREDICTED BY IDOCK:   -1.06 KCAL/MOL
REMARK 927      BINDING AFFINITY PREDICTED BY RF-SCORE:    0.00 PKD
ROOT
HETATM    1  C   UNL     1     -11.880  12.109  64.219  1.00  0.00    -0.460 C  
HETATM    2  C   UNL     1     -12.142  13.202  65.263  1.00  0.00    -0.471 C  
HETATM    3  C   UNL     1     -12.151  14.575  64.585  1.00  0.00    -0.486 C  
HETATM    4  C   UNL     1     -11.153  13.153  66.455  1.00  0.00    -0.294 C  
HETATM    5  N   UNL     1      -9.749  13.312  66.015  1.00  0.00    -0.410 NA 
HETATM    6  H1  UNL     1      -9.098  13.280  66.800  1.00  0.00     0.000 HD 
HETATM    7  H2  UNL     1      -9.626  14.164  65.467  1.00  0.00     0.000 HD 
ENDROOT
BRANCH   4   8
HETATM    8  C   UNL     1     -11.339  11.860  67.276  1.00  0.00    -0.329 C  
HETATM    9  O   UNL     1     -10.900  10.763  66.952  1.00  0.00    -0.263 OA 
BRANCH   8  10
HETATM   10  O   UNL     1     -12.120  12.072  68.378  1.00  0.00    -0.412 OA 
BRANCH  10  11
HETATM   11  C   UNL     1     -11.431  12.469  69.577  1.00  0.00    -0.230 C  
BRANCH  11  12
HETATM   12  C   UNL     1     -12.251  13.533  70.324  1.00  0.00    -0.347 C  
BRANCH  12  13
HETATM   13  O   UNL     1     -11.454  14.656  70.768  1.00  0.00    -0.259 OA 
BRANCH  13  14
HETATM   14  C   UNL     1     -11.513  15.769  69.879  1.00  0.00    -0.346 C  
BRANCH  14  15
HETATM   15  N   UNL     1     -10.205  15.983  69.302  1.00  0.00    -0.232 NA 
HETATM   16  C   UNL     1      -9.019  15.565  69.859  1.00  0.00     0.129 A  
HETATM   17  N   UNL     1      -7.991  15.777  69.059  1.00  0.00    -0.197 NA 
HETATM   18  C   UNL     1      -8.536  16.353  67.932  1.00  0.00    -0.169 A  
HETATM   19  C   UNL     1      -9.894  16.483  68.084  1.00  0.00    -0.244 A  
HETATM   20  N   UNL     1     -10.675  16.997  67.128  1.00  0.00    -0.237 NA 
HETATM   21  C   UNL     1     -10.055  17.371  65.960  1.00  0.00    -0.262 C  
HETATM   22  N   UNL     1     -10.914  17.821  65.014  1.00  0.00    -0.696 NA 
HETATM   23  N   UNL     1      -8.780  17.292  65.708  1.00  0.00     0.080 N  
HETATM   24  H2  UNL     1     -11.922  17.877  65.154  1.00  0.00     0.000 HD 
HETATM   25  H1  UNL     1     -10.454  18.099  64.147  1.00  0.00     0.000 HD 
HETATM   26  H   UNL     1      -8.421  17.597  64.804  1.00  0.00     0.000 HD 
HETATM   27  C   UNL     1      -7.902  16.789  66.676  1.00  0.00    -0.272 C  
HETATM   28  O   UNL     1      -6.694  16.709  66.490  1.00  0.00    -0.199 OA 
ENDBRANCH  14  15
ENDBRANCH  13  14
ENDBRANCH  12  13
BRANCH  12  29
HETATM   29  C   UNL     1     -12.913  12.918  71.566  1.00  0.00    -0.294 C  
HETATM   30  O   UNL     1     -13.918  13.808  72.058  1.00  0.00    -0.455 OA 
HETATM   31  H   UNL     1     -14.327  13.428  72.826  1.00  0.00     0.000 HD 
ENDBRANCH  12  29
ENDBRANCH  11  12
ENDBRANCH  10  11
ENDBRANCH   8  10
ENDBRANCH   4   8
TORSDOF 8
ENDMDL
MODEL      139
REMARK 921   NORMALIZED FREE ENERGY PREDICTED BY IDOCK:   -4.90 KCAL/MOL
REMARK 922        TOTAL FREE ENERGY PREDICTED BY IDOCK:   -8.41 KCAL/MOL
REMARK 923 INTER-LIGAND FREE ENERGY PREDICTED BY IDOCK:   -7.34 KCAL/MOL
REMARK 924 INTRA-LIGAND FREE ENERGY PREDICTED BY IDOCK:   -1.07 KCAL/MOL
REMARK 927      BINDING AFFINITY PREDICTED BY RF-SCORE:    0.00 PKD
ROOT
HETATM    1  C   UNL     1      -6.503   6.346  70.840  1.00  0.00    -0.049 C  
HETATM    2  C   UNL     1      -7.164   6.278  72.222  1.00  0.00    -0.087 C  
HETATM    3  C   UNL     1      -6.822   4.945  72.895  1.00  0.00    -0.071 C  
HETATM    4  C   UNL     1      -8.693   6.527  72.177  1.00  0.00    -0.131 C  
HETATM    5  N   UNL     1      -9.389   5.538  71.323  1.00  0.00    -0.146 NA 
HETATM    6  H1  UNL     1     -10.395   5.701  71.294  1.00  0.00     0.000 HD 
HETATM    7  H2  UNL     1      -9.177   4.583  71.613  1.00  0.00     0.000 HD 
ENDROOT
BRANCH   4   8
HETATM    8  C   UNL     1      -9.006   7.970  71.732  1.00  0.00    -0.147 C  
HETATM    9  O   UNL     1      -8.664   8.975  72.344  1.00  0.00    -0.347 OA 
BRANCH   8  10
HETATM   10  O   UNL     1      -9.778   7.992  70.604  1.00  0.00    -0.172 OA 
BRANCH  10  11
HETATM   11  C   UNL     1      -9.210   8.653  69.459  1.00  0.00    -0.150 C  
BRANCH  11  12
HETATM   12  C   UNL     1     -10.043   8.339  68.206  1.00  0.00    -0.198 C  
BRANCH  12  13
HETATM   13  O   UNL     1     -10.858   9.452  67.772  1.00  0.00    -0.252 OA 
BRANCH  13  14
HETATM   14  C   UNL     1     -10.199  10.710  67.898  1.00  0.00    -0.177 C  
BRANCH  14  15
HETATM   15  N   UNL     1     -10.953  11.713  67.179  1.00  0.00    -0.264 NA 
HETATM   16  C   UNL     1     -11.599  12.779  67.757  1.00  0.00    -0.353 A  
HETATM   17  N   UNL     1     -12.097  13.607  66.857  1.00  0.00    -0.399 NA 
HETATM   18  C   UNL     1     -11.753  13.054  65.643  1.00  0.00    -0.375 A  
HETATM   19  C   UNL     1     -11.054  11.890  65.842  1.00  0.00    -0.316 A  
HETATM   20  N   UNL     1     -10.582  11.157  64.827  1.00  0.00    -0.319 NA 
HETATM   21  C   UNL     1     -10.806  11.641  63.561  1.00  0.00    -0.425 C  
HETATM   22  N   UNL     1     -10.245  10.883  62.587  1.00  0.00    -0.754 NA 
HETATM   23  N   UNL     1     -11.452  12.729  63.258  1.00  0.00    -0.782 N  
HETATM   24  H2  UNL     1      -9.708  10.037  62.776  1.00  0.00     0.000 HD 
HETATM   25  H1  UNL     1     -10.412  11.242  61.647  1.00  0.00     0.000 HD 
HETATM   26  H   UNL     1     -11.562  13.000  62.280  1.00  0.00     0.000 HD 
HETATM   27  C   UNL     1     -11.997  13.528  64.270  1.00  0.00    -0.432 C  
HETATM   28  O   UNL     1     -12.625  14.553  64.034  1.00  0.00    -0.797 OA 
ENDBRANCH  14  15
ENDBRANCH  13  14
ENDBRANCH  12  13
BRANCH  12  29
HETATM   29  C   UNL     1     -10.986   7.156  68.477  1.00  0.00    -0.027 C  
HETATM   30  O   UNL     1     -10.294   5.931  68.224  1.00  0.00    -0.173 OA 
HETATM   31  H   UNL     1     -10.876   5.200  68.392  1.00  0.00     0.000 HD 
ENDBRANCH  12  29
ENDBRANCH  11  12
ENDBRANCH  10  11
ENDBRANCH   8  10
ENDBRANCH   4   8
TORSDOF 8
ENDMDL
MODEL      140
REMARK 921   NORMALIZED FREE ENERGY PREDICTED BY IDOCK:   -4.88 KCAL/MOL
REMARK 922        TOTAL FREE ENERGY PREDICTED BY IDOCK:   -8.38 KCAL/MOL
REMARK 923 INTER-LIGAND FREE ENERGY PREDICTED BY IDOCK:   -7.75 KCAL/MOL
REMARK 924 INTRA-LIGAND FREE ENERGY PREDICTED BY IDOCK:   -0.63 KCAL/MOL
REMARK 927      BINDING AFFINITY PREDICTED BY RF-SCORE:    0.00 PKD
ROOT
HETATM    1  C   UNL     1     -11.825  14.994  72.622  1.00  0.00    -0.403 C  
HETATM    2  C   UNL     1     -13.021  14.576  71.758  1.00  0.00    -0.413 C  
HETATM    3  C   UNL     1     -13.908  13.600  72.538  1.00  0.00    -0.620 C  
HETATM    4  C   UNL     1     -12.605  14.003  70.380  1.00  0.00    -0.308 C  
HETATM    5  N   UNL     1     -11.741  12.809  70.517  1.00  0.00    -0.501 NA 
HETATM    6  H1  UNL     1     -11.467  12.432  69.609  1.00  0.00     0.000 HD 
HETATM    7  H2  UNL     1     -12.182  12.096  71.096  1.00  0.00     0.000 HD 
ENDROOT
BRANCH   4   8
HETATM    8  C   UNL     1     -11.932  15.086  69.511  1.00  0.00    -0.313 C  
HETATM    9  O   UNL     1     -12.478  16.120  69.145  1.00  0.00     0.065 OA 
BRANCH   8  10
HETATM   10  O   UNL     1     -10.671  14.717  69.136  1.00  0.00    -0.245 OA 
BRANCH  10  11
HETATM   11  C   UNL     1      -9.619  15.648  69.446  1.00  0.00    -0.287 C  
BRANCH  11  12
HETATM   12  C   UNL     1      -9.395  16.600  68.260  1.00  0.00    -0.224 C  
BRANCH  12  13
HETATM   13  O   UNL     1      -8.081  16.474  67.669  1.00  0.00    -0.159 OA 
BRANCH  13  14
HETATM   14  C   UNL     1      -8.080  16.686  66.259  1.00  0.00    -0.326 C  
BRANCH  14  15
HETATM   15  N   UNL     1      -9.380  16.341  65.728  1.00  0.00    -0.474 NA 
HETATM   16  C   UNL     1     -10.290  17.240  65.222  1.00  0.00     0.171 A  
HETATM   17  N   UNL     1     -11.337  16.640  64.688  1.00  0.00    -0.782 NA 
HETATM   18  C   UNL     1     -11.093  15.294  64.850  1.00  0.00    -0.424 A  
HETATM   19  C   UNL     1      -9.893  15.112  65.492  1.00  0.00    -0.321 A  
HETATM   20  N   UNL     1      -9.403  13.896  65.760  1.00  0.00     0.026 NA 
HETATM   21  C   UNL     1     -10.149  12.824  65.336  1.00  0.00    -0.259 C  
HETATM   22  N   UNL     1      -9.562  11.627  65.583  1.00  0.00    -0.231 NA 
HETATM   23  N   UNL     1     -11.294  12.880  64.720  1.00  0.00    -0.304 N  
HETATM   24  H2  UNL     1      -8.654  11.532  66.039  1.00  0.00     0.000 HD 
HETATM   25  H1  UNL     1     -10.115  10.830  65.269  1.00  0.00     0.000 HD 
HETATM   26  H   UNL     1     -11.767  12.019  64.446  1.00  0.00     0.000 HD 
HETATM   27  C   UNL     1     -11.877  14.120  64.433  1.00  0.00    -0.428 C  
HETATM   28  O   UNL     1     -12.959  14.223  63.868  1.00  0.00    -0.370 OA 
ENDBRANCH  14  15
ENDBRANCH  13  14
ENDBRANCH  12  13
BRANCH  12  29
HETATM   29  C   UNL     1      -9.559  18.060  68.711  1.00  0.00    -0.301 C  
HETATM   30  O   UNL     1     -10.777  18.587  68.182  1.00  0.00    -0.315 OA 
HETATM   31  H   UNL     1     -10.877  19.489  68.460  1.00  0.00     0.000 HD 
ENDBRANCH  12  29
ENDBRANCH  11  12
ENDBRANCH  10  11
ENDBRANCH   8  10
ENDBRANCH   4   8
TORSDOF 8
ENDMDL
MODEL      141
REMARK 921   NORMALIZED FREE ENERGY PREDICTED BY IDOCK:   -4.87 KCAL/MOL
REMARK 922        TOTAL FREE ENERGY PREDICTED BY IDOCK:   -8.37 KCAL/MOL
REMARK 923 INTER-LIGAND FREE ENERGY PREDICTED BY IDOCK:   -7.61 KCAL/MOL
REMARK 924 INTRA-LIGAND FREE ENERGY PREDICTED BY IDOCK:   -0.76 KCAL/MOL
REMARK 927      BINDING AFFINITY PREDICTED BY RF-SCORE:    0.00 PKD
ROOT
HETATM    1  C   UNL     1      -8.920   5.771  71.734  1.00  0.00    -0.143 C  
HETATM    2  C   UNL     1      -9.058   6.756  72.901  1.00  0.00    -0.142 C  
HETATM    3  C   UNL     1      -8.063   6.391  74.008  1.00  0.00    -0.109 C  
HETATM    4  C   UNL     1     -10.507   6.861  73.440  1.00  0.00    -0.331 C  
HETATM    5  N   UNL     1     -11.014   5.557  73.922  1.00  0.00    -0.386 NA 
HETATM    6  H1  UNL     1     -11.968   5.626  74.276  1.00  0.00     0.000 HD 
HETATM    7  H2  UNL     1     -10.389   5.150  74.618  1.00  0.00     0.000 HD 
ENDROOT
BRANCH   4   8
HETATM    8  C   UNL     1     -11.448   7.471  72.380  1.00  0.00    -0.315 C  
HETATM    9  O   UNL     1     -12.173   6.818  71.638  1.00  0.00    -0.336 OA 
BRANCH   8  10
HETATM   10  O   UNL     1     -11.322   8.830  72.318  1.00  0.00    -0.355 OA 
BRANCH  10  11
HETATM   11  C   UNL     1     -10.588   9.349  71.194  1.00  0.00    -0.333 C  
BRANCH  11  12
HETATM   12  C   UNL     1     -11.538  10.106  70.252  1.00  0.00    -0.302 C  
BRANCH  12  13
HETATM   13  O   UNL     1     -10.928  11.267  69.643  1.00  0.00    -0.227 OA 
BRANCH  13  14
HETATM   14  C   UNL     1     -11.571  11.667  68.434  1.00  0.00    -0.312 C  
BRANCH  14  15
HETATM   15  N   UNL     1     -11.101  12.982  68.062  1.00  0.00    -0.248 NA 
HETATM   16  C   UNL     1     -10.605  13.323  66.826  1.00  0.00    -0.276 A  
HETATM   17  N   UNL     1     -10.372  14.618  66.723  1.00  0.00    -0.265 NA 
HETATM   18  C   UNL     1     -10.739  15.140  67.944  1.00  0.00    -0.268 A  
HETATM   19  C   UNL     1     -11.182  14.135  68.767  1.00  0.00    -0.268 A  
HETATM   20  N   UNL     1     -11.618  14.368  70.010  1.00  0.00    -0.275 NA 
HETATM   21  C   UNL     1     -11.629  15.677  70.424  1.00  0.00    -0.349 C  
HETATM   22  N   UNL     1     -12.143  15.846  71.667  1.00  0.00    -0.448 NA 
HETATM   23  N   UNL     1     -11.234  16.705  69.731  1.00  0.00    -0.367 N  
HETATM   24  H2  UNL     1     -12.488  15.075  72.239  1.00  0.00     0.000 HD 
HETATM   25  H1  UNL     1     -12.150  16.818  71.975  1.00  0.00     0.000 HD 
HETATM   26  H   UNL     1     -11.285  17.641  70.134  1.00  0.00     0.000 HD 
HETATM   27  C   UNL     1     -10.740  16.529  68.432  1.00  0.00    -0.339 C  
HETATM   28  O   UNL     1     -10.344  17.464  67.746  1.00  0.00    -0.328 OA 
ENDBRANCH  14  15
ENDBRANCH  13  14
ENDBRANCH  12  13
BRANCH  12  29
HETATM   29  C   UNL     1     -12.778  10.587  71.021  1.00  0.00    -0.408 C  
HETATM   30  O   UNL     1     -13.690   9.499  71.180  1.00  0.00    -0.484 OA 
HETATM   31  H   UNL     1     -14.456   9.796  71.655  1.00  0.00     0.000 HD 
ENDBRANCH  12  29
ENDBRANCH  11  12
ENDBRANCH  10  11
ENDBRANCH   8  10
ENDBRANCH   4   8
TORSDOF 8
ENDMDL
MODEL      142
REMARK 921   NORMALIZED FREE ENERGY PREDICTED BY IDOCK:   -4.87 KCAL/MOL
REMARK 922        TOTAL FREE ENERGY PREDICTED BY IDOCK:   -8.37 KCAL/MOL
REMARK 923 INTER-LIGAND FREE ENERGY PREDICTED BY IDOCK:   -7.71 KCAL/MOL
REMARK 924 INTRA-LIGAND FREE ENERGY PREDICTED BY IDOCK:   -0.66 KCAL/MOL
REMARK 927      BINDING AFFINITY PREDICTED BY RF-SCORE:    0.00 PKD
ROOT
HETATM    1  C   UNL     1      -6.730  10.189  68.435  1.00  0.00    -0.054 C  
HETATM    2  C   UNL     1      -8.057  10.952  68.339  1.00  0.00    -0.131 C  
HETATM    3  C   UNL     1      -9.220   9.960  68.250  1.00  0.00    -0.130 C  
HETATM    4  C   UNL     1      -8.084  11.979  67.178  1.00  0.00    -0.177 C  
HETATM    5  N   UNL     1      -7.868  11.333  65.864  1.00  0.00    -0.370 NA 
HETATM    6  H1  UNL     1      -7.886  12.009  65.101  1.00  0.00     0.000 HD 
HETATM    7  H2  UNL     1      -8.536  10.579  65.707  1.00  0.00     0.000 HD 
ENDROOT
BRANCH   4   8
HETATM    8  C   UNL     1      -7.067  13.113  67.419  1.00  0.00    -0.106 C  
HETATM    9  O   UNL     1      -5.870  13.037  67.168  1.00  0.00    -0.341 OA 
BRANCH   8  10
HETATM   10  O   UNL     1      -7.651  14.194  68.018  1.00  0.00    -0.113 OA 
BRANCH  10  11
HETATM   11  C   UNL     1      -7.961  15.305  67.158  1.00  0.00    -0.218 C  
BRANCH  11  12
HETATM   12  C   UNL     1      -8.896  16.285  67.884  1.00  0.00    -0.183 C  
BRANCH  12  13
HETATM   13  O   UNL     1     -10.296  16.040  67.615  1.00  0.00    -0.270 OA 
BRANCH  13  14
HETATM   14  C   UNL     1     -11.139  16.339  68.725  1.00  0.00    -0.355 C  
BRANCH  14  15
HETATM   15  N   UNL     1     -11.684  15.107  69.250  1.00  0.00    -0.311 NA 
HETATM   16  C   UNL     1     -11.521  13.866  68.681  1.00  0.00    -0.298 A  
HETATM   17  N   UNL     1     -12.013  12.904  69.438  1.00  0.00    -0.295 NA 
HETATM   18  C   UNL     1     -12.513  13.549  70.548  1.00  0.00    -0.302 A  
HETATM   19  C   UNL     1     -12.314  14.902  70.430  1.00  0.00    -0.345 A  
HETATM   20  N   UNL     1     -12.690  15.765  71.380  1.00  0.00    -0.464 NA 
HETATM   21  C   UNL     1     -13.266  15.231  72.506  1.00  0.00    -0.430 C  
HETATM   22  N   UNL     1     -13.561  16.156  73.452  1.00  0.00    -0.809 NA 
HETATM   23  N   UNL     1     -13.500  13.969  72.724  1.00  0.00    -0.534 N  
HETATM   24  H2  UNL     1     -13.372  17.151  73.339  1.00  0.00     0.000 HD 
HETATM   25  H1  UNL     1     -13.989  15.759  74.289  1.00  0.00     0.000 HD 
HETATM   26  H   UNL     1     -13.934  13.676  73.599  1.00  0.00     0.000 HD 
HETATM   27  C   UNL     1     -13.158  13.014  71.759  1.00  0.00    -0.373 C  
HETATM   28  O   UNL     1     -13.371  11.817  71.912  1.00  0.00    -0.448 OA 
ENDBRANCH  14  15
ENDBRANCH  13  14
ENDBRANCH  12  13
BRANCH  12  29
HETATM   29  C   UNL     1      -8.591  17.729  67.455  1.00  0.00    -0.231 C  
HETATM   30  O   UNL     1      -8.079  17.729  66.120  1.00  0.00    -0.420 OA 
HETATM   31  H   UNL     1      -7.890  18.621  65.855  1.00  0.00     0.000 HD 
ENDBRANCH  12  29
ENDBRANCH  11  12
ENDBRANCH  10  11
ENDBRANCH   8  10
ENDBRANCH   4   8
TORSDOF 8
ENDMDL
MODEL      143
REMARK 921   NORMALIZED FREE ENERGY PREDICTED BY IDOCK:   -4.87 KCAL/MOL
REMARK 922        TOTAL FREE ENERGY PREDICTED BY IDOCK:   -8.37 KCAL/MOL
REMARK 923 INTER-LIGAND FREE ENERGY PREDICTED BY IDOCK:   -7.35 KCAL/MOL
REMARK 924 INTRA-LIGAND FREE ENERGY PREDICTED BY IDOCK:   -1.02 KCAL/MOL
REMARK 927      BINDING AFFINITY PREDICTED BY RF-SCORE:    0.00 PKD
ROOT
HETATM    1  C   UNL     1     -10.341   9.366  71.334  1.00  0.00    -0.326 C  
HETATM    2  C   UNL     1     -11.740   9.259  70.715  1.00  0.00    -0.328 C  
HETATM    3  C   UNL     1     -12.500  10.573  70.922  1.00  0.00    -0.488 C  
HETATM    4  C   UNL     1     -12.542   8.040  71.234  1.00  0.00    -0.239 C  
HETATM    5  N   UNL     1     -12.729   8.085  72.702  1.00  0.00    -0.576 NA 
HETATM    6  H1  UNL     1     -13.257   7.283  73.043  1.00  0.00     0.000 HD 
HETATM    7  H2  UNL     1     -13.158   8.963  72.994  1.00  0.00     0.000 HD 
ENDROOT
BRANCH   4   8
HETATM    8  C   UNL     1     -11.884   6.716  70.793  1.00  0.00    -0.383 C  
HETATM    9  O   UNL     1     -11.374   5.906  71.559  1.00  0.00    -0.264 OA 
BRANCH   8  10
HETATM   10  O   UNL     1     -11.873   6.588  69.433  1.00  0.00    -0.209 OA 
BRANCH  10  11
HETATM   11  C   UNL     1     -10.695   5.992  68.861  1.00  0.00    -0.317 C  
BRANCH  11  12
HETATM   12  C   UNL     1     -10.421   6.597  67.475  1.00  0.00    -0.239 C  
BRANCH  12  13
HETATM   13  O   UNL     1     -10.895   7.957  67.345  1.00  0.00    -0.237 OA 
BRANCH  13  14
HETATM   14  C   UNL     1     -10.007   8.790  66.601  1.00  0.00    -0.285 C  
BRANCH  14  15
HETATM   15  N   UNL     1      -9.947  10.092  67.226  1.00  0.00    -0.186 NA 
HETATM   16  C   UNL     1      -9.041  10.463  68.192  1.00  0.00    -0.142 A  
HETATM   17  N   UNL     1      -9.129  11.746  68.490  1.00  0.00    -0.176 NA 
HETATM   18  C   UNL     1     -10.133  12.228  67.679  1.00  0.00    -0.200 A  
HETATM   19  C   UNL     1     -10.636  11.211  66.906  1.00  0.00    -0.258 A  
HETATM   20  N   UNL     1     -11.611  11.409  66.012  1.00  0.00    -0.192 NA 
HETATM   21  C   UNL     1     -12.075  12.695  65.879  1.00  0.00    -0.396 C  
HETATM   22  N   UNL     1     -13.014  12.832  64.911  1.00  0.00    -0.853 NA 
HETATM   23  N   UNL     1     -11.671  13.730  66.555  1.00  0.00    -0.364 N  
HETATM   24  H2  UNL     1     -13.344  12.056  64.338  1.00  0.00     0.000 HD 
HETATM   25  H1  UNL     1     -13.359  13.787  64.813  1.00  0.00     0.000 HD 
HETATM   26  H   UNL     1     -12.083  14.647  66.378  1.00  0.00     0.000 HD 
HETATM   27  C   UNL     1     -10.672  13.589  67.527  1.00  0.00    -0.259 C  
HETATM   28  O   UNL     1     -10.269  14.532  68.198  1.00  0.00    -0.222 OA 
ENDBRANCH  14  15
ENDBRANCH  13  14
ENDBRANCH  12  13
BRANCH  12  29
HETATM   29  C   UNL     1     -11.111   5.763  66.384  1.00  0.00     0.152 C  
HETATM   30  O   UNL     1     -10.427   4.517  66.236  1.00  0.00    -0.364 OA 
HETATM   31  H   UNL     1     -10.853   4.002  65.561  1.00  0.00     0.000 HD 
ENDBRANCH  12  29
ENDBRANCH  11  12
ENDBRANCH  10  11
ENDBRANCH   8  10
ENDBRANCH   4   8
TORSDOF 8
ENDMDL
MODEL      144
REMARK 921   NORMALIZED FREE ENERGY PREDICTED BY IDOCK:   -4.86 KCAL/MOL
REMARK 922        TOTAL FREE ENERGY PREDICTED BY IDOCK:   -8.36 KCAL/MOL
REMARK 923 INTER-LIGAND FREE ENERGY PREDICTED BY IDOCK:   -7.62 KCAL/MOL
REMARK 924 INTRA-LIGAND FREE ENERGY PREDICTED BY IDOCK:   -0.74 KCAL/MOL
REMARK 927      BINDING AFFINITY PREDICTED BY RF-SCORE:    0.00 PKD
ROOT
HETATM    1  C   UNL     1     -12.408  13.433  66.694  1.00  0.00    -0.324 C  
HETATM    2  C   UNL     1     -11.006  13.003  66.246  1.00  0.00    -0.303 C  
HETATM    3  C   UNL     1      -9.950  13.668  67.136  1.00  0.00    -0.247 C  
HETATM    4  C   UNL     1     -10.741  13.265  64.742  1.00  0.00    -0.378 C  
HETATM    5  N   UNL     1     -10.877  14.699  64.399  1.00  0.00    -0.600 NA 
HETATM    6  H1  UNL     1     -10.703  14.871  63.409  1.00  0.00     0.000 HD 
HETATM    7  H2  UNL     1     -10.279  15.279  64.987  1.00  0.00     0.000 HD 
ENDROOT
BRANCH   4   8
HETATM    8  C   UNL     1     -11.654  12.389  63.859  1.00  0.00    -0.441 C  
HETATM    9  O   UNL     1     -12.820  12.652  63.591  1.00  0.00    -0.718 OA 
BRANCH   8  10
HETATM   10  O   UNL     1     -11.024  11.241  63.468  1.00  0.00    -0.381 OA 
BRANCH  10  11
HETATM   11  C   UNL     1     -10.059  10.702  64.389  1.00  0.00    -0.349 C  
BRANCH  11  12
HETATM   12  C   UNL     1      -9.158   9.685  63.669  1.00  0.00    -0.174 C  
BRANCH  12  13
HETATM   13  O   UNL     1      -8.674   8.638  64.541  1.00  0.00    -0.125 OA 
BRANCH  13  14
HETATM   14  C   UNL     1      -8.466   9.079  65.882  1.00  0.00    -0.140 C  
BRANCH  14  15
HETATM   15  N   UNL     1      -9.226   8.238  66.779  1.00  0.00    -0.159 NA 
HETATM   16  C   UNL     1      -9.219   6.863  66.768  1.00  0.00    -0.152 A  
HETATM   17  N   UNL     1      -9.901   6.355  67.778  1.00  0.00    -0.120 NA 
HETATM   18  C   UNL     1     -10.365   7.448  68.476  1.00  0.00    -0.198 A  
HETATM   19  C   UNL     1      -9.954   8.603  67.859  1.00  0.00    -0.188 A  
HETATM   20  N   UNL     1     -10.252   9.815  68.341  1.00  0.00    -0.177 NA 
HETATM   21  C   UNL     1     -10.973   9.854  69.509  1.00  0.00    -0.242 C  
HETATM   22  N   UNL     1     -11.182  11.111  69.972  1.00  0.00    -0.451 NA 
HETATM   23  N   UNL     1     -11.412   8.826  70.175  1.00  0.00    -0.454 N  
HETATM   24  H2  UNL     1     -10.836  11.946  69.500  1.00  0.00     0.000 HD 
HETATM   25  H1  UNL     1     -11.719  11.141  70.839  1.00  0.00     0.000 HD 
HETATM   26  H   UNL     1     -11.941   8.966  71.036  1.00  0.00     0.000 HD 
HETATM   27  C   UNL     1     -11.161   7.529  69.712  1.00  0.00    -0.129 C  
HETATM   28  O   UNL     1     -11.565   6.531  70.297  1.00  0.00    -0.386 OA 
ENDBRANCH  14  15
ENDBRANCH  13  14
ENDBRANCH  12  13
BRANCH  12  29
HETATM   29  C   UNL     1      -7.932  10.391  63.071  1.00  0.00    -0.138 C  
HETATM   30  O   UNL     1      -8.341  11.616  62.460  1.00  0.00    -0.644 OA 
HETATM   31  H   UNL     1      -7.583  12.053  62.090  1.00  0.00     0.000 HD 
ENDBRANCH  12  29
ENDBRANCH  11  12
ENDBRANCH  10  11
ENDBRANCH   8  10
ENDBRANCH   4   8
TORSDOF 8
ENDMDL
MODEL      145
REMARK 921   NORMALIZED FREE ENERGY PREDICTED BY IDOCK:   -4.80 KCAL/MOL
REMARK 922        TOTAL FREE ENERGY PREDICTED BY IDOCK:   -8.26 KCAL/MOL
REMARK 923 INTER-LIGAND FREE ENERGY PREDICTED BY IDOCK:   -7.41 KCAL/MOL
REMARK 924 INTRA-LIGAND FREE ENERGY PREDICTED BY IDOCK:   -0.86 KCAL/MOL
REMARK 927      BINDING AFFINITY PREDICTED BY RF-SCORE:    0.00 PKD
ROOT
HETATM    1  C   UNL     1      -6.909  17.630  67.822  1.00  0.00    -0.187 C  
HETATM    2  C   UNL     1      -7.096  17.221  66.356  1.00  0.00    -0.312 C  
HETATM    3  C   UNL     1      -6.391  18.229  65.443  1.00  0.00    -0.233 C  
HETATM    4  C   UNL     1      -8.583  17.030  65.964  1.00  0.00    -0.129 C  
HETATM    5  N   UNL     1      -9.372  18.266  66.166  1.00  0.00    -0.503 NA 
HETATM    6  H1  UNL     1     -10.350  18.139  65.908  1.00  0.00     0.000 HD 
HETATM    7  H2  UNL     1      -8.957  19.055  65.671  1.00  0.00     0.000 HD 
ENDROOT
BRANCH   4   8
HETATM    8  C   UNL     1      -9.206  15.838  66.722  1.00  0.00    -0.243 C  
HETATM    9  O   UNL     1     -10.009  15.944  67.641  1.00  0.00    -0.232 OA 
BRANCH   8  10
HETATM   10  O   UNL     1      -8.696  14.646  66.290  1.00  0.00    -0.093 OA 
BRANCH  10  11
HETATM   11  C   UNL     1      -9.107  13.478  67.022  1.00  0.00    -0.244 C  
BRANCH  11  12
HETATM   12  C   UNL     1     -10.412  12.921  66.432  1.00  0.00    -0.267 C  
BRANCH  12  13
HETATM   13  O   UNL     1     -10.888  11.741  67.119  1.00  0.00    -0.232 OA 
BRANCH  13  14
HETATM   14  C   UNL     1     -10.069  11.370  68.226  1.00  0.00    -0.196 C  
BRANCH  14  15
HETATM   15  N   UNL     1     -10.862  10.611  69.167  1.00  0.00    -0.220 NA 
HETATM   16  C   UNL     1     -10.762   9.255  69.371  1.00  0.00    -0.208 A  
HETATM   17  N   UNL     1     -11.511   8.848  70.379  1.00  0.00    -0.210 NA 
HETATM   18  C   UNL     1     -12.118   9.990  70.852  1.00  0.00    -0.355 A  
HETATM   19  C   UNL     1     -11.722  11.072  70.105  1.00  0.00    -0.356 A  
HETATM   20  N   UNL     1     -12.149  12.313  70.362  1.00  0.00    -0.349 NA 
HETATM   21  C   UNL     1     -12.991  12.465  71.437  1.00  0.00    -0.250 C  
HETATM   22  N   UNL     1     -13.330  13.755  71.677  1.00  0.00    -0.357 NA 
HETATM   23  N   UNL     1     -13.428  11.515  72.210  1.00  0.00    -0.521 N  
HETATM   24  H2  UNL     1     -12.993  14.537  71.115  1.00  0.00     0.000 HD 
HETATM   25  H1  UNL     1     -13.956  13.869  72.475  1.00  0.00     0.000 HD 
HETATM   26  H   UNL     1     -14.052  11.737  72.986  1.00  0.00     0.000 HD 
HETATM   27  C   UNL     1     -13.042  10.188  71.980  1.00  0.00    -0.437 C  
HETATM   28  O   UNL     1     -13.438   9.259  72.673  1.00  0.00    -0.444 OA 
ENDBRANCH  14  15
ENDBRANCH  13  14
ENDBRANCH  12  13
BRANCH  12  29
HETATM   29  C   UNL     1     -10.210  12.544  64.956  1.00  0.00    -0.279 C  
HETATM   30  O   UNL     1     -10.424  13.696  64.138  1.00  0.00    -0.549 OA 
HETATM   31  H   UNL     1     -10.300  13.463  63.226  1.00  0.00     0.000 HD 
ENDBRANCH  12  29
ENDBRANCH  11  12
ENDBRANCH  10  11
ENDBRANCH   8  10
ENDBRANCH   4   8
TORSDOF 8
ENDMDL
MODEL      146
REMARK 921   NORMALIZED FREE ENERGY PREDICTED BY IDOCK:   -4.80 KCAL/MOL
REMARK 922        TOTAL FREE ENERGY PREDICTED BY IDOCK:   -8.26 KCAL/MOL
REMARK 923 INTER-LIGAND FREE ENERGY PREDICTED BY IDOCK:   -7.68 KCAL/MOL
REMARK 924 INTRA-LIGAND FREE ENERGY PREDICTED BY IDOCK:   -0.58 KCAL/MOL
REMARK 927      BINDING AFFINITY PREDICTED BY RF-SCORE:    0.00 PKD
ROOT
HETATM    1  C   UNL     1     -10.131   8.615  72.392  1.00  0.00    -0.321 C  
HETATM    2  C   UNL     1     -11.493   7.967  72.669  1.00  0.00    -0.454 C  
HETATM    3  C   UNL     1     -11.316   6.461  72.892  1.00  0.00    -0.169 C  
HETATM    4  C   UNL     1     -12.544   8.267  71.570  1.00  0.00    -0.309 C  
HETATM    5  N   UNL     1     -12.106   7.787  70.241  1.00  0.00    -0.387 NA 
HETATM    6  H1  UNL     1     -12.797   7.985  69.518  1.00  0.00     0.000 HD 
HETATM    7  H2  UNL     1     -11.869   6.795  70.264  1.00  0.00     0.000 HD 
ENDROOT
BRANCH   4   8
HETATM    8  C   UNL     1     -12.893   9.770  71.535  1.00  0.00    -0.405 C  
HETATM    9  O   UNL     1     -13.509  10.359  72.415  1.00  0.00    -0.282 OA 
BRANCH   8  10
HETATM   10  O   UNL     1     -12.495  10.352  70.365  1.00  0.00    -0.296 OA 
BRANCH  10  11
HETATM   11  C   UNL     1     -11.297  11.146  70.426  1.00  0.00    -0.055 C  
BRANCH  11  12
HETATM   12  C   UNL     1     -11.460  12.409  69.565  1.00  0.00    -0.240 C  
BRANCH  12  13
HETATM   13  O   UNL     1     -10.265  12.750  68.825  1.00  0.00    -0.187 OA 
BRANCH  13  14
HETATM   14  C   UNL     1     -10.041  11.898  67.703  1.00  0.00    -0.191 C  
BRANCH  14  15
HETATM   15  N   UNL     1     -10.811  12.384  66.580  1.00  0.00    -0.239 NA 
HETATM   16  C   UNL     1     -11.895  11.742  66.029  1.00  0.00     0.121 A  
HETATM   17  N   UNL     1     -12.487  12.471  65.102  1.00  0.00    -0.628 NA 
HETATM   18  C   UNL     1     -11.757  13.639  65.053  1.00  0.00    -0.339 A  
HETATM   19  C   UNL     1     -10.727  13.583  65.958  1.00  0.00    -0.279 A  
HETATM   20  N   UNL     1      -9.872  14.597  66.131  1.00  0.00    -0.296 NA 
HETATM   21  C   UNL     1     -10.088  15.722  65.373  1.00  0.00    -0.302 C  
HETATM   22  N   UNL     1      -9.225  16.730  65.647  1.00  0.00    -0.460 NA 
HETATM   23  N   UNL     1     -11.029  15.883  64.490  1.00  0.00    -0.662 N  
HETATM   24  H2  UNL     1      -8.487  16.661  66.348  1.00  0.00     0.000 HD 
HETATM   25  H1  UNL     1      -9.384  17.566  65.084  1.00  0.00     0.000 HD 
HETATM   26  H   UNL     1     -11.103  16.763  63.979  1.00  0.00     0.000 HD 
HETATM   27  C   UNL     1     -11.942  14.851  64.239  1.00  0.00    -0.338 C  
HETATM   28  O   UNL     1     -12.837  14.952  63.407  1.00  0.00    -0.208 OA 
ENDBRANCH  14  15
ENDBRANCH  13  14
ENDBRANCH  12  13
BRANCH  12  29
HETATM   29  C   UNL     1     -11.814  13.614  70.449  1.00  0.00    -0.237 C  
HETATM   30  O   UNL     1     -12.824  14.394  69.806  1.00  0.00    -0.517 OA 
HETATM   31  H   UNL     1     -13.042  15.140  70.352  1.00  0.00     0.000 HD 
ENDBRANCH  12  29
ENDBRANCH  11  12
ENDBRANCH  10  11
ENDBRANCH   8  10
ENDBRANCH   4   8
TORSDOF 8
ENDMDL
MODEL      147
REMARK 921   NORMALIZED FREE ENERGY PREDICTED BY IDOCK:   -4.80 KCAL/MOL
REMARK 922        TOTAL FREE ENERGY PREDICTED BY IDOCK:   -8.26 KCAL/MOL
REMARK 923 INTER-LIGAND FREE ENERGY PREDICTED BY IDOCK:   -7.42 KCAL/MOL
REMARK 924 INTRA-LIGAND FREE ENERGY PREDICTED BY IDOCK:   -0.84 KCAL/MOL
REMARK 927      BINDING AFFINITY PREDICTED BY RF-SCORE:    0.00 PKD
ROOT
HETATM    1  C   UNL     1     -10.684  11.054  64.563  1.00  0.00    -0.335 C  
HETATM    2  C   UNL     1     -11.697  12.199  64.688  1.00  0.00    -0.400 C  
HETATM    3  C   UNL     1     -12.350  12.465  63.328  1.00  0.00    -0.497 C  
HETATM    4  C   UNL     1     -11.086  13.486  65.297  1.00  0.00    -0.297 C  
HETATM    5  N   UNL     1      -9.960  14.001  64.485  1.00  0.00    -0.694 NA 
HETATM    6  H1  UNL     1      -9.559  14.848  64.886  1.00  0.00     0.000 HD 
HETATM    7  H2  UNL     1     -10.238  14.146  63.515  1.00  0.00     0.000 HD 
ENDROOT
BRANCH   4   8
HETATM    8  C   UNL     1     -10.662  13.258  66.762  1.00  0.00    -0.276 C  
HETATM    9  O   UNL     1     -11.441  13.073  67.689  1.00  0.00    -0.285 OA 
BRANCH   8  10
HETATM   10  O   UNL     1      -9.308  13.360  66.916  1.00  0.00    -0.237 OA 
BRANCH  10  11
HETATM   11  C   UNL     1      -8.699  12.425  67.824  1.00  0.00    -0.176 C  
BRANCH  11  12
HETATM   12  C   UNL     1      -8.884  10.991  67.301  1.00  0.00    -0.135 C  
BRANCH  12  13
HETATM   13  O   UNL     1      -9.094  10.025  68.357  1.00  0.00    -0.119 OA 
BRANCH  13  14
HETATM   14  C   UNL     1      -8.431  10.370  69.571  1.00  0.00    -0.100 C  
BRANCH  14  15
HETATM   15  N   UNL     1      -8.721   9.366  70.570  1.00  0.00    -0.230 NA 
HETATM   16  C   UNL     1      -7.785   8.562  71.176  1.00  0.00    -0.103 A  
HETATM   17  N   UNL     1      -8.308   7.829  72.140  1.00  0.00    -0.110 NA 
HETATM   18  C   UNL     1      -9.641   8.176  72.163  1.00  0.00    -0.242 A  
HETATM   19  C   UNL     1      -9.894   9.117  71.196  1.00  0.00    -0.301 A  
HETATM   20  N   UNL     1     -11.110   9.643  71.012  1.00  0.00    -0.342 NA 
HETATM   21  C   UNL     1     -12.102   9.217  71.861  1.00  0.00    -0.378 C  
HETATM   22  N   UNL     1     -13.289   9.839  71.660  1.00  0.00    -0.397 NA 
HETATM   23  N   UNL     1     -11.974   8.335  72.809  1.00  0.00    -0.535 N  
HETATM   24  H2  UNL     1     -13.432  10.555  70.947  1.00  0.00     0.000 HD 
HETATM   25  H1  UNL     1     -14.026   9.522  72.290  1.00  0.00     0.000 HD 
HETATM   26  H   UNL     1     -12.778   8.088  73.386  1.00  0.00     0.000 HD 
HETATM   27  C   UNL     1     -10.735   7.723  73.038  1.00  0.00    -0.384 C  
HETATM   28  O   UNL     1     -10.570   6.878  73.909  1.00  0.00    -0.369 OA 
ENDBRANCH  14  15
ENDBRANCH  13  14
ENDBRANCH  12  13
BRANCH  12  29
HETATM   29  C   UNL     1      -7.643  10.548  66.512  1.00  0.00    -0.128 C  
HETATM   30  O   UNL     1      -6.993  11.698  65.965  1.00  0.00    -0.346 OA 
HETATM   31  H   UNL     1      -6.226  11.424  65.477  1.00  0.00     0.000 HD 
ENDBRANCH  12  29
ENDBRANCH  11  12
ENDBRANCH  10  11
ENDBRANCH   8  10
ENDBRANCH   4   8
TORSDOF 8
ENDMDL
MODEL      148
REMARK 921   NORMALIZED FREE ENERGY PREDICTED BY IDOCK:   -4.79 KCAL/MOL
REMARK 922        TOTAL FREE ENERGY PREDICTED BY IDOCK:   -8.24 KCAL/MOL
REMARK 923 INTER-LIGAND FREE ENERGY PREDICTED BY IDOCK:   -7.43 KCAL/MOL
REMARK 924 INTRA-LIGAND FREE ENERGY PREDICTED BY IDOCK:   -0.82 KCAL/MOL
REMARK 927      BINDING AFFINITY PREDICTED BY RF-SCORE:    0.00 PKD
ROOT
HETATM    1  C   UNL     1      -9.279  13.421  68.091  1.00  0.00    -0.215 C  
HETATM    2  C   UNL     1     -10.298  12.376  67.623  1.00  0.00    -0.223 C  
HETATM    3  C   UNL     1     -10.114  12.106  66.126  1.00  0.00    -0.251 C  
HETATM    4  C   UNL     1     -11.761  12.757  67.965  1.00  0.00    -0.356 C  
HETATM    5  N   UNL     1     -12.156  14.043  67.348  1.00  0.00    -0.500 NA 
HETATM    6  H1  UNL     1     -13.118  14.294  67.573  1.00  0.00     0.000 HD 
HETATM    7  H2  UNL     1     -12.002  14.033  66.339  1.00  0.00     0.000 HD 
ENDROOT
BRANCH   4   8
HETATM    8  C   UNL     1     -11.985  12.777  69.491  1.00  0.00    -0.276 C  
HETATM    9  O   UNL     1     -12.129  13.794  70.159  1.00  0.00    -0.319 OA 
BRANCH   8  10
HETATM   10  O   UNL     1     -11.930  11.519  70.024  1.00  0.00    -0.312 OA 
BRANCH  10  11
HETATM   11  C   UNL     1     -12.881  11.228  71.064  1.00  0.00    -0.300 C  
BRANCH  11  12
HETATM   12  C   UNL     1     -12.491   9.926  71.781  1.00  0.00    -0.397 C  
BRANCH  12  13
HETATM   13  O   UNL     1     -11.514   9.146  71.053  1.00  0.00    -0.270 OA 
BRANCH  13  14
HETATM   14  C   UNL     1     -10.332   8.885  71.807  1.00  0.00    -0.356 C  
BRANCH  14  15
HETATM   15  N   UNL     1     -10.236   7.464  72.057  1.00  0.00    -0.189 NA 
HETATM   16  C   UNL     1     -10.637   6.837  73.212  1.00  0.00    -0.309 A  
HETATM   17  N   UNL     1     -10.555   5.523  73.119  1.00  0.00    -0.227 NA 
HETATM   18  C   UNL     1     -10.084   5.289  71.845  1.00  0.00    -0.197 A  
HETATM   19  C   UNL     1      -9.885   6.481  71.196  1.00  0.00    -0.182 A  
HETATM   20  N   UNL     1      -9.447   6.543  69.933  1.00  0.00    -0.155 NA 
HETATM   21  C   UNL     1      -9.228   5.346  69.297  1.00  0.00    -0.116 C  
HETATM   22  N   UNL     1      -8.849   5.484  68.003  1.00  0.00    -0.106 NA 
HETATM   23  N   UNL     1      -9.385   4.162  69.814  1.00  0.00    -0.148 N  
HETATM   24  H2  UNL     1      -8.738   6.389  67.546  1.00  0.00     0.000 HD 
HETATM   25  H1  UNL     1      -8.687   4.595  67.530  1.00  0.00     0.000 HD 
HETATM   26  H   UNL     1      -9.195   3.332  69.252  1.00  0.00     0.000 HD 
HETATM   27  C   UNL     1      -9.814   4.025  71.140  1.00  0.00    -0.166 C  
HETATM   28  O   UNL     1      -9.962   2.933  71.674  1.00  0.00    -0.158 OA 
ENDBRANCH  14  15
ENDBRANCH  13  14
ENDBRANCH  12  13
BRANCH  12  29
HETATM   29  C   UNL     1     -13.729   9.039  71.984  1.00  0.00    -0.461 C  
HETATM   30  O   UNL     1     -14.030   8.957  73.379  1.00  0.00    -1.236 OA 
HETATM   31  H   UNL     1     -14.795   8.409  73.505  1.00  0.00     0.000 HD 
ENDBRANCH  12  29
ENDBRANCH  11  12
ENDBRANCH  10  11
ENDBRANCH   8  10
ENDBRANCH   4   8
TORSDOF 8
ENDMDL
MODEL      149
REMARK 921   NORMALIZED FREE ENERGY PREDICTED BY IDOCK:   -4.79 KCAL/MOL
REMARK 922        TOTAL FREE ENERGY PREDICTED BY IDOCK:   -8.24 KCAL/MOL
REMARK 923 INTER-LIGAND FREE ENERGY PREDICTED BY IDOCK:   -7.55 KCAL/MOL
REMARK 924 INTRA-LIGAND FREE ENERGY PREDICTED BY IDOCK:   -0.69 KCAL/MOL
REMARK 927      BINDING AFFINITY PREDICTED BY RF-SCORE:    0.00 PKD
ROOT
HETATM    1  C   UNL     1     -14.385  15.178  71.748  1.00  0.00    -0.696 C  
HETATM    2  C   UNL     1     -13.004  14.734  72.246  1.00  0.00    -0.423 C  
HETATM    3  C   UNL     1     -12.771  15.261  73.666  1.00  0.00    -0.703 C  
HETATM    4  C   UNL     1     -11.855  15.133  71.286  1.00  0.00    -0.350 C  
HETATM    5  N   UNL     1     -11.785  16.598  71.086  1.00  0.00    -0.470 NA 
HETATM    6  H1  UNL     1     -11.028  16.860  70.455  1.00  0.00     0.000 HD 
HETATM    7  H2  UNL     1     -11.711  17.090  71.976  1.00  0.00     0.000 HD 
ENDROOT
BRANCH   4   8
HETATM    8  C   UNL     1     -11.976  14.389  69.940  1.00  0.00    -0.335 C  
HETATM    9  O   UNL     1     -12.044  13.171  69.823  1.00  0.00    -0.307 OA 
BRANCH   8  10
HETATM   10  O   UNL     1     -11.924  15.252  68.882  1.00  0.00    -0.322 OA 
BRANCH  10  11
HETATM   11  C   UNL     1     -10.742  15.183  68.064  1.00  0.00    -0.264 C  
BRANCH  11  12
HETATM   12  C   UNL     1     -11.136  15.003  66.589  1.00  0.00    -0.326 C  
BRANCH  12  13
HETATM   13  O   UNL     1     -10.943  13.652  66.111  1.00  0.00    -0.283 OA 
BRANCH  13  14
HETATM   14  C   UNL     1      -9.619  13.166  66.327  1.00  0.00    -0.234 C  
BRANCH  14  15
HETATM   15  N   UNL     1      -9.563  11.769  65.960  1.00  0.00    -0.227 NA 
HETATM   16  C   UNL     1      -9.948  11.256  64.744  1.00  0.00    -0.277 A  
HETATM   17  N   UNL     1      -9.668   9.970  64.635  1.00  0.00    -0.308 NA 
HETATM   18  C   UNL     1      -9.071   9.637  65.832  1.00  0.00    -0.178 A  
HETATM   19  C   UNL     1      -9.011  10.741  66.646  1.00  0.00    -0.153 A  
HETATM   20  N   UNL     1      -8.461  10.701  67.864  1.00  0.00    -0.119 NA 
HETATM   21  C   UNL     1      -7.927   9.499  68.260  1.00  0.00    -0.094 C  
HETATM   22  N   UNL     1      -7.329   9.549  69.476  1.00  0.00    -0.071 NA 
HETATM   23  N   UNL     1      -7.927   8.395  67.573  1.00  0.00    -0.105 N  
HETATM   24  H2  UNL     1      -7.280  10.397  70.041  1.00  0.00     0.000 HD 
HETATM   25  H1  UNL     1      -6.933   8.657  69.771  1.00  0.00     0.000 HD 
HETATM   26  H   UNL     1      -7.501   7.553  67.961  1.00  0.00     0.000 HD 
HETATM   27  C   UNL     1      -8.512   8.359  66.301  1.00  0.00    -0.127 C  
HETATM   28  O   UNL     1      -8.549   7.340  65.622  1.00  0.00    -0.148 OA 
ENDBRANCH  14  15
ENDBRANCH  13  14
ENDBRANCH  12  13
BRANCH  12  29
HETATM   29  C   UNL     1     -10.297  15.931  65.697  1.00  0.00    -0.390 C  
HETATM   30  O   UNL     1     -11.159  16.629  64.795  1.00  0.00    -0.643 OA 
HETATM   31  H   UNL     1     -10.640  17.203  64.244  1.00  0.00     0.000 HD 
ENDBRANCH  12  29
ENDBRANCH  11  12
ENDBRANCH  10  11
ENDBRANCH   8  10
ENDBRANCH   4   8
TORSDOF 8
ENDMDL
MODEL      150
REMARK 921   NORMALIZED FREE ENERGY PREDICTED BY IDOCK:   -4.79 KCAL/MOL
REMARK 922        TOTAL FREE ENERGY PREDICTED BY IDOCK:   -8.24 KCAL/MOL
REMARK 923 INTER-LIGAND FREE ENERGY PREDICTED BY IDOCK:   -7.56 KCAL/MOL
REMARK 924 INTRA-LIGAND FREE ENERGY PREDICTED BY IDOCK:   -0.68 KCAL/MOL
REMARK 927      BINDING AFFINITY PREDICTED BY RF-SCORE:    0.00 PKD
ROOT
HETATM    1  C   UNL     1     -10.999   7.408  69.395  1.00  0.00    -0.126 C  
HETATM    2  C   UNL     1     -10.295   8.678  69.886  1.00  0.00    -0.213 C  
HETATM    3  C   UNL     1      -9.991   8.557  71.383  1.00  0.00    -0.301 C  
HETATM    4  C   UNL     1     -11.081   9.973  69.560  1.00  0.00    -0.238 C  
HETATM    5  N   UNL     1     -12.429   9.970  70.171  1.00  0.00    -0.513 NA 
HETATM    6  H1  UNL     1     -12.946  10.823  69.956  1.00  0.00     0.000 HD 
HETATM    7  H2  UNL     1     -12.380   9.811  71.177  1.00  0.00     0.000 HD 
ENDROOT
BRANCH   4   8
HETATM    8  C   UNL     1     -11.156  10.206  68.037  1.00  0.00    -0.240 C  
HETATM    9  O   UNL     1     -10.515   9.575  67.206  1.00  0.00    -0.246 OA 
BRANCH   8  10
HETATM   10  O   UNL     1     -11.976  11.255  67.728  1.00  0.00    -0.637 OA 
BRANCH  10  11
HETATM   11  C   UNL     1     -11.535  12.111  66.659  1.00  0.00    -0.365 C  
BRANCH  11  12
HETATM   12  C   UNL     1     -10.550  13.160  67.200  1.00  0.00    -0.257 C  
BRANCH  12  13
HETATM   13  O   UNL     1     -10.843  14.502  66.746  1.00  0.00    -0.294 OA 
BRANCH  13  14
HETATM   14  C   UNL     1     -11.312  15.355  67.789  1.00  0.00    -0.306 C  
BRANCH  14  15
HETATM   15  N   UNL     1     -10.220  16.185  68.247  1.00  0.00    -0.242 NA 
HETATM   16  C   UNL     1      -9.232  15.782  69.114  1.00  0.00    -0.256 A  
HETATM   17  N   UNL     1      -8.293  16.698  69.258  1.00  0.00    -0.115 NA 
HETATM   18  C   UNL     1      -8.687  17.738  68.444  1.00  0.00    -0.292 A  
HETATM   19  C   UNL     1      -9.872  17.423  67.827  1.00  0.00    -0.283 A  
HETATM   20  N   UNL     1     -10.472  18.252  66.965  1.00  0.00    -0.390 NA 
HETATM   21  C   UNL     1      -9.828  19.436  66.700  1.00  0.00    -0.374 C  
HETATM   22  N   UNL     1     -10.458  20.196  65.771  1.00  0.00    -0.403 NA 
HETATM   23  N   UNL     1      -8.706  19.835  67.224  1.00  0.00    -0.310 N  
HETATM   24  H2  UNL     1     -11.325  19.915  65.313  1.00  0.00     0.000 HD 
HETATM   25  H1  UNL     1      -9.981  21.076  65.574  1.00  0.00     0.000 HD 
HETATM   26  H   UNL     1      -8.311  20.736  66.957  1.00  0.00     0.000 HD 
HETATM   27  C   UNL     1      -8.040  19.028  68.155  1.00  0.00    -0.312 C  
HETATM   28  O   UNL     1      -6.989  19.366  68.686  1.00  0.00    -0.286 OA 
ENDBRANCH  14  15
ENDBRANCH  13  14
ENDBRANCH  12  13
BRANCH  12  29
HETATM   29  C   UNL     1      -9.118  12.826  66.754  1.00  0.00    -0.209 C  
HETATM   30  O   UNL     1      -9.162  11.844  65.716  1.00  0.00    -0.355 OA 
HETATM   31  H   UNL     1      -8.277  11.637  65.440  1.00  0.00     0.000 HD 
ENDBRANCH  12  29
ENDBRANCH  11  12
ENDBRANCH  10  11
ENDBRANCH   8  10
ENDBRANCH   4   8
TORSDOF 8
ENDMDL
MODEL      151
REMARK 921   NORMALIZED FREE ENERGY PREDICTED BY IDOCK:   -4.78 KCAL/MOL
REMARK 922        TOTAL FREE ENERGY PREDICTED BY IDOCK:   -8.23 KCAL/MOL
REMARK 923 INTER-LIGAND FREE ENERGY PREDICTED BY IDOCK:   -7.27 KCAL/MOL
REMARK 924 INTRA-LIGAND FREE ENERGY PREDICTED BY IDOCK:   -0.96 KCAL/MOL
REMARK 927      BINDING AFFINITY PREDICTED BY RF-SCORE:    0.00 PKD
ROOT
HETATM    1  C   UNL     1     -11.003   6.619  67.036  1.00  0.00    -0.463 C  
HETATM    2  C   UNL     1      -9.505   6.397  67.275  1.00  0.00    -0.135 C  
HETATM    3  C   UNL     1      -8.943   5.454  66.206  1.00  0.00    -0.137 C  
HETATM    4  C   UNL     1      -9.185   5.901  68.708  1.00  0.00    -0.115 C  
HETATM    5  N   UNL     1      -9.859   4.619  69.012  1.00  0.00    -0.174 NA 
HETATM    6  H1  UNL     1      -9.649   4.293  69.955  1.00  0.00     0.000 HD 
HETATM    7  H2  UNL     1      -9.636   3.908  68.316  1.00  0.00     0.000 HD 
ENDROOT
BRANCH   4   8
HETATM    8  C   UNL     1      -9.531   6.979  69.756  1.00  0.00    -0.145 C  
HETATM    9  O   UNL     1     -10.118   6.760  70.809  1.00  0.00    -0.190 OA 
BRANCH   8  10
HETATM   10  O   UNL     1      -9.167   8.227  69.335  1.00  0.00    -0.153 OA 
BRANCH  10  11
HETATM   11  C   UNL     1      -9.575   9.324  70.171  1.00  0.00    -0.220 C  
BRANCH  11  12
HETATM   12  C   UNL     1     -10.896   9.915  69.654  1.00  0.00    -0.253 C  
BRANCH  12  13
HETATM   13  O   UNL     1     -10.774  11.290  69.223  1.00  0.00    -0.219 OA 
BRANCH  13  14
HETATM   14  C   UNL     1     -12.034  11.918  68.994  1.00  0.00    -0.262 C  
BRANCH  14  15
HETATM   15  N   UNL     1     -11.813  13.300  68.632  1.00  0.00    -0.336 NA 
HETATM   16  C   UNL     1     -11.959  14.372  69.481  1.00  0.00    -0.330 A  
HETATM   17  N   UNL     1     -11.568  15.503  68.924  1.00  0.00    -0.354 NA 
HETATM   18  C   UNL     1     -11.146  15.148  67.662  1.00  0.00    -0.318 A  
HETATM   19  C   UNL     1     -11.301  13.796  67.482  1.00  0.00    -0.309 A  
HETATM   20  N   UNL     1     -10.950  13.181  66.347  1.00  0.00    -0.286 NA 
HETATM   21  C   UNL     1     -10.396  13.967  65.366  1.00  0.00    -0.359 C  
HETATM   22  N   UNL     1     -10.005  13.269  64.272  1.00  0.00    -0.713 NA 
HETATM   23  N   UNL     1     -10.203  15.253  65.430  1.00  0.00    -0.373 N  
HETATM   24  H2  UNL     1     -10.112  12.258  64.186  1.00  0.00     0.000 HD 
HETATM   25  H1  UNL     1      -9.594  13.852  63.543  1.00  0.00     0.000 HD 
HETATM   26  H   UNL     1      -9.781  15.743  64.641  1.00  0.00     0.000 HD 
HETATM   27  C   UNL     1     -10.573  15.963  66.578  1.00  0.00    -0.297 C  
HETATM   28  O   UNL     1     -10.424  17.175  66.679  1.00  0.00    -0.314 OA 
ENDBRANCH  14  15
ENDBRANCH  13  14
ENDBRANCH  12  13
BRANCH  12  29
HETATM   29  C   UNL     1     -11.966   9.871  70.756  1.00  0.00    -0.323 C  
HETATM   30  O   UNL     1     -12.558   8.571  70.792  1.00  0.00    -0.497 OA 
HETATM   31  H   UNL     1     -13.219   8.544  71.473  1.00  0.00     0.000 HD 
ENDBRANCH  12  29
ENDBRANCH  11  12
ENDBRANCH  10  11
ENDBRANCH   8  10
ENDBRANCH   4   8
TORSDOF 8
ENDMDL
MODEL      152
REMARK 921   NORMALIZED FREE ENERGY PREDICTED BY IDOCK:   -4.77 KCAL/MOL
REMARK 922        TOTAL FREE ENERGY PREDICTED BY IDOCK:   -8.22 KCAL/MOL
REMARK 923 INTER-LIGAND FREE ENERGY PREDICTED BY IDOCK:   -8.25 KCAL/MOL
REMARK 924 INTRA-LIGAND FREE ENERGY PREDICTED BY IDOCK:    0.03 KCAL/MOL
REMARK 927      BINDING AFFINITY PREDICTED BY RF-SCORE:    0.00 PKD
ROOT
HETATM    1  C   UNL     1      -7.833  14.829  67.936  1.00  0.00    -0.145 C  
HETATM    2  C   UNL     1      -6.530  15.448  67.414  1.00  0.00    -0.115 C  
HETATM    3  C   UNL     1      -5.352  14.976  68.271  1.00  0.00    -0.114 C  
HETATM    4  C   UNL     1      -6.589  16.994  67.315  1.00  0.00    -0.164 C  
HETATM    5  N   UNL     1      -6.863  17.622  68.627  1.00  0.00    -0.220 NA 
HETATM    6  H1  UNL     1      -6.902  18.639  68.561  1.00  0.00     0.000 HD 
HETATM    7  H2  UNL     1      -6.189  17.321  69.330  1.00  0.00     0.000 HD 
ENDROOT
BRANCH   4   8
HETATM    8  C   UNL     1      -7.616  17.442  66.254  1.00  0.00    -0.313 C  
HETATM    9  O   UNL     1      -7.525  18.466  65.589  1.00  0.00    -0.521 OA 
BRANCH   8  10
HETATM   10  O   UNL     1      -8.684  16.590  66.197  1.00  0.00    -0.307 OA 
BRANCH  10  11
HETATM   11  C   UNL     1      -9.923  17.089  66.733  1.00  0.00    -0.295 C  
BRANCH  11  12
HETATM   12  C   UNL     1     -11.081  16.167  66.320  1.00  0.00     0.092 C  
BRANCH  12  13
HETATM   13  O   UNL     1     -11.170  14.970  67.126  1.00  0.00    -0.331 OA 
BRANCH  13  14
HETATM   14  C   UNL     1     -12.082  14.008  66.600  1.00  0.00    -0.456 C  
BRANCH  14  15
HETATM   15  N   UNL     1     -11.531  12.684  66.783  1.00  0.00    -0.330 NA 
HETATM   16  C   UNL     1     -11.782  11.866  67.859  1.00  0.00    -0.298 A  
HETATM   17  N   UNL     1     -11.254  10.666  67.705  1.00  0.00    -0.356 NA 
HETATM   18  C   UNL     1     -10.639  10.707  66.473  1.00  0.00    -0.193 A  
HETATM   19  C   UNL     1     -10.806  11.947  65.909  1.00  0.00    -0.297 A  
HETATM   20  N   UNL     1     -10.322  12.254  64.701  1.00  0.00    -0.291 NA 
HETATM   21  C   UNL     1      -9.666  11.253  64.027  1.00  0.00    -0.265 C  
HETATM   22  N   UNL     1      -9.261  11.615  62.785  1.00  0.00    -0.600 NA 
HETATM   23  N   UNL     1      -9.452  10.046  64.463  1.00  0.00    -0.290 N  
HETATM   24  H2  UNL     1      -9.428  12.540  62.389  1.00  0.00     0.000 HD 
HETATM   25  H1  UNL     1      -8.773  10.872  62.284  1.00  0.00     0.000 HD 
HETATM   26  H   UNL     1      -8.951   9.375  63.880  1.00  0.00     0.000 HD 
HETATM   27  C   UNL     1      -9.906   9.666  65.732  1.00  0.00    -0.302 C  
HETATM   28  O   UNL     1      -9.717   8.547  66.191  1.00  0.00    -0.241 OA 
ENDBRANCH  14  15
ENDBRANCH  13  14
ENDBRANCH  12  13
BRANCH  12  29
HETATM   29  C   UNL     1     -10.915  15.726  64.857  1.00  0.00    -0.427 C  
HETATM   30  O   UNL     1     -11.354  16.775  63.993  1.00  0.00    -1.471 OA 
HETATM   31  H   UNL     1     -11.251  16.503  63.089  1.00  0.00     0.000 HD 
ENDBRANCH  12  29
ENDBRANCH  11  12
ENDBRANCH  10  11
ENDBRANCH   8  10
ENDBRANCH   4   8
TORSDOF 8
ENDMDL
MODEL      153
REMARK 921   NORMALIZED FREE ENERGY PREDICTED BY IDOCK:   -4.77 KCAL/MOL
REMARK 922        TOTAL FREE ENERGY PREDICTED BY IDOCK:   -8.21 KCAL/MOL
REMARK 923 INTER-LIGAND FREE ENERGY PREDICTED BY IDOCK:   -7.37 KCAL/MOL
REMARK 924 INTRA-LIGAND FREE ENERGY PREDICTED BY IDOCK:   -0.84 KCAL/MOL
REMARK 927      BINDING AFFINITY PREDICTED BY RF-SCORE:    0.00 PKD
ROOT
HETATM    1  C   UNL     1     -11.714  15.894  73.198  1.00  0.00    -0.377 C  
HETATM    2  C   UNL     1     -11.652  15.412  71.743  1.00  0.00    -0.501 C  
HETATM    3  C   UNL     1     -11.111  16.531  70.848  1.00  0.00     0.050 C  
HETATM    4  C   UNL     1     -13.006  14.863  71.227  1.00  0.00    -0.363 C  
HETATM    5  N   UNL     1     -14.077  15.884  71.292  1.00  0.00    -0.294 NA 
HETATM    6  H1  UNL     1     -14.968  15.523  70.952  1.00  0.00     0.000 HD 
HETATM    7  H2  UNL     1     -13.809  16.734  70.797  1.00  0.00     0.000 HD 
ENDROOT
BRANCH   4   8
HETATM    8  C   UNL     1     -13.409  13.581  71.984  1.00  0.00    -0.475 C  
HETATM    9  O   UNL     1     -14.395  13.480  72.703  1.00  0.00    -0.716 OA 
BRANCH   8  10
HETATM   10  O   UNL     1     -12.488  12.586  71.813  1.00  0.00    -0.058 OA 
BRANCH  10  11
HETATM   11  C   UNL     1     -12.999  11.241  71.810  1.00  0.00    -0.414 C  
BRANCH  11  12
HETATM   12  C   UNL     1     -11.948  10.281  71.229  1.00  0.00    -0.363 C  
BRANCH  12  13
HETATM   13  O   UNL     1     -11.794  10.408  69.797  1.00  0.00    -0.249 OA 
BRANCH  13  14
HETATM   14  C   UNL     1     -10.546  10.986  69.418  1.00  0.00    -0.174 C  
BRANCH  14  15
HETATM   15  N   UNL     1     -10.727  11.742  68.199  1.00  0.00    -0.204 NA 
HETATM   16  C   UNL     1     -11.713  11.516  67.269  1.00  0.00    -0.111 A  
HETATM   17  N   UNL     1     -11.723  12.435  66.321  1.00  0.00    -0.472 NA 
HETATM   18  C   UNL     1     -10.702  13.297  66.655  1.00  0.00    -0.280 A  
HETATM   19  C   UNL     1     -10.088  12.869  67.806  1.00  0.00    -0.229 A  
HETATM   20  N   UNL     1      -9.072  13.535  68.365  1.00  0.00    -0.184 NA 
HETATM   21  C   UNL     1      -8.682  14.697  67.745  1.00  0.00    -0.171 C  
HETATM   22  N   UNL     1      -7.693  15.352  68.400  1.00  0.00    -0.117 NA 
HETATM   23  N   UNL     1      -9.191  15.195  66.656  1.00  0.00    -0.252 N  
HETATM   24  H2  UNL     1      -7.280  15.016  69.270  1.00  0.00     0.000 HD 
HETATM   25  H1  UNL     1      -7.402  16.215  67.940  1.00  0.00     0.000 HD 
HETATM   26  H   UNL     1      -8.826  16.068  66.276  1.00  0.00     0.000 HD 
HETATM   27  C   UNL     1     -10.238  14.533  66.003  1.00  0.00    -0.315 C  
HETATM   28  O   UNL     1     -10.741  14.955  64.969  1.00  0.00    -0.380 OA 
ENDBRANCH  14  15
ENDBRANCH  13  14
ENDBRANCH  12  13
BRANCH  12  29
HETATM   29  C   UNL     1     -12.337   8.824  71.524  1.00  0.00    -0.328 C  
HETATM   30  O   UNL     1     -13.688   8.779  71.988  1.00  0.00    -0.389 OA 
HETATM   31  H   UNL     1     -13.928   7.878  72.170  1.00  0.00     0.000 HD 
ENDBRANCH  12  29
ENDBRANCH  11  12
ENDBRANCH  10  11
ENDBRANCH   8  10
ENDBRANCH   4   8
TORSDOF 8
ENDMDL
MODEL      154
REMARK 921   NORMALIZED FREE ENERGY PREDICTED BY IDOCK:   -4.76 KCAL/MOL
REMARK 922        TOTAL FREE ENERGY PREDICTED BY IDOCK:   -8.21 KCAL/MOL
REMARK 923 INTER-LIGAND FREE ENERGY PREDICTED BY IDOCK:   -6.98 KCAL/MOL
REMARK 924 INTRA-LIGAND FREE ENERGY PREDICTED BY IDOCK:   -1.23 KCAL/MOL
REMARK 927      BINDING AFFINITY PREDICTED BY RF-SCORE:    0.00 PKD
ROOT
HETATM    1  C   UNL     1     -12.280  13.218  70.148  1.00  0.00    -0.376 C  
HETATM    2  C   UNL     1     -11.349  14.346  69.685  1.00  0.00    -0.309 C  
HETATM    3  C   UNL     1     -11.854  15.689  70.224  1.00  0.00    -0.386 C  
HETATM    4  C   UNL     1     -11.152  14.378  68.149  1.00  0.00    -0.264 C  
HETATM    5  N   UNL     1     -12.433  14.561  67.430  1.00  0.00    -0.492 NA 
HETATM    6  H1  UNL     1     -12.302  14.582  66.419  1.00  0.00     0.000 HD 
HETATM    7  H2  UNL     1     -12.926  15.391  67.757  1.00  0.00     0.000 HD 
ENDROOT
BRANCH   4   8
HETATM    8  C   UNL     1     -10.410  13.117  67.660  1.00  0.00    -0.223 C  
HETATM    9  O   UNL     1      -9.349  12.714  68.120  1.00  0.00    -0.202 OA 
BRANCH   8  10
HETATM   10  O   UNL     1     -11.046  12.540  66.597  1.00  0.00    -0.260 OA 
BRANCH  10  11
HETATM   11  C   UNL     1     -10.412  12.699  65.315  1.00  0.00    -0.289 C  
BRANCH  11  12
HETATM   12  C   UNL     1     -10.287  11.334  64.619  1.00  0.00    -0.315 C  
BRANCH  12  13
HETATM   13  O   UNL     1      -9.292  10.476  65.224  1.00  0.00    -0.185 OA 
BRANCH  13  14
HETATM   14  C   UNL     1      -9.857   9.360  65.908  1.00  0.00    -0.291 C  
BRANCH  14  15
HETATM   15  N   UNL     1      -9.197   9.205  67.185  1.00  0.00    -0.132 NA 
HETATM   16  C   UNL     1      -7.836   9.127  67.366  1.00  0.00    -0.099 A  
HETATM   17  N   UNL     1      -7.504   9.120  68.643  1.00  0.00    -0.079 NA 
HETATM   18  C   UNL     1      -8.702   9.201  69.319  1.00  0.00    -0.139 A  
HETATM   19  C   UNL     1      -9.741   9.249  68.423  1.00  0.00    -0.154 A  
HETATM   20  N   UNL     1     -11.016   9.350  68.813  1.00  0.00    -0.107 NA 
HETATM   21  C   UNL     1     -11.244   9.431  70.165  1.00  0.00    -0.219 C  
HETATM   22  N   UNL     1     -12.551   9.597  70.483  1.00  0.00    -0.503 NA 
HETATM   23  N   UNL     1     -10.339   9.396  71.099  1.00  0.00    -0.315 N  
HETATM   24  H2  UNL     1     -13.293   9.656  69.786  1.00  0.00     0.000 HD 
HETATM   25  H1  UNL     1     -12.720   9.656  71.487  1.00  0.00     0.000 HD 
HETATM   26  H   UNL     1     -10.615   9.465  72.079  1.00  0.00     0.000 HD 
HETATM   27  C   UNL     1      -8.986   9.264  70.763  1.00  0.00    -0.232 C  
HETATM   28  O   UNL     1      -8.100   9.213  71.607  1.00  0.00    -0.346 OA 
ENDBRANCH  14  15
ENDBRANCH  13  14
ENDBRANCH  12  13
BRANCH  12  29
HETATM   29  C   UNL     1      -9.899  11.522  63.145  1.00  0.00    -0.390 C  
HETATM   30  O   UNL     1     -10.331  10.387  62.391  1.00  0.00    -0.669 OA 
HETATM   31  H   UNL     1     -10.091  10.503  61.480  1.00  0.00     0.000 HD 
ENDBRANCH  12  29
ENDBRANCH  11  12
ENDBRANCH  10  11
ENDBRANCH   8  10
ENDBRANCH   4   8
TORSDOF 8
ENDMDL
MODEL      155
REMARK 921   NORMALIZED FREE ENERGY PREDICTED BY IDOCK:   -4.76 KCAL/MOL
REMARK 922        TOTAL FREE ENERGY PREDICTED BY IDOCK:   -8.20 KCAL/MOL
REMARK 923 INTER-LIGAND FREE ENERGY PREDICTED BY IDOCK:   -7.13 KCAL/MOL
REMARK 924 INTRA-LIGAND FREE ENERGY PREDICTED BY IDOCK:   -1.07 KCAL/MOL
REMARK 927      BINDING AFFINITY PREDICTED BY RF-SCORE:    0.00 PKD
ROOT
HETATM    1  C   UNL     1     -14.085  15.203  71.329  1.00  0.00    -0.537 C  
HETATM    2  C   UNL     1     -12.749  14.723  71.908  1.00  0.00    -0.396 C  
HETATM    3  C   UNL     1     -12.915  14.395  73.395  1.00  0.00    -0.246 C  
HETATM    4  C   UNL     1     -11.588  15.721  71.663  1.00  0.00    -0.457 C  
HETATM    5  N   UNL     1     -11.861  17.045  72.264  1.00  0.00    -0.178 NA 
HETATM    6  H1  UNL     1     -11.097  17.701  72.103  1.00  0.00     0.000 HD 
HETATM    7  H2  UNL     1     -12.076  16.965  73.258  1.00  0.00     0.000 HD 
ENDROOT
BRANCH   4   8
HETATM    8  C   UNL     1     -11.272  15.843  70.158  1.00  0.00    -0.364 C  
HETATM    9  O   UNL     1     -11.254  14.902  69.374  1.00  0.00    -0.255 OA 
BRANCH   8  10
HETATM   10  O   UNL     1     -10.940  17.124  69.816  1.00  0.00    -0.045 OA 
BRANCH  10  11
HETATM   11  C   UNL     1      -9.868  17.270  68.867  1.00  0.00    -0.286 C  
BRANCH  11  12
HETATM   12  C   UNL     1     -10.354  18.068  67.647  1.00  0.00    -0.388 C  
BRANCH  12  13
HETATM   13  O   UNL     1     -10.509  17.254  66.461  1.00  0.00    -0.318 OA 
BRANCH  13  14
HETATM   14  C   UNL     1      -9.318  16.555  66.104  1.00  0.00    -0.304 C  
BRANCH  14  15
HETATM   15  N   UNL     1      -9.607  15.140  66.026  1.00  0.00    -0.312 NA 
HETATM   16  C   UNL     1     -10.377  14.544  65.055  1.00  0.00    -0.413 A  
HETATM   17  N   UNL     1     -10.366  13.228  65.151  1.00  0.00    -0.320 NA 
HETATM   18  C   UNL     1      -9.549  12.959  66.228  1.00  0.00    -0.243 A  
HETATM   19  C   UNL     1      -9.086  14.134  66.766  1.00  0.00    -0.247 A  
HETATM   20  N   UNL     1      -8.255  14.162  67.814  1.00  0.00    -0.155 NA 
HETATM   21  C   UNL     1      -7.858  12.948  68.318  1.00  0.00    -0.142 C  
HETATM   22  N   UNL     1      -6.967  13.051  69.334  1.00  0.00    -0.315 NA 
HETATM   23  N   UNL     1      -8.231  11.778  67.887  1.00  0.00    -0.139 N  
HETATM   24  H2  UNL     1      -6.625  13.944  69.689  1.00  0.00     0.000 HD 
HETATM   25  H1  UNL     1      -6.672  12.150  69.709  1.00  0.00     0.000 HD 
HETATM   26  H   UNL     1      -7.874  10.933  68.334  1.00  0.00     0.000 HD 
HETATM   27  C   UNL     1      -9.122  11.677  66.811  1.00  0.00    -0.186 C  
HETATM   28  O   UNL     1      -9.513  10.599  66.379  1.00  0.00    -0.164 OA 
ENDBRANCH  14  15
ENDBRANCH  13  14
ENDBRANCH  12  13
BRANCH  12  29
HETATM   29  C   UNL     1      -9.355  19.186  67.310  1.00  0.00    -0.301 C  
HETATM   30  O   UNL     1      -9.904  20.021  66.289  1.00  0.00    -0.422 OA 
HETATM   31  H   UNL     1      -9.287  20.712  66.080  1.00  0.00     0.000 HD 
ENDBRANCH  12  29
ENDBRANCH  11  12
ENDBRANCH  10  11
ENDBRANCH   8  10
ENDBRANCH   4   8
TORSDOF 8
ENDMDL
MODEL      156
REMARK 921   NORMALIZED FREE ENERGY PREDICTED BY IDOCK:   -4.76 KCAL/MOL
REMARK 922        TOTAL FREE ENERGY PREDICTED BY IDOCK:   -8.20 KCAL/MOL
REMARK 923 INTER-LIGAND FREE ENERGY PREDICTED BY IDOCK:   -7.39 KCAL/MOL
REMARK 924 INTRA-LIGAND FREE ENERGY PREDICTED BY IDOCK:   -0.81 KCAL/MOL
REMARK 927      BINDING AFFINITY PREDICTED BY RF-SCORE:    0.00 PKD
ROOT
HETATM    1  C   UNL     1     -11.719  15.367  64.600  1.00  0.00    -0.267 C  
HETATM    2  C   UNL     1     -10.863  14.724  65.699  1.00  0.00    -0.344 C  
HETATM    3  C   UNL     1      -9.537  15.480  65.833  1.00  0.00    -0.383 C  
HETATM    4  C   UNL     1     -10.642  13.205  65.485  1.00  0.00    -0.288 C  
HETATM    5  N   UNL     1      -9.968  12.920  64.199  1.00  0.00    -0.646 NA 
HETATM    6  H1  UNL     1      -9.823  11.920  64.059  1.00  0.00     0.000 HD 
HETATM    7  H2  UNL     1      -9.093  13.436  64.116  1.00  0.00     0.000 HD 
ENDROOT
BRANCH   4   8
HETATM    8  C   UNL     1     -11.971  12.430  65.605  1.00  0.00    -0.386 C  
HETATM    9  O   UNL     1     -12.922  12.562  64.844  1.00  0.00    -0.821 OA 
BRANCH   8  10
HETATM   10  O   UNL     1     -11.987  11.627  66.711  1.00  0.00    -0.536 OA 
BRANCH  10  11
HETATM   11  C   UNL     1     -11.731  12.276  67.970  1.00  0.00    -0.356 C  
BRANCH  11  12
HETATM   12  C   UNL     1     -11.194  11.254  68.985  1.00  0.00    -0.258 C  
BRANCH  12  13
HETATM   13  O   UNL     1     -11.194   9.899  68.482  1.00  0.00    -0.181 OA 
BRANCH  13  14
HETATM   14  C   UNL     1     -10.032   9.162  68.859  1.00  0.00    -0.180 C  
BRANCH  14  15
HETATM   15  N   UNL     1      -8.855   9.896  68.452  1.00  0.00    -0.119 NA 
HETATM   16  C   UNL     1      -7.903  10.398  69.307  1.00  0.00    -0.147 A  
HETATM   17  N   UNL     1      -6.872  10.909  68.659  1.00  0.00    -0.059 NA 
HETATM   18  C   UNL     1      -7.167  10.724  67.327  1.00  0.00    -0.096 A  
HETATM   19  C   UNL     1      -8.386  10.106  67.200  1.00  0.00    -0.125 A  
HETATM   20  N   UNL     1      -8.907   9.790  66.009  1.00  0.00    -0.143 NA 
HETATM   21  C   UNL     1      -8.148  10.090  64.905  1.00  0.00    -0.154 C  
HETATM   22  N   UNL     1      -8.708   9.684  63.739  1.00  0.00    -0.209 NA 
HETATM   23  N   UNL     1      -6.984  10.672  64.908  1.00  0.00    -0.361 N  
HETATM   24  H2  UNL     1      -9.605   9.202  63.687  1.00  0.00     0.000 HD 
HETATM   25  H1  UNL     1      -8.145   9.907  62.918  1.00  0.00     0.000 HD 
HETATM   26  H   UNL     1      -6.502  10.849  64.027  1.00  0.00     0.000 HD 
HETATM   27  C   UNL     1      -6.393  11.055  66.118  1.00  0.00    -0.096 C  
HETATM   28  O   UNL     1      -5.306  11.617  66.171  1.00  0.00    -0.304 OA 
ENDBRANCH  14  15
ENDBRANCH  13  14
ENDBRANCH  12  13
BRANCH  12  29
HETATM   29  C   UNL     1     -12.050  11.272  70.261  1.00  0.00    -0.373 C  
HETATM   30  O   UNL     1     -13.106  10.316  70.137  1.00  0.00    -0.560 OA 
HETATM   31  H   UNL     1     -13.635  10.327  70.925  1.00  0.00     0.000 HD 
ENDBRANCH  12  29
ENDBRANCH  11  12
ENDBRANCH  10  11
ENDBRANCH   8  10
ENDBRANCH   4   8
TORSDOF 8
ENDMDL
MODEL      157
REMARK 921   NORMALIZED FREE ENERGY PREDICTED BY IDOCK:   -4.75 KCAL/MOL
REMARK 922        TOTAL FREE ENERGY PREDICTED BY IDOCK:   -8.19 KCAL/MOL
REMARK 923 INTER-LIGAND FREE ENERGY PREDICTED BY IDOCK:   -7.22 KCAL/MOL
REMARK 924 INTRA-LIGAND FREE ENERGY PREDICTED BY IDOCK:   -0.97 KCAL/MOL
REMARK 927      BINDING AFFINITY PREDICTED BY RF-SCORE:    0.00 PKD
ROOT
HETATM    1  C   UNL     1     -12.624  13.636  65.455  1.00  0.00    -0.541 C  
HETATM    2  C   UNL     1     -11.301  14.406  65.545  1.00  0.00    -0.334 C  
HETATM    3  C   UNL     1     -11.378  15.672  64.687  1.00  0.00    -0.355 C  
HETATM    4  C   UNL     1     -10.068  13.539  65.186  1.00  0.00    -0.256 C  
HETATM    5  N   UNL     1     -10.154  12.999  63.810  1.00  0.00    -0.744 NA 
HETATM    6  H1  UNL     1      -9.342  12.429  63.573  1.00  0.00     0.000 HD 
HETATM    7  H2  UNL     1     -10.294  13.744  63.127  1.00  0.00     0.000 HD 
ENDROOT
BRANCH   4   8
HETATM    8  C   UNL     1      -9.865  12.410  66.218  1.00  0.00    -0.247 C  
HETATM    9  O   UNL     1     -10.329  11.281  66.112  1.00  0.00    -0.237 OA 
BRANCH   8  10
HETATM   10  O   UNL     1      -9.163  12.845  67.307  1.00  0.00    -0.193 OA 
BRANCH  10  11
HETATM   11  C   UNL     1      -7.760  12.526  67.325  1.00  0.00    -0.146 C  
BRANCH  11  12
HETATM   12  C   UNL     1      -7.012  13.506  68.244  1.00  0.00    -0.108 C  
BRANCH  12  13
HETATM   13  O   UNL     1      -6.246  14.494  67.518  1.00  0.00    -0.313 OA 
BRANCH  13  14
HETATM   14  C   UNL     1      -6.195  15.757  68.178  1.00  0.00    -0.123 C  
BRANCH  14  15
HETATM   15  N   UNL     1      -7.047  16.692  67.476  1.00  0.00    -0.135 NA 
HETATM   16  C   UNL     1      -6.768  17.246  66.250  1.00  0.00    -0.234 A  
HETATM   17  N   UNL     1      -7.776  17.961  65.786  1.00  0.00    -0.551 NA 
HETATM   18  C   UNL     1      -8.752  17.862  66.753  1.00  0.00    -0.254 A  
HETATM   19  C   UNL     1      -8.302  17.086  67.792  1.00  0.00    -0.196 A  
HETATM   20  N   UNL     1      -9.060  16.810  68.859  1.00  0.00    -0.251 NA 
HETATM   21  C   UNL     1     -10.335  17.322  68.859  1.00  0.00    -0.352 C  
HETATM   22  N   UNL     1     -11.066  16.950  69.938  1.00  0.00    -0.348 NA 
HETATM   23  N   UNL     1     -10.863  18.066  67.931  1.00  0.00    -0.307 N  
HETATM   24  H2  UNL     1     -10.705  16.348  70.678  1.00  0.00     0.000 HD 
HETATM   25  H1  UNL     1     -12.012  17.330  69.938  1.00  0.00     0.000 HD 
HETATM   26  H   UNL     1     -11.824  18.395  68.028  1.00  0.00     0.000 HD 
HETATM   27  C   UNL     1     -10.116  18.416  66.800  1.00  0.00    -0.373 C  
HETATM   28  O   UNL     1     -10.565  19.124  65.907  1.00  0.00    -0.480 OA 
ENDBRANCH  14  15
ENDBRANCH  13  14
ENDBRANCH  12  13
BRANCH  12  29
HETATM   29  C   UNL     1      -6.036  12.743  69.153  1.00  0.00    -0.086 C  
HETATM   30  O   UNL     1      -6.322  11.344  69.088  1.00  0.00    -0.060 OA 
HETATM   31  H   UNL     1      -5.718  10.872  69.650  1.00  0.00     0.000 HD 
ENDBRANCH  12  29
ENDBRANCH  11  12
ENDBRANCH  10  11
ENDBRANCH   8  10
ENDBRANCH   4   8
TORSDOF 8
ENDMDL
MODEL      158
REMARK 921   NORMALIZED FREE ENERGY PREDICTED BY IDOCK:   -4.75 KCAL/MOL
REMARK 922        TOTAL FREE ENERGY PREDICTED BY IDOCK:   -8.19 KCAL/MOL
REMARK 923 INTER-LIGAND FREE ENERGY PREDICTED BY IDOCK:   -7.45 KCAL/MOL
REMARK 924 INTRA-LIGAND FREE ENERGY PREDICTED BY IDOCK:   -0.74 KCAL/MOL
REMARK 927      BINDING AFFINITY PREDICTED BY RF-SCORE:    0.00 PKD
ROOT
HETATM    1  C   UNL     1     -12.511  14.081  64.770  1.00  0.00    -0.392 C  
HETATM    2  C   UNL     1     -11.973  13.234  65.929  1.00  0.00    -0.466 C  
HETATM    3  C   UNL     1     -12.130  13.998  67.247  1.00  0.00    -0.405 C  
HETATM    4  C   UNL     1     -10.515  12.758  65.708  1.00  0.00    -0.276 C  
HETATM    5  N   UNL     1      -9.581  13.894  65.543  1.00  0.00    -0.529 NA 
HETATM    6  H1  UNL     1      -8.622  13.581  65.397  1.00  0.00     0.000 HD 
HETATM    7  H2  UNL     1      -9.644  14.543  66.327  1.00  0.00     0.000 HD 
ENDROOT
BRANCH   4   8
HETATM    8  C   UNL     1     -10.426  11.782  64.516  1.00  0.00    -0.304 C  
HETATM    9  O   UNL     1     -10.421  12.123  63.339  1.00  0.00    -0.441 OA 
BRANCH   8  10
HETATM   10  O   UNL     1     -10.426  10.480  64.930  1.00  0.00    -0.301 OA 
BRANCH  10  11
HETATM   11  C   UNL     1     -10.085  10.253  66.310  1.00  0.00    -0.236 C  
BRANCH  11  12
HETATM   12  C   UNL     1      -9.463   8.857  66.473  1.00  0.00    -0.211 C  
BRANCH  12  13
HETATM   13  O   UNL     1      -9.698   8.279  67.778  1.00  0.00    -0.148 OA 
BRANCH  13  14
HETATM   14  C   UNL     1     -10.786   7.357  67.792  1.00  0.00    -0.179 C  
BRANCH  14  15
HETATM   15  N   UNL     1     -10.815   6.682  69.071  1.00  0.00    -0.263 NA 
HETATM   16  C   UNL     1     -10.282   5.440  69.320  1.00  0.00    -0.245 A  
HETATM   17  N   UNL     1     -10.334   5.123  70.600  1.00  0.00    -0.251 NA 
HETATM   18  C   UNL     1     -10.923   6.210  71.208  1.00  0.00    -0.282 A  
HETATM   19  C   UNL     1     -11.222   7.165  70.268  1.00  0.00    -0.276 A  
HETATM   20  N   UNL     1     -11.785   8.334  70.590  1.00  0.00    -0.209 NA 
HETATM   21  C   UNL     1     -12.031   8.553  71.924  1.00  0.00    -0.345 C  
HETATM   22  N   UNL     1     -12.542   9.782  72.184  1.00  0.00    -0.331 NA 
HETATM   23  N   UNL     1     -11.789   7.722  72.896  1.00  0.00    -0.618 N  
HETATM   24  H2  UNL     1     -12.725  10.476  71.459  1.00  0.00     0.000 HD 
HETATM   25  H1  UNL     1     -12.725   9.944  73.174  1.00  0.00     0.000 HD 
HETATM   26  H   UNL     1     -12.010   7.985  73.856  1.00  0.00     0.000 HD 
HETATM   27  C   UNL     1     -11.226   6.469  72.625  1.00  0.00    -0.249 C  
HETATM   28  O   UNL     1     -10.992   5.649  73.505  1.00  0.00    -0.276 OA 
ENDBRANCH  14  15
ENDBRANCH  13  14
ENDBRANCH  12  13
BRANCH  12  29
HETATM   29  C   UNL     1      -7.942   8.926  66.267  1.00  0.00    -0.103 C  
HETATM   30  O   UNL     1      -7.552  10.285  66.057  1.00  0.00    -0.115 OA 
HETATM   31  H   UNL     1      -6.612  10.327  65.929  1.00  0.00     0.000 HD 
ENDBRANCH  12  29
ENDBRANCH  11  12
ENDBRANCH  10  11
ENDBRANCH   8  10
ENDBRANCH   4   8
TORSDOF 8
ENDMDL
MODEL      159
REMARK 921   NORMALIZED FREE ENERGY PREDICTED BY IDOCK:   -4.75 KCAL/MOL
REMARK 922        TOTAL FREE ENERGY PREDICTED BY IDOCK:   -8.18 KCAL/MOL
REMARK 923 INTER-LIGAND FREE ENERGY PREDICTED BY IDOCK:   -7.45 KCAL/MOL
REMARK 924 INTRA-LIGAND FREE ENERGY PREDICTED BY IDOCK:   -0.73 KCAL/MOL
REMARK 927      BINDING AFFINITY PREDICTED BY RF-SCORE:    0.00 PKD
ROOT
HETATM    1  C   UNL     1     -12.593  12.733  63.386  1.00  0.00    -0.317 C  
HETATM    2  C   UNL     1     -12.221  12.806  64.872  1.00  0.00    -0.519 C  
HETATM    3  C   UNL     1     -12.952  13.979  65.532  1.00  0.00    -0.353 C  
HETATM    4  C   UNL     1     -10.691  12.870  65.112  1.00  0.00    -0.305 C  
HETATM    5  N   UNL     1     -10.078  14.050  64.461  1.00  0.00    -0.714 NA 
HETATM    6  H1  UNL     1      -9.072  14.092  64.620  1.00  0.00     0.000 HD 
HETATM    7  H2  UNL     1     -10.535  14.914  64.753  1.00  0.00     0.000 HD 
ENDROOT
BRANCH   4   8
HETATM    8  C   UNL     1     -10.005  11.564  64.664  1.00  0.00    -0.261 C  
HETATM    9  O   UNL     1      -9.759  11.273  63.499  1.00  0.00    -0.271 OA 
BRANCH   8  10
HETATM   10  O   UNL     1      -9.769  10.731  65.721  1.00  0.00    -0.206 OA 
BRANCH  10  11
HETATM   11  C   UNL     1      -9.724  11.350  67.019  1.00  0.00    -0.190 C  
BRANCH  11  12
HETATM   12  C   UNL     1      -8.515  10.824  67.809  1.00  0.00    -0.120 C  
BRANCH  12  13
HETATM   13  O   UNL     1      -8.670  10.957  69.241  1.00  0.00    -0.099 OA 
BRANCH  13  14
HETATM   14  C   UNL     1      -8.972   9.723  69.888  1.00  0.00    -0.229 C  
BRANCH  14  15
HETATM   15  N   UNL     1     -10.267   9.827  70.523  1.00  0.00    -0.281 NA 
HETATM   16  C   UNL     1     -11.097  10.920  70.449  1.00  0.00     0.003 A  
HETATM   17  N   UNL     1     -12.269  10.694  71.012  1.00  0.00    -0.370 NA 
HETATM   18  C   UNL     1     -12.198   9.395  71.465  1.00  0.00    -0.369 A  
HETATM   19  C   UNL     1     -10.967   8.865  71.168  1.00  0.00    -0.286 A  
HETATM   20  N   UNL     1     -10.636   7.607  71.481  1.00  0.00    -0.212 NA 
HETATM   21  C   UNL     1     -11.602   6.851  72.097  1.00  0.00    -0.284 C  
HETATM   22  N   UNL     1     -11.221   5.570  72.325  1.00  0.00    -0.246 NA 
HETATM   23  N   UNL     1     -12.798   7.249  72.423  1.00  0.00    -0.484 N  
HETATM   24  H2  UNL     1     -10.305   5.204  72.065  1.00  0.00     0.000 HD 
HETATM   25  H1  UNL     1     -11.938   5.008  72.783  1.00  0.00     0.000 HD 
HETATM   26  H   UNL     1     -13.442   6.603  72.879  1.00  0.00     0.000 HD 
HETATM   27  C   UNL     1     -13.200   8.562  72.150  1.00  0.00    -0.352 C  
HETATM   28  O   UNL     1     -14.309   8.987  72.450  1.00  0.00    -0.499 OA 
ENDBRANCH  14  15
ENDBRANCH  13  14
ENDBRANCH  12  13
BRANCH  12  29
HETATM   29  C   UNL     1      -7.244  11.589  67.410  1.00  0.00    -0.119 C  
HETATM   30  O   UNL     1      -7.048  11.480  65.999  1.00  0.00    -0.366 OA 
HETATM   31  H   UNL     1      -6.262  11.953  65.752  1.00  0.00     0.000 HD 
ENDBRANCH  12  29
ENDBRANCH  11  12
ENDBRANCH  10  11
ENDBRANCH   8  10
ENDBRANCH   4   8
TORSDOF 8
ENDMDL
MODEL      160
REMARK 921   NORMALIZED FREE ENERGY PREDICTED BY IDOCK:   -4.75 KCAL/MOL
REMARK 922        TOTAL FREE ENERGY PREDICTED BY IDOCK:   -8.18 KCAL/MOL
REMARK 923 INTER-LIGAND FREE ENERGY PREDICTED BY IDOCK:   -7.35 KCAL/MOL
REMARK 924 INTRA-LIGAND FREE ENERGY PREDICTED BY IDOCK:   -0.83 KCAL/MOL
REMARK 927      BINDING AFFINITY PREDICTED BY RF-SCORE:    0.00 PKD
ROOT
HETATM    1  C   UNL     1      -8.122  10.209  67.369  1.00  0.00    -0.114 C  
HETATM    2  C   UNL     1      -9.595   9.794  67.275  1.00  0.00    -0.194 C  
HETATM    3  C   UNL     1      -9.932   8.818  68.408  1.00  0.00    -0.200 C  
HETATM    4  C   UNL     1      -9.977   9.221  65.887  1.00  0.00    -0.219 C  
HETATM    5  N   UNL     1      -9.175   8.025  65.543  1.00  0.00    -0.406 NA 
HETATM    6  H1  UNL     1      -9.427   7.649  64.629  1.00  0.00     0.000 HD 
HETATM    7  H2  UNL     1      -9.241   7.312  66.268  1.00  0.00     0.000 HD 
ENDROOT
BRANCH   4   8
HETATM    8  C   UNL     1      -9.869  10.303  64.793  1.00  0.00    -0.334 C  
HETATM    9  O   UNL     1      -9.125  10.235  63.821  1.00  0.00    -0.210 OA 
BRANCH   8  10
HETATM   10  O   UNL     1     -10.653  11.385  65.077  1.00  0.00    -0.286 OA 
BRANCH  10  11
HETATM   11  C   UNL     1     -10.603  12.470  64.133  1.00  0.00    -0.398 C  
BRANCH  11  12
HETATM   12  C   UNL     1     -11.063  13.773  64.807  1.00  0.00    -0.377 C  
BRANCH  12  13
HETATM   13  O   UNL     1      -9.985  14.494  65.446  1.00  0.00    -0.352 OA 
BRANCH  13  14
HETATM   14  C   UNL     1     -10.238  15.893  65.559  1.00  0.00    -0.365 C  
BRANCH  14  15
HETATM   15  N   UNL     1      -9.470  16.423  66.664  1.00  0.00    -0.242 NA 
HETATM   16  C   UNL     1      -9.625  16.059  67.980  1.00  0.00    -0.215 A  
HETATM   17  N   UNL     1      -8.707  16.602  68.758  1.00  0.00    -0.256 NA 
HETATM   18  C   UNL     1      -7.920  17.347  67.908  1.00  0.00    -0.218 A  
HETATM   19  C   UNL     1      -8.392  17.240  66.623  1.00  0.00    -0.257 A  
HETATM   20  N   UNL     1      -7.799  17.851  65.591  1.00  0.00    -0.486 NA 
HETATM   21  C   UNL     1      -6.669  18.578  65.872  1.00  0.00    -0.275 C  
HETATM   22  N   UNL     1      -6.086  19.115  64.772  1.00  0.00    -0.349 NA 
HETATM   23  N   UNL     1      -6.135  18.746  67.047  1.00  0.00    -0.166 N  
HETATM   24  H2  UNL     1      -6.451  18.990  63.828  1.00  0.00     0.000 HD 
HETATM   25  H1  UNL     1      -5.246  19.655  64.980  1.00  0.00     0.000 HD 
HETATM   26  H   UNL     1      -5.290  19.307  67.146  1.00  0.00     0.000 HD 
HETATM   27  C   UNL     1      -6.720  18.157  68.175  1.00  0.00    -0.206 C  
HETATM   28  O   UNL     1      -6.263  18.297  69.302  1.00  0.00    -0.235 OA 
ENDBRANCH  14  15
ENDBRANCH  13  14
ENDBRANCH  12  13
BRANCH  12  29
HETATM   29  C   UNL     1     -12.117  13.471  65.883  1.00  0.00    -0.435 C  
HETATM   30  O   UNL     1     -13.354  13.128  65.254  1.00  0.00    -0.557 OA 
HETATM   31  H   UNL     1     -14.005  12.942  65.919  1.00  0.00     0.000 HD 
ENDBRANCH  12  29
ENDBRANCH  11  12
ENDBRANCH  10  11
ENDBRANCH   8  10
ENDBRANCH   4   8
TORSDOF 8
ENDMDL
MODEL      161
REMARK 921   NORMALIZED FREE ENERGY PREDICTED BY IDOCK:   -4.74 KCAL/MOL
REMARK 922        TOTAL FREE ENERGY PREDICTED BY IDOCK:   -8.18 KCAL/MOL
REMARK 923 INTER-LIGAND FREE ENERGY PREDICTED BY IDOCK:   -7.29 KCAL/MOL
REMARK 924 INTRA-LIGAND FREE ENERGY PREDICTED BY IDOCK:   -0.88 KCAL/MOL
REMARK 927      BINDING AFFINITY PREDICTED BY RF-SCORE:    0.00 PKD
ROOT
HETATM    1  C   UNL     1     -10.205  18.283  66.005  1.00  0.00    -0.334 C  
HETATM    2  C   UNL     1     -10.616  18.778  67.397  1.00  0.00    -0.505 C  
HETATM    3  C   UNL     1     -10.098  20.203  67.615  1.00  0.00    -0.542 C  
HETATM    4  C   UNL     1     -10.174  17.823  68.535  1.00  0.00    -0.382 C  
HETATM    5  N   UNL     1      -8.706  17.640  68.565  1.00  0.00    -0.286 NA 
HETATM    6  H1  UNL     1      -8.416  17.012  69.314  1.00  0.00     0.000 HD 
HETATM    7  H2  UNL     1      -8.221  18.536  68.624  1.00  0.00     0.000 HD 
ENDROOT
BRANCH   4   8
HETATM    8  C   UNL     1     -10.906  16.469  68.436  1.00  0.00    -0.348 C  
HETATM    9  O   UNL     1     -11.974  16.216  68.980  1.00  0.00    -0.291 OA 
BRANCH   8  10
HETATM   10  O   UNL     1     -10.180  15.556  67.724  1.00  0.00    -0.237 OA 
BRANCH  10  11
HETATM   11  C   UNL     1     -10.917  14.450  67.172  1.00  0.00    -0.303 C  
BRANCH  11  12
HETATM   12  C   UNL     1     -10.425  13.131  67.789  1.00  0.00    -0.228 C  
BRANCH  12  13
HETATM   13  O   UNL     1     -10.864  12.944  69.154  1.00  0.00    -0.189 OA 
BRANCH  13  14
HETATM   14  C   UNL     1     -12.086  12.215  69.252  1.00  0.00    -0.178 C  
BRANCH  14  15
HETATM   15  N   UNL     1     -11.930  11.160  70.228  1.00  0.00    -0.344 NA 
HETATM   16  C   UNL     1     -12.830  10.867  71.225  1.00  0.00    -0.433 A  
HETATM   17  N   UNL     1     -12.498   9.775  71.888  1.00  0.00    -0.382 NA 
HETATM   18  C   UNL     1     -11.335   9.339  71.292  1.00  0.00    -0.353 A  
HETATM   19  C   UNL     1     -10.985  10.192  70.275  1.00  0.00    -0.317 A  
HETATM   20  N   UNL     1      -9.902   9.992  69.516  1.00  0.00    -0.217 NA 
HETATM   21  C   UNL     1      -9.161   8.867  69.782  1.00  0.00    -0.165 C  
HETATM   22  N   UNL     1      -8.118   8.695  68.934  1.00  0.00    -0.116 NA 
HETATM   23  N   UNL     1      -9.401   7.993  70.716  1.00  0.00    -0.156 N  
HETATM   24  H2  UNL     1      -7.905   9.337  68.171  1.00  0.00     0.000 HD 
HETATM   25  H1  UNL     1      -7.567   7.859  69.132  1.00  0.00     0.000 HD 
HETATM   26  H   UNL     1      -8.785   7.188  70.830  1.00  0.00     0.000 HD 
HETATM   27  C   UNL     1     -10.502   8.157  71.566  1.00  0.00    -0.221 C  
HETATM   28  O   UNL     1     -10.760   7.369  72.468  1.00  0.00    -0.233 OA 
ENDBRANCH  14  15
ENDBRANCH  13  14
ENDBRANCH  12  13
BRANCH  12  29
HETATM   29  C   UNL     1      -8.889  13.085  67.789  1.00  0.00    -0.188 C  
HETATM   30  O   UNL     1      -8.399  13.585  69.035  1.00  0.00    -0.346 OA 
HETATM   31  H   UNL     1      -7.450  13.556  69.035  1.00  0.00     0.000 HD 
ENDBRANCH  12  29
ENDBRANCH  11  12
ENDBRANCH  10  11
ENDBRANCH   8  10
ENDBRANCH   4   8
TORSDOF 8
ENDMDL
MODEL      162
REMARK 921   NORMALIZED FREE ENERGY PREDICTED BY IDOCK:   -4.73 KCAL/MOL
REMARK 922        TOTAL FREE ENERGY PREDICTED BY IDOCK:   -8.15 KCAL/MOL
REMARK 923 INTER-LIGAND FREE ENERGY PREDICTED BY IDOCK:   -7.01 KCAL/MOL
REMARK 924 INTRA-LIGAND FREE ENERGY PREDICTED BY IDOCK:   -1.14 KCAL/MOL
REMARK 927      BINDING AFFINITY PREDICTED BY RF-SCORE:    0.00 PKD
ROOT
HETATM    1  C   UNL     1      -9.978   9.114  71.529  1.00  0.00    -0.358 C  
HETATM    2  C   UNL     1     -11.318   9.070  70.785  1.00  0.00    -0.329 C  
HETATM    3  C   UNL     1     -12.060  10.398  70.973  1.00  0.00    -0.488 C  
HETATM    4  C   UNL     1     -12.195   7.857  71.185  1.00  0.00    -0.255 C  
HETATM    5  N   UNL     1     -12.511   7.856  72.631  1.00  0.00    -0.580 NA 
HETATM    6  H1  UNL     1     -13.088   7.058  72.894  1.00  0.00     0.000 HD 
HETATM    7  H2  UNL     1     -12.942   8.735  72.917  1.00  0.00     0.000 HD 
ENDROOT
BRANCH   4   8
HETATM    8  C   UNL     1     -11.535   6.531  70.755  1.00  0.00    -0.360 C  
HETATM    9  O   UNL     1     -11.093   5.692  71.531  1.00  0.00    -0.245 OA 
BRANCH   8  10
HETATM   10  O   UNL     1     -11.436   6.436  69.395  1.00  0.00    -0.401 OA 
BRANCH  10  11
HETATM   11  C   UNL     1     -10.230   5.837  68.887  1.00  0.00    -0.204 C  
BRANCH  11  12
HETATM   12  C   UNL     1      -9.685   6.670  67.716  1.00  0.00    -0.123 C  
BRANCH  12  13
HETATM   13  O   UNL     1     -10.337   7.954  67.579  1.00  0.00    -0.218 OA 
BRANCH  13  14
HETATM   14  C   UNL     1      -9.795   8.746  66.524  1.00  0.00    -0.279 C  
BRANCH  14  15
HETATM   15  N   UNL     1      -9.877  10.142  66.892  1.00  0.00    -0.187 NA 
HETATM   16  C   UNL     1     -10.983  10.752  67.433  1.00  0.00    -0.300 A  
HETATM   17  N   UNL     1     -10.738  11.999  67.793  1.00  0.00    -0.203 NA 
HETATM   18  C   UNL     1      -9.413  12.203  67.475  1.00  0.00    -0.180 A  
HETATM   19  C   UNL     1      -8.886  11.064  66.918  1.00  0.00    -0.149 A  
HETATM   20  N   UNL     1      -7.608  10.981  66.533  1.00  0.00    -0.145 NA 
HETATM   21  C   UNL     1      -6.827  12.091  66.747  1.00  0.00     0.050 C  
HETATM   22  N   UNL     1      -5.530  11.914  66.394  1.00  0.00    -0.484 NA 
HETATM   23  N   UNL     1      -7.220  13.218  67.265  1.00  0.00    -0.347 N  
HETATM   24  H2  UNL     1      -5.170  11.041  66.008  1.00  0.00     0.000 HD 
HETATM   25  H1  UNL     1      -4.950  12.738  66.551  1.00  0.00     0.000 HD 
HETATM   26  H   UNL     1      -6.556  13.983  67.381  1.00  0.00     0.000 HD 
HETATM   27  C   UNL     1      -8.552  13.382  67.664  1.00  0.00    -0.193 C  
HETATM   28  O   UNL     1      -8.971  14.428  68.144  1.00  0.00    -0.172 OA 
ENDBRANCH  14  15
ENDBRANCH  13  14
ENDBRANCH  12  13
BRANCH  12  29
HETATM   29  C   UNL     1      -9.874   5.914  66.392  1.00  0.00    -0.121 C  
HETATM   30  O   UNL     1     -11.234   5.488  66.279  1.00  0.00    -0.746 OA 
HETATM   31  H   UNL     1     -11.351   5.021  65.461  1.00  0.00     0.000 HD 
ENDBRANCH  12  29
ENDBRANCH  11  12
ENDBRANCH  10  11
ENDBRANCH   8  10
ENDBRANCH   4   8
TORSDOF 8
ENDMDL
MODEL      163
REMARK 921   NORMALIZED FREE ENERGY PREDICTED BY IDOCK:   -4.72 KCAL/MOL
REMARK 922        TOTAL FREE ENERGY PREDICTED BY IDOCK:   -8.15 KCAL/MOL
REMARK 923 INTER-LIGAND FREE ENERGY PREDICTED BY IDOCK:   -7.61 KCAL/MOL
REMARK 924 INTRA-LIGAND FREE ENERGY PREDICTED BY IDOCK:   -0.54 KCAL/MOL
REMARK 927      BINDING AFFINITY PREDICTED BY RF-SCORE:    0.00 PKD
ROOT
HETATM    1  C   UNL     1      -8.644  11.069  67.701  1.00  0.00    -0.125 C  
HETATM    2  C   UNL     1      -8.961   9.686  67.118  1.00  0.00    -0.148 C  
HETATM    3  C   UNL     1      -9.133   9.790  65.600  1.00  0.00    -0.222 C  
HETATM    4  C   UNL     1     -10.181   9.008  67.792  1.00  0.00    -0.230 C  
HETATM    5  N   UNL     1     -11.411   9.820  67.655  1.00  0.00    -0.454 NA 
HETATM    6  H1  UNL     1     -12.213   9.373  68.098  1.00  0.00     0.000 HD 
HETATM    7  H2  UNL     1     -11.603  10.040  66.678  1.00  0.00     0.000 HD 
ENDROOT
BRANCH   4   8
HETATM    8  C   UNL     1      -9.886   8.684  69.272  1.00  0.00    -0.188 C  
HETATM    9  O   UNL     1      -8.774   8.428  69.718  1.00  0.00    -0.130 OA 
BRANCH   8  10
HETATM   10  O   UNL     1     -11.032   8.644  70.016  1.00  0.00    -0.246 OA 
BRANCH  10  11
HETATM   11  C   UNL     1     -11.116   9.584  71.102  1.00  0.00    -0.379 C  
BRANCH  11  12
HETATM   12  C   UNL     1     -12.485  10.282  71.085  1.00  0.00    -0.391 C  
BRANCH  12  13
HETATM   13  O   UNL     1     -12.390  11.714  70.905  1.00  0.00    -0.374 OA 
BRANCH  13  14
HETATM   14  C   UNL     1     -11.927  12.084  69.607  1.00  0.00    -0.293 C  
BRANCH  14  15
HETATM   15  N   UNL     1     -11.794  13.523  69.546  1.00  0.00    -0.316 NA 
HETATM   16  C   UNL     1     -12.038  14.383  70.590  1.00  0.00    -0.334 A  
HETATM   17  N   UNL     1     -11.713  15.628  70.295  1.00  0.00    -0.328 NA 
HETATM   18  C   UNL     1     -11.232  15.570  69.006  1.00  0.00    -0.303 A  
HETATM   19  C   UNL     1     -11.286  14.279  68.545  1.00  0.00    -0.282 A  
HETATM   20  N   UNL     1     -10.862  13.937  67.324  1.00  0.00    -0.284 NA 
HETATM   21  C   UNL     1     -10.337  14.942  66.549  1.00  0.00    -0.293 C  
HETATM   22  N   UNL     1      -9.868  14.513  65.352  1.00  0.00    -0.520 NA 
HETATM   23  N   UNL     1     -10.236  16.196  66.884  1.00  0.00    -0.277 N  
HETATM   24  H2  UNL     1      -9.901  13.537  65.056  1.00  0.00     0.000 HD 
HETATM   25  H1  UNL     1      -9.479  15.259  64.777  1.00  0.00     0.000 HD 
HETATM   26  H   UNL     1      -9.828  16.865  66.231  1.00  0.00     0.000 HD 
HETATM   27  C   UNL     1     -10.687  16.627  68.137  1.00  0.00    -0.349 C  
HETATM   28  O   UNL     1     -10.626  17.799  68.491  1.00  0.00    -0.343 OA 
ENDBRANCH  14  15
ENDBRANCH  13  14
ENDBRANCH  12  13
BRANCH  12  29
HETATM   29  C   UNL     1     -13.226  10.033  72.407  1.00  0.00    -0.170 C  
HETATM   30  O   UNL     1     -13.115   8.652  72.760  1.00  0.00    -0.632 OA 
HETATM   31  H   UNL     1     -13.574   8.498  73.578  1.00  0.00     0.000 HD 
ENDBRANCH  12  29
ENDBRANCH  11  12
ENDBRANCH  10  11
ENDBRANCH   8  10
ENDBRANCH   4   8
TORSDOF 8
ENDMDL
MODEL      164
REMARK 921   NORMALIZED FREE ENERGY PREDICTED BY IDOCK:   -4.71 KCAL/MOL
REMARK 922        TOTAL FREE ENERGY PREDICTED BY IDOCK:   -8.13 KCAL/MOL
REMARK 923 INTER-LIGAND FREE ENERGY PREDICTED BY IDOCK:   -7.19 KCAL/MOL
REMARK 924 INTRA-LIGAND FREE ENERGY PREDICTED BY IDOCK:   -0.94 KCAL/MOL
REMARK 927      BINDING AFFINITY PREDICTED BY RF-SCORE:    0.00 PKD
ROOT
HETATM    1  C   UNL     1     -10.894   6.190  66.864  1.00  0.00    -0.411 C  
HETATM    2  C   UNL     1      -9.441   6.393  67.313  1.00  0.00    -0.135 C  
HETATM    3  C   UNL     1      -8.487   5.907  66.217  1.00  0.00    -0.128 C  
HETATM    4  C   UNL     1      -9.131   5.737  68.682  1.00  0.00    -0.114 C  
HETATM    5  N   UNL     1      -9.370   4.276  68.661  1.00  0.00    -0.141 NA 
HETATM    6  H1  UNL     1      -9.165   3.845  69.562  1.00  0.00     0.000 HD 
HETATM    7  H2  UNL     1      -8.850   3.826  67.909  1.00  0.00     0.000 HD 
ENDROOT
BRANCH   4   8
HETATM    8  C   UNL     1      -9.925   6.419  69.815  1.00  0.00    -0.166 C  
HETATM    9  O   UNL     1     -10.675   5.833  70.587  1.00  0.00    -0.261 OA 
BRANCH   8  10
HETATM   10  O   UNL     1      -9.747   7.774  69.810  1.00  0.00    -0.174 OA 
BRANCH  10  11
HETATM   11  C   UNL     1     -10.944   8.571  69.839  1.00  0.00    -0.165 C  
BRANCH  11  12
HETATM   12  C   UNL     1     -10.753   9.836  68.986  1.00  0.00    -0.217 C  
BRANCH  12  13
HETATM   13  O   UNL     1     -11.039   9.623  67.584  1.00  0.00    -0.214 OA 
BRANCH  13  14
HETATM   14  C   UNL     1      -9.965  10.009  66.729  1.00  0.00    -0.210 C  
BRANCH  14  15
HETATM   15  N   UNL     1     -10.413  11.070  65.856  1.00  0.00    -0.254 NA 
HETATM   16  C   UNL     1     -10.382  11.027  64.482  1.00  0.00    -0.354 A  
HETATM   17  N   UNL     1     -10.972  12.075  63.938  1.00  0.00    -0.362 NA 
HETATM   18  C   UNL     1     -11.409  12.827  65.007  1.00  0.00    -0.309 A  
HETATM   19  C   UNL     1     -11.062  12.211  66.183  1.00  0.00    -0.312 A  
HETATM   20  N   UNL     1     -11.383  12.720  67.378  1.00  0.00    -0.294 NA 
HETATM   21  C   UNL     1     -12.106  13.887  67.377  1.00  0.00    -0.345 C  
HETATM   22  N   UNL     1     -12.451  14.309  68.618  1.00  0.00    -0.516 NA 
HETATM   23  N   UNL     1     -12.488  14.553  66.326  1.00  0.00    -0.364 N  
HETATM   24  H2  UNL     1     -12.198  13.808  69.470  1.00  0.00     0.000 HD 
HETATM   25  H1  UNL     1     -12.988  15.176  68.618  1.00  0.00     0.000 HD 
HETATM   26  H   UNL     1     -13.026  15.413  66.437  1.00  0.00     0.000 HD 
HETATM   27  C   UNL     1     -12.163  14.091  65.045  1.00  0.00    -0.433 C  
HETATM   28  O   UNL     1     -12.488  14.691  64.027  1.00  0.00    -0.796 OA 
ENDBRANCH  14  15
ENDBRANCH  13  14
ENDBRANCH  12  13
BRANCH  12  29
HETATM   29  C   UNL     1      -9.303  10.333  69.089  1.00  0.00    -0.204 C  
HETATM   30  O   UNL     1      -8.854  10.208  70.440  1.00  0.00    -0.304 OA 
HETATM   31  H   UNL     1      -7.957  10.515  70.504  1.00  0.00     0.000 HD 
ENDBRANCH  12  29
ENDBRANCH  11  12
ENDBRANCH  10  11
ENDBRANCH   8  10
ENDBRANCH   4   8
TORSDOF 8
ENDMDL
MODEL      165
REMARK 921   NORMALIZED FREE ENERGY PREDICTED BY IDOCK:   -4.69 KCAL/MOL
REMARK 922        TOTAL FREE ENERGY PREDICTED BY IDOCK:   -8.10 KCAL/MOL
REMARK 923 INTER-LIGAND FREE ENERGY PREDICTED BY IDOCK:   -7.02 KCAL/MOL
REMARK 924 INTRA-LIGAND FREE ENERGY PREDICTED BY IDOCK:   -1.08 KCAL/MOL
REMARK 927      BINDING AFFINITY PREDICTED BY RF-SCORE:    0.00 PKD
ROOT
HETATM    1  C   UNL     1     -10.718   6.440  68.799  1.00  0.00    -0.339 C  
HETATM    2  C   UNL     1      -9.210   6.261  68.583  1.00  0.00    -0.124 C  
HETATM    3  C   UNL     1      -8.616   5.436  69.729  1.00  0.00    -0.100 C  
HETATM    4  C   UNL     1      -8.461   7.604  68.389  1.00  0.00    -0.125 C  
HETATM    5  N   UNL     1      -8.621   8.499  69.557  1.00  0.00    -0.130 NA 
HETATM    6  H1  UNL     1      -8.128   9.383  69.429  1.00  0.00     0.000 HD 
HETATM    7  H2  UNL     1      -8.335   8.037  70.420  1.00  0.00     0.000 HD 
ENDROOT
BRANCH   4   8
HETATM    8  C   UNL     1      -8.902   8.301  67.085  1.00  0.00    -0.137 C  
HETATM    9  O   UNL     1      -8.799   7.810  65.967  1.00  0.00    -0.158 OA 
BRANCH   8  10
HETATM   10  O   UNL     1      -9.358   9.567  67.321  1.00  0.00    -0.132 OA 
BRANCH  10  11
HETATM   11  C   UNL     1     -10.681   9.865  66.839  1.00  0.00    -0.125 C  
BRANCH  11  12
HETATM   12  C   UNL     1     -10.688  11.233  66.137  1.00  0.00    -0.250 C  
BRANCH  12  13
HETATM   13  O   UNL     1     -11.882  12.003  66.404  1.00  0.00    -0.578 OA 
BRANCH  13  14
HETATM   14  C   UNL     1     -12.078  13.070  65.478  1.00  0.00    -0.452 C  
BRANCH  14  15
HETATM   15  N   UNL     1     -11.378  14.242  65.954  1.00  0.00    -0.322 NA 
HETATM   16  C   UNL     1     -10.620  15.081  65.171  1.00  0.00    -0.418 A  
HETATM   17  N   UNL     1     -10.204  16.142  65.837  1.00  0.00    -0.341 NA 
HETATM   18  C   UNL     1     -10.719  15.986  67.105  1.00  0.00    -0.283 A  
HETATM   19  C   UNL     1     -11.436  14.818  67.177  1.00  0.00    -0.364 A  
HETATM   20  N   UNL     1     -12.061  14.430  68.294  1.00  0.00    -0.277 NA 
HETATM   21  C   UNL     1     -11.976  15.276  69.373  1.00  0.00    -0.315 C  
HETATM   22  N   UNL     1     -12.686  14.852  70.448  1.00  0.00    -0.507 NA 
HETATM   23  N   UNL     1     -11.328  16.403  69.416  1.00  0.00    -0.272 N  
HETATM   24  H2  UNL     1     -13.230  13.990  70.454  1.00  0.00     0.000 HD 
HETATM   25  H1  UNL     1     -12.622  15.479  71.249  1.00  0.00     0.000 HD 
HETATM   26  H   UNL     1     -11.329  16.958  70.272  1.00  0.00     0.000 HD 
HETATM   27  C   UNL     1     -10.628  16.855  68.290  1.00  0.00    -0.363 C  
HETATM   28  O   UNL     1      -9.992  17.902  68.287  1.00  0.00    -0.319 OA 
ENDBRANCH  14  15
ENDBRANCH  13  14
ENDBRANCH  12  13
BRANCH  12  29
HETATM   29  C   UNL     1     -10.588  11.050  64.615  1.00  0.00    -0.299 C  
HETATM   30  O   UNL     1      -9.539  10.126  64.316  1.00  0.00    -0.291 OA 
HETATM   31  H   UNL     1      -9.477  10.014  63.375  1.00  0.00     0.000 HD 
ENDBRANCH  12  29
ENDBRANCH  11  12
ENDBRANCH  10  11
ENDBRANCH   8  10
ENDBRANCH   4   8
TORSDOF 8
ENDMDL
MODEL      166
REMARK 921   NORMALIZED FREE ENERGY PREDICTED BY IDOCK:   -4.68 KCAL/MOL
REMARK 922        TOTAL FREE ENERGY PREDICTED BY IDOCK:   -8.08 KCAL/MOL
REMARK 923 INTER-LIGAND FREE ENERGY PREDICTED BY IDOCK:   -7.43 KCAL/MOL
REMARK 924 INTRA-LIGAND FREE ENERGY PREDICTED BY IDOCK:   -0.65 KCAL/MOL
REMARK 927      BINDING AFFINITY PREDICTED BY RF-SCORE:    0.00 PKD
ROOT
HETATM    1  C   UNL     1     -10.078  19.810  66.104  1.00  0.00    -0.600 C  
HETATM    2  C   UNL     1     -10.251  19.102  67.453  1.00  0.00    -0.490 C  
HETATM    3  C   UNL     1     -10.218  20.131  68.587  1.00  0.00    -0.363 C  
HETATM    4  C   UNL     1      -9.223  17.963  67.677  1.00  0.00    -0.258 C  
HETATM    5  N   UNL     1      -7.829  18.460  67.632  1.00  0.00    -0.232 NA 
HETATM    6  H1  UNL     1      -7.154  17.711  67.780  1.00  0.00     0.000 HD 
HETATM    7  H2  UNL     1      -7.686  19.224  68.292  1.00  0.00     0.000 HD 
ENDROOT
BRANCH   4   8
HETATM    8  C   UNL     1      -9.442  16.815  66.671  1.00  0.00    -0.257 C  
HETATM    9  O   UNL     1      -8.594  16.412  65.883  1.00  0.00    -0.407 OA 
BRANCH   8  10
HETATM   10  O   UNL     1     -10.725  16.346  66.714  1.00  0.00    -0.281 OA 
BRANCH  10  11
HETATM   11  C   UNL     1     -10.906  15.048  67.307  1.00  0.00    -0.310 C  
BRANCH  11  12
HETATM   12  C   UNL     1     -11.860  14.206  66.445  1.00  0.00    -0.423 C  
BRANCH  12  13
HETATM   13  O   UNL     1     -11.762  12.787  66.708  1.00  0.00    -0.356 OA 
BRANCH  13  14
HETATM   14  C   UNL     1     -11.698  12.480  68.099  1.00  0.00    -0.348 C  
BRANCH  14  15
HETATM   15  N   UNL     1     -10.546  11.642  68.346  1.00  0.00    -0.202 NA 
HETATM   16  C   UNL     1      -9.243  11.995  68.089  1.00  0.00    -0.195 A  
HETATM   17  N   UNL     1      -8.387  11.093  68.530  1.00  0.00    -0.148 NA 
HETATM   18  C   UNL     1      -9.169  10.115  69.103  1.00  0.00    -0.197 A  
HETATM   19  C   UNL     1     -10.495  10.451  68.986  1.00  0.00    -0.219 A  
HETATM   20  N   UNL     1     -11.473   9.681  69.476  1.00  0.00    -0.037 NA 
HETATM   21  C   UNL     1     -11.088   8.539  70.134  1.00  0.00    -0.188 C  
HETATM   22  N   UNL     1     -12.126   7.843  70.660  1.00  0.00    -0.492 NA 
HETATM   23  N   UNL     1      -9.866   8.126  70.304  1.00  0.00    -0.183 N  
HETATM   24  H2  UNL     1     -13.098   8.139  70.575  1.00  0.00     0.000 HD 
HETATM   25  H1  UNL     1     -11.840   6.994  71.148  1.00  0.00     0.000 HD 
HETATM   26  H   UNL     1      -9.687   7.259  70.812  1.00  0.00     0.000 HD 
HETATM   27  C   UNL     1      -8.795   8.869  69.792  1.00  0.00    -0.144 C  
HETATM   28  O   UNL     1      -7.629   8.514  69.915  1.00  0.00    -0.068 OA 
ENDBRANCH  14  15
ENDBRANCH  13  14
ENDBRANCH  12  13
BRANCH  12  29
HETATM   29  C   UNL     1     -11.558  14.420  64.954  1.00  0.00    -0.395 C  
HETATM   30  O   UNL     1     -12.466  13.644  64.169  1.00  0.00    -0.635 OA 
HETATM   31  H   UNL     1     -12.278  13.776  63.247  1.00  0.00     0.000 HD 
ENDBRANCH  12  29
ENDBRANCH  11  12
ENDBRANCH  10  11
ENDBRANCH   8  10
ENDBRANCH   4   8
TORSDOF 8
ENDMDL
MODEL      167
REMARK 921   NORMALIZED FREE ENERGY PREDICTED BY IDOCK:   -4.68 KCAL/MOL
REMARK 922        TOTAL FREE ENERGY PREDICTED BY IDOCK:   -8.08 KCAL/MOL
REMARK 923 INTER-LIGAND FREE ENERGY PREDICTED BY IDOCK:   -7.09 KCAL/MOL
REMARK 924 INTRA-LIGAND FREE ENERGY PREDICTED BY IDOCK:   -0.99 KCAL/MOL
REMARK 927      BINDING AFFINITY PREDICTED BY RF-SCORE:    0.00 PKD
ROOT
HETATM    1  C   UNL     1     -10.992   6.139  69.726  1.00  0.00    -0.459 C  
HETATM    2  C   UNL     1     -10.043   7.192  70.314  1.00  0.00    -0.195 C  
HETATM    3  C   UNL     1      -9.945   7.011  71.832  1.00  0.00    -0.179 C  
HETATM    4  C   UNL     1     -10.432   8.642  69.929  1.00  0.00    -0.218 C  
HETATM    5  N   UNL     1     -11.794   8.990  70.392  1.00  0.00    -0.468 NA 
HETATM    6  H1  UNL     1     -12.049   9.945  70.138  1.00  0.00     0.000 HD 
HETATM    7  H2  UNL     1     -11.897   8.833  71.394  1.00  0.00     0.000 HD 
ENDROOT
BRANCH   4   8
HETATM    8  C   UNL     1     -10.280   8.871  68.411  1.00  0.00    -0.199 C  
HETATM    9  O   UNL     1     -11.091   9.469  67.715  1.00  0.00    -0.186 OA 
BRANCH   8  10
HETATM   10  O   UNL     1      -9.161   8.259  67.920  1.00  0.00    -0.133 OA 
BRANCH  10  11
HETATM   11  C   UNL     1      -9.287   7.653  66.621  1.00  0.00    -0.190 C  
BRANCH  11  12
HETATM   12  C   UNL     1      -8.478   8.454  65.588  1.00  0.00    -0.164 C  
BRANCH  12  13
HETATM   13  O   UNL     1      -9.221   9.552  65.011  1.00  0.00    -0.230 OA 
BRANCH  13  14
HETATM   14  C   UNL     1      -8.518  10.792  65.064  1.00  0.00    -0.079 C  
BRANCH  14  15
HETATM   15  N   UNL     1      -9.196  11.681  65.981  1.00  0.00    -0.219 NA 
HETATM   16  C   UNL     1      -8.863  11.856  67.303  1.00  0.00    -0.179 A  
HETATM   17  N   UNL     1      -9.562  12.821  67.869  1.00  0.00    -0.205 NA 
HETATM   18  C   UNL     1     -10.381  13.296  66.868  1.00  0.00    -0.255 A  
HETATM   19  C   UNL     1     -10.158  12.593  65.711  1.00  0.00    -0.271 A  
HETATM   20  N   UNL     1     -10.809  12.863  64.574  1.00  0.00    -0.340 NA 
HETATM   21  C   UNL     1     -11.703  13.906  64.608  1.00  0.00    -0.397 C  
HETATM   22  N   UNL     1     -12.277  14.164  63.407  1.00  0.00    -1.099 NA 
HETATM   23  N   UNL     1     -11.991  14.637  65.645  1.00  0.00    -0.292 N  
HETATM   24  H2  UNL     1     -12.065  13.636  62.561  1.00  0.00     0.000 HD 
HETATM   25  H1  UNL     1     -12.941  14.938  63.432  1.00  0.00     0.000 HD 
HETATM   26  H   UNL     1     -12.672  15.391  65.562  1.00  0.00     0.000 HD 
HETATM   27  C   UNL     1     -11.366  14.390  66.874  1.00  0.00    -0.348 C  
HETATM   28  O   UNL     1     -11.614  15.043  67.881  1.00  0.00    -0.332 OA 
ENDBRANCH  14  15
ENDBRANCH  13  14
ENDBRANCH  12  13
BRANCH  12  29
HETATM   29  C   UNL     1      -8.036   7.541  64.434  1.00  0.00    -0.117 C  
HETATM   30  O   UNL     1      -8.625   6.249  64.599  1.00  0.00    -0.336 OA 
HETATM   31  H   UNL     1      -8.352   5.685  63.886  1.00  0.00     0.000 HD 
ENDBRANCH  12  29
ENDBRANCH  11  12
ENDBRANCH  10  11
ENDBRANCH   8  10
ENDBRANCH   4   8
TORSDOF 8
ENDMDL
MODEL      168
REMARK 921   NORMALIZED FREE ENERGY PREDICTED BY IDOCK:   -4.68 KCAL/MOL
REMARK 922        TOTAL FREE ENERGY PREDICTED BY IDOCK:   -8.08 KCAL/MOL
REMARK 923 INTER-LIGAND FREE ENERGY PREDICTED BY IDOCK:   -7.35 KCAL/MOL
REMARK 924 INTRA-LIGAND FREE ENERGY PREDICTED BY IDOCK:   -0.73 KCAL/MOL
REMARK 927      BINDING AFFINITY PREDICTED BY RF-SCORE:    0.00 PKD
ROOT
HETATM    1  C   UNL     1     -10.267  11.074  64.402  1.00  0.00    -0.409 C  
HETATM    2  C   UNL     1     -11.474  11.964  64.724  1.00  0.00    -0.323 C  
HETATM    3  C   UNL     1     -12.335  12.143  63.469  1.00  0.00    -0.682 C  
HETATM    4  C   UNL     1     -11.076  13.324  65.351  1.00  0.00    -0.282 C  
HETATM    5  N   UNL     1     -10.195  14.108  64.456  1.00  0.00    -0.678 NA 
HETATM    6  H1  UNL     1      -9.934  15.003  64.869  1.00  0.00     0.000 HD 
HETATM    7  H2  UNL     1     -10.618  14.234  63.537  1.00  0.00     0.000 HD 
ENDROOT
BRANCH   4   8
HETATM    8  C   UNL     1     -10.432  13.126  66.739  1.00  0.00    -0.261 C  
HETATM    9  O   UNL     1      -9.232  12.973  66.931  1.00  0.00    -0.224 OA 
BRANCH   8  10
HETATM   10  O   UNL     1     -11.375  13.069  67.727  1.00  0.00    -0.260 OA 
BRANCH  10  11
HETATM   11  C   UNL     1     -11.841  11.756  68.084  1.00  0.00    -0.254 C  
BRANCH  11  12
HETATM   12  C   UNL     1     -11.190  11.309  69.402  1.00  0.00    -0.280 C  
BRANCH  12  13
HETATM   13  O   UNL     1     -10.667   9.962  69.349  1.00  0.00    -0.211 OA 
BRANCH  13  14
HETATM   14  C   UNL     1     -10.304   9.555  68.031  1.00  0.00    -0.214 C  
BRANCH  14  15
HETATM   15  N   UNL     1      -9.394   8.435  68.116  1.00  0.00    -0.134 NA 
HETATM   16  C   UNL     1      -8.275   8.386  68.914  1.00  0.00    -0.115 A  
HETATM   17  N   UNL     1      -7.701   7.197  68.894  1.00  0.00    -0.111 NA 
HETATM   18  C   UNL     1      -8.486   6.441  68.050  1.00  0.00    -0.118 A  
HETATM   19  C   UNL     1      -9.522   7.203  67.570  1.00  0.00    -0.124 A  
HETATM   20  N   UNL     1     -10.449   6.709  66.742  1.00  0.00    -0.242 NA 
HETATM   21  C   UNL     1     -10.332   5.382  66.408  1.00  0.00    -0.247 C  
HETATM   22  N   UNL     1     -11.340   4.934  65.620  1.00  0.00    -0.911 NA 
HETATM   23  N   UNL     1      -9.396   4.570  66.804  1.00  0.00    -0.138 N  
HETATM   24  H2  UNL     1     -12.109   5.524  65.305  1.00  0.00     0.000 HD 
HETATM   25  H1  UNL     1     -11.254   3.948  65.371  1.00  0.00     0.000 HD 
HETATM   26  H   UNL     1      -9.402   3.597  66.497  1.00  0.00     0.000 HD 
HETATM   27  C   UNL     1      -8.379   5.029  67.650  1.00  0.00    -0.105 C  
HETATM   28  O   UNL     1      -7.468   4.306  68.037  1.00  0.00    -0.067 OA 
ENDBRANCH  14  15
ENDBRANCH  13  14
ENDBRANCH  12  13
BRANCH  12  29
HETATM   29  C   UNL     1     -12.215  11.360  70.546  1.00  0.00    -0.386 C  
HETATM   30  O   UNL     1     -13.057  10.207  70.480  1.00  0.00    -0.575 OA 
HETATM   31  H   UNL     1     -13.691  10.239  71.187  1.00  0.00     0.000 HD 
ENDBRANCH  12  29
ENDBRANCH  11  12
ENDBRANCH  10  11
ENDBRANCH   8  10
ENDBRANCH   4   8
TORSDOF 8
ENDMDL
MODEL      169
REMARK 921   NORMALIZED FREE ENERGY PREDICTED BY IDOCK:   -4.67 KCAL/MOL
REMARK 922        TOTAL FREE ENERGY PREDICTED BY IDOCK:   -8.08 KCAL/MOL
REMARK 923 INTER-LIGAND FREE ENERGY PREDICTED BY IDOCK:   -7.08 KCAL/MOL
REMARK 924 INTRA-LIGAND FREE ENERGY PREDICTED BY IDOCK:   -1.00 KCAL/MOL
REMARK 927      BINDING AFFINITY PREDICTED BY RF-SCORE:    0.00 PKD
ROOT
HETATM    1  C   UNL     1     -10.455   7.031  68.000  1.00  0.00    -0.255 C  
HETATM    2  C   UNL     1      -9.393   7.003  69.106  1.00  0.00    -0.140 C  
HETATM    3  C   UNL     1      -8.082   6.434  68.553  1.00  0.00    -0.110 C  
HETATM    4  C   UNL     1      -9.859   6.248  70.376  1.00  0.00    -0.176 C  
HETATM    5  N   UNL     1     -10.208   4.839  70.085  1.00  0.00    -0.236 NA 
HETATM    6  H1  UNL     1     -10.515   4.343  70.922  1.00  0.00     0.000 HD 
HETATM    7  H2  UNL     1      -9.438   4.353  69.628  1.00  0.00     0.000 HD 
ENDROOT
BRANCH   4   8
HETATM    8  C   UNL     1     -11.029   6.986  71.060  1.00  0.00    -0.251 C  
HETATM    9  O   UNL     1     -12.124   6.487  71.290  1.00  0.00    -0.343 OA 
BRANCH   8  10
HETATM   10  O   UNL     1     -10.720   8.293  71.314  1.00  0.00    -0.217 OA 
BRANCH  10  11
HETATM   11  C   UNL     1     -11.834   9.178  71.528  1.00  0.00    -0.358 C  
BRANCH  11  12
HETATM   12  C   UNL     1     -11.940  10.178  70.365  1.00  0.00    -0.267 C  
BRANCH  12  13
HETATM   13  O   UNL     1     -10.661  10.491  69.767  1.00  0.00    -0.247 OA 
BRANCH  13  14
HETATM   14  C   UNL     1     -10.653  11.746  69.089  1.00  0.00    -0.069 C  
BRANCH  14  15
HETATM   15  N   UNL     1     -10.410  11.520  67.682  1.00  0.00    -0.183 NA 
HETATM   16  C   UNL     1      -9.529  10.598  67.170  1.00  0.00    -0.156 A  
HETATM   17  N   UNL     1      -9.604  10.514  65.855  1.00  0.00    -0.193 NA 
HETATM   18  C   UNL     1     -10.580  11.419  65.499  1.00  0.00    -0.271 A  
HETATM   19  C   UNL     1     -11.072  12.039  66.621  1.00  0.00    -0.310 A  
HETATM   20  N   UNL     1     -12.047  12.953  66.563  1.00  0.00    -0.460 NA 
HETATM   21  C   UNL     1     -12.560  13.229  65.320  1.00  0.00    -0.470 C  
HETATM   22  N   UNL     1     -13.587  14.114  65.344  1.00  0.00    -0.352 NA 
HETATM   23  N   UNL     1     -12.172  12.703  64.195  1.00  0.00    -0.433 N  
HETATM   24  H2  UNL     1     -13.943  14.534  66.203  1.00  0.00     0.000 HD 
HETATM   25  H1  UNL     1     -13.968  14.320  64.421  1.00  0.00     0.000 HD 
HETATM   26  H   UNL     1     -12.623  12.978  63.322  1.00  0.00     0.000 HD 
HETATM   27  C   UNL     1     -11.137  11.759  64.180  1.00  0.00    -0.374 C  
HETATM   28  O   UNL     1     -10.729  11.247  63.145  1.00  0.00    -0.285 OA 
ENDBRANCH  14  15
ENDBRANCH  13  14
ENDBRANCH  12  13
BRANCH  12  29
HETATM   29  C   UNL     1     -12.555  11.499  70.854  1.00  0.00    -0.341 C  
HETATM   30  O   UNL     1     -13.180  11.290  72.122  1.00  0.00    -0.579 OA 
HETATM   31  H   UNL     1     -13.560  12.106  72.424  1.00  0.00     0.000 HD 
ENDBRANCH  12  29
ENDBRANCH  11  12
ENDBRANCH  10  11
ENDBRANCH   8  10
ENDBRANCH   4   8
TORSDOF 8
ENDMDL
MODEL      170
REMARK 921   NORMALIZED FREE ENERGY PREDICTED BY IDOCK:   -4.67 KCAL/MOL
REMARK 922        TOTAL FREE ENERGY PREDICTED BY IDOCK:   -8.07 KCAL/MOL
REMARK 923 INTER-LIGAND FREE ENERGY PREDICTED BY IDOCK:   -7.35 KCAL/MOL
REMARK 924 INTRA-LIGAND FREE ENERGY PREDICTED BY IDOCK:   -0.72 KCAL/MOL
REMARK 927      BINDING AFFINITY PREDICTED BY RF-SCORE:    0.00 PKD
ROOT
HETATM    1  C   UNL     1     -12.423  11.805  63.822  1.00  0.00    -0.436 C  
HETATM    2  C   UNL     1     -12.182  12.934  64.832  1.00  0.00    -0.504 C  
HETATM    3  C   UNL     1     -12.239  14.289  64.118  1.00  0.00    -0.410 C  
HETATM    4  C   UNL     1     -10.869  12.760  65.636  1.00  0.00    -0.273 C  
HETATM    5  N   UNL     1      -9.682  12.717  64.753  1.00  0.00    -0.515 NA 
HETATM    6  H1  UNL     1      -8.818  12.603  65.282  1.00  0.00     0.000 HD 
HETATM    7  H2  UNL     1      -9.639  13.538  64.148  1.00  0.00     0.000 HD 
ENDROOT
BRANCH   4   8
HETATM    8  C   UNL     1     -10.937  11.514  66.543  1.00  0.00    -0.293 C  
HETATM    9  O   UNL     1     -10.294  10.487  66.361  1.00  0.00    -0.232 OA 
BRANCH   8  10
HETATM   10  O   UNL     1     -11.860  11.667  67.539  1.00  0.00    -0.591 OA 
BRANCH  10  11
HETATM   11  C   UNL     1     -11.381  12.253  68.764  1.00  0.00    -0.289 C  
BRANCH  11  12
HETATM   12  C   UNL     1     -12.197  13.512  69.096  1.00  0.00    -0.194 C  
BRANCH  12  13
HETATM   13  O   UNL     1     -11.448  14.737  68.921  1.00  0.00    -0.268 OA 
BRANCH  13  14
HETATM   14  C   UNL     1     -11.766  15.417  67.708  1.00  0.00    -0.146 C  
BRANCH  14  15
HETATM   15  N   UNL     1     -10.548  15.927  67.120  1.00  0.00    -0.315 NA 
HETATM   16  C   UNL     1     -10.488  16.846  66.099  1.00  0.00    -0.272 A  
HETATM   17  N   UNL     1      -9.251  17.230  65.847  1.00  0.00    -0.522 NA 
HETATM   18  C   UNL     1      -8.475  16.533  66.747  1.00  0.00    -0.238 A  
HETATM   19  C   UNL     1      -9.272  15.730  67.525  1.00  0.00    -0.204 A  
HETATM   20  N   UNL     1      -8.775  14.957  68.497  1.00  0.00    -0.165 NA 
HETATM   21  C   UNL     1      -7.418  15.021  68.703  1.00  0.00    -0.122 C  
HETATM   22  N   UNL     1      -6.994  14.263  69.743  1.00  0.00    -0.341 NA 
HETATM   23  N   UNL     1      -6.572  15.745  68.029  1.00  0.00    -0.124 N  
HETATM   24  H2  UNL     1      -7.622  13.699  70.317  1.00  0.00     0.000 HD 
HETATM   25  H1  UNL     1      -5.987  14.310  69.897  1.00  0.00     0.000 HD 
HETATM   26  H   UNL     1      -5.580  15.720  68.265  1.00  0.00     0.000 HD 
HETATM   27  C   UNL     1      -7.022  16.556  66.980  1.00  0.00    -0.215 C  
HETATM   28  O   UNL     1      -6.262  17.244  66.308  1.00  0.00    -0.207 OA 
ENDBRANCH  14  15
ENDBRANCH  13  14
ENDBRANCH  12  13
BRANCH  12  29
HETATM   29  C   UNL     1     -12.672  13.468  70.557  1.00  0.00    -0.157 C  
HETATM   30  O   UNL     1     -12.121  12.317  71.200  1.00  0.00    -0.319 OA 
HETATM   31  H   UNL     1     -12.414  12.290  72.103  1.00  0.00     0.000 HD 
ENDBRANCH  12  29
ENDBRANCH  11  12
ENDBRANCH  10  11
ENDBRANCH   8  10
ENDBRANCH   4   8
TORSDOF 8
ENDMDL
MODEL      171
REMARK 921   NORMALIZED FREE ENERGY PREDICTED BY IDOCK:   -4.67 KCAL/MOL
REMARK 922        TOTAL FREE ENERGY PREDICTED BY IDOCK:   -8.07 KCAL/MOL
REMARK 923 INTER-LIGAND FREE ENERGY PREDICTED BY IDOCK:   -7.56 KCAL/MOL
REMARK 924 INTRA-LIGAND FREE ENERGY PREDICTED BY IDOCK:   -0.51 KCAL/MOL
REMARK 927      BINDING AFFINITY PREDICTED BY RF-SCORE:    0.00 PKD
ROOT
HETATM    1  C   UNL     1     -11.583  15.820  71.641  1.00  0.00    -0.537 C  
HETATM    2  C   UNL     1     -12.835  15.415  70.854  1.00  0.00    -0.536 C  
HETATM    3  C   UNL     1     -14.075  15.558  71.742  1.00  0.00    -0.570 C  
HETATM    4  C   UNL     1     -12.731  14.000  70.232  1.00  0.00    -0.210 C  
HETATM    5  N   UNL     1     -12.520  12.958  71.261  1.00  0.00    -0.283 NA 
HETATM    6  H1  UNL     1     -12.451  12.026  70.852  1.00  0.00     0.000 HD 
HETATM    7  H2  UNL     1     -13.243  12.994  71.979  1.00  0.00     0.000 HD 
ENDROOT
BRANCH   4   8
HETATM    8  C   UNL     1     -11.631  13.950  69.151  1.00  0.00    -0.313 C  
HETATM    9  O   UNL     1     -10.866  14.873  68.897  1.00  0.00    -0.233 OA 
BRANCH   8  10
HETATM   10  O   UNL     1     -11.660  12.773  68.458  1.00  0.00    -0.277 OA 
BRANCH  10  11
HETATM   11  C   UNL     1     -10.750  11.751  68.904  1.00  0.00    -0.205 C  
BRANCH  11  12
HETATM   12  C   UNL     1      -9.441  11.827  68.101  1.00  0.00    -0.193 C  
BRANCH  12  13
HETATM   13  O   UNL     1      -9.380  10.866  67.023  1.00  0.00    -0.162 OA 
BRANCH  13  14
HETATM   14  C   UNL     1      -8.836  11.409  65.821  1.00  0.00    -0.111 C  
BRANCH  14  15
HETATM   15  N   UNL     1      -9.869  12.140  65.123  1.00  0.00    -0.222 NA 
HETATM   16  C   UNL     1     -10.891  11.568  64.402  1.00  0.00    -0.342 A  
HETATM   17  N   UNL     1     -11.763  12.464  63.980  1.00  0.00    -0.383 NA 
HETATM   18  C   UNL     1     -11.289  13.668  64.452  1.00  0.00    -0.374 A  
HETATM   19  C   UNL     1     -10.124  13.469  65.150  1.00  0.00    -0.256 A  
HETATM   20  N   UNL     1      -9.459  14.472  65.733  1.00  0.00    -0.203 NA 
HETATM   21  C   UNL     1     -10.014  15.724  65.625  1.00  0.00    -0.345 C  
HETATM   22  N   UNL     1      -9.323  16.680  66.294  1.00  0.00    -0.282 NA 
HETATM   23  N   UNL     1     -11.110  16.026  64.992  1.00  0.00    -0.374 N  
HETATM   24  H2  UNL     1      -8.475  16.487  66.826  1.00  0.00     0.000 HD 
HETATM   25  H1  UNL     1      -9.735  17.609  66.214  1.00  0.00     0.000 HD 
HETATM   26  H   UNL     1     -11.437  16.992  64.973  1.00  0.00     0.000 HD 
HETATM   27  C   UNL     1     -11.840  15.028  64.335  1.00  0.00    -0.339 C  
HETATM   28  O   UNL     1     -12.869  15.266  63.714  1.00  0.00    -0.580 OA 
ENDBRANCH  14  15
ENDBRANCH  13  14
ENDBRANCH  12  13
BRANCH  12  29
HETATM   29  C   UNL     1      -8.238  11.566  69.020  1.00  0.00     0.067 C  
HETATM   30  O   UNL     1      -7.622  12.810  69.360  1.00  0.00    -0.293 OA 
HETATM   31  H   UNL     1      -6.878  12.649  69.927  1.00  0.00     0.000 HD 
ENDBRANCH  12  29
ENDBRANCH  11  12
ENDBRANCH  10  11
ENDBRANCH   8  10
ENDBRANCH   4   8
TORSDOF 8
ENDMDL
MODEL      172
REMARK 921   NORMALIZED FREE ENERGY PREDICTED BY IDOCK:   -4.65 KCAL/MOL
REMARK 922        TOTAL FREE ENERGY PREDICTED BY IDOCK:   -8.03 KCAL/MOL
REMARK 923 INTER-LIGAND FREE ENERGY PREDICTED BY IDOCK:   -6.45 KCAL/MOL
REMARK 924 INTRA-LIGAND FREE ENERGY PREDICTED BY IDOCK:   -1.59 KCAL/MOL
REMARK 927      BINDING AFFINITY PREDICTED BY RF-SCORE:    0.00 PKD
ROOT
HETATM    1  C   UNL     1     -10.291  17.765  66.111  1.00  0.00    -0.340 C  
HETATM    2  C   UNL     1      -9.899  17.012  67.389  1.00  0.00    -0.262 C  
HETATM    3  C   UNL     1      -8.524  17.488  67.870  1.00  0.00    -0.230 C  
HETATM    4  C   UNL     1      -9.952  15.472  67.227  1.00  0.00    -0.238 C  
HETATM    5  N   UNL     1      -9.045  14.997  66.158  1.00  0.00    -0.463 NA 
HETATM    6  H1  UNL     1      -9.080  13.983  66.052  1.00  0.00     0.000 HD 
HETATM    7  H2  UNL     1      -8.090  15.320  66.311  1.00  0.00     0.000 HD 
ENDROOT
BRANCH   4   8
HETATM    8  C   UNL     1     -11.398  14.990  66.991  1.00  0.00    -0.318 C  
HETATM    9  O   UNL     1     -12.263  14.940  67.856  1.00  0.00    -0.167 OA 
BRANCH   8  10
HETATM   10  O   UNL     1     -11.579  14.554  65.708  1.00  0.00    -0.347 OA 
BRANCH  10  11
HETATM   11  C   UNL     1     -12.523  13.482  65.529  1.00  0.00    -0.491 C  
BRANCH  11  12
HETATM   12  C   UNL     1     -11.802  12.128  65.627  1.00  0.00    -0.276 C  
BRANCH  12  13
HETATM   13  O   UNL     1     -11.024  11.985  66.837  1.00  0.00    -0.253 OA 
BRANCH  13  14
HETATM   14  C   UNL     1     -11.197  10.717  67.467  1.00  0.00    -0.274 C  
BRANCH  14  15
HETATM   15  N   UNL     1     -10.167  10.540  68.465  1.00  0.00    -0.166 NA 
HETATM   16  C   UNL     1     -10.180   9.584  69.453  1.00  0.00    -0.206 A  
HETATM   17  N   UNL     1      -9.055   9.566  70.142  1.00  0.00    -0.226 NA 
HETATM   18  C   UNL     1      -8.276  10.550  69.573  1.00  0.00    -0.079 A  
HETATM   19  C   UNL     1      -8.961  11.150  68.546  1.00  0.00    -0.168 A  
HETATM   20  N   UNL     1      -8.428  12.130  67.808  1.00  0.00    -0.150 NA 
HETATM   21  C   UNL     1      -7.139  12.497  68.109  1.00  0.00    -0.103 C  
HETATM   22  N   UNL     1      -6.642  13.448  67.281  1.00  0.00    -0.449 NA 
HETATM   23  N   UNL     1      -6.399  11.997  69.056  1.00  0.00    -0.078 N  
HETATM   24  H2  UNL     1      -7.173  13.851  66.509  1.00  0.00     0.000 HD 
HETATM   25  H1  UNL     1      -5.685  13.721  67.504  1.00  0.00     0.000 HD 
HETATM   26  H   UNL     1      -5.450  12.342  69.195  1.00  0.00     0.000 HD 
HETATM   27  C   UNL     1      -6.905  10.987  69.884  1.00  0.00    -0.095 C  
HETATM   28  O   UNL     1      -6.252  10.496  70.796  1.00  0.00    -0.263 OA 
ENDBRANCH  14  15
ENDBRANCH  13  14
ENDBRANCH  12  13
BRANCH  12  29
HETATM   29  C   UNL     1     -10.845  11.948  64.439  1.00  0.00    -0.332 C  
HETATM   30  O   UNL     1      -9.563  12.483  64.778  1.00  0.00    -0.475 OA 
HETATM   31  H   UNL     1      -8.971  12.372  64.043  1.00  0.00     0.000 HD 
ENDBRANCH  12  29
ENDBRANCH  11  12
ENDBRANCH  10  11
ENDBRANCH   8  10
ENDBRANCH   4   8
TORSDOF 8
ENDMDL
MODEL      173
REMARK 921   NORMALIZED FREE ENERGY PREDICTED BY IDOCK:   -4.63 KCAL/MOL
REMARK 922        TOTAL FREE ENERGY PREDICTED BY IDOCK:   -8.01 KCAL/MOL
REMARK 923 INTER-LIGAND FREE ENERGY PREDICTED BY IDOCK:   -7.34 KCAL/MOL
REMARK 924 INTRA-LIGAND FREE ENERGY PREDICTED BY IDOCK:   -0.67 KCAL/MOL
REMARK 927      BINDING AFFINITY PREDICTED BY RF-SCORE:    0.00 PKD
ROOT
HETATM    1  C   UNL     1      -7.032  10.949  68.020  1.00  0.00    -0.072 C  
HETATM    2  C   UNL     1      -7.539   9.689  67.308  1.00  0.00    -0.091 C  
HETATM    3  C   UNL     1      -6.367   8.964  66.639  1.00  0.00    -0.062 C  
HETATM    4  C   UNL     1      -8.687   9.977  66.308  1.00  0.00    -0.136 C  
HETATM    5  N   UNL     1      -8.273  10.926  65.250  1.00  0.00    -0.348 NA 
HETATM    6  H1  UNL     1      -9.029  11.115  64.592  1.00  0.00     0.000 HD 
HETATM    7  H2  UNL     1      -7.435  10.602  64.768  1.00  0.00     0.000 HD 
ENDROOT
BRANCH   4   8
HETATM    8  C   UNL     1      -9.950  10.473  67.043  1.00  0.00    -0.201 C  
HETATM    9  O   UNL     1     -10.683   9.762  67.719  1.00  0.00    -0.255 OA 
BRANCH   8  10
HETATM   10  O   UNL     1     -10.195  11.793  66.787  1.00  0.00    -0.206 OA 
BRANCH  10  11
HETATM   11  C   UNL     1     -11.515  12.114  66.315  1.00  0.00    -0.374 C  
BRANCH  11  12
HETATM   12  C   UNL     1     -11.426  13.101  65.140  1.00  0.00    -0.300 C  
BRANCH  12  13
HETATM   13  O   UNL     1     -11.427  14.485  65.559  1.00  0.00    -0.332 OA 
BRANCH  13  14
HETATM   14  C   UNL     1     -10.131  14.960  65.919  1.00  0.00    -0.325 C  
BRANCH  14  15
HETATM   15  N   UNL     1     -10.263  15.932  66.981  1.00  0.00    -0.276 NA 
HETATM   16  C   UNL     1     -10.223  15.644  68.325  1.00  0.00    -0.223 A  
HETATM   17  N   UNL     1     -10.237  16.734  69.068  1.00  0.00    -0.292 NA 
HETATM   18  C   UNL     1     -10.285  17.775  68.167  1.00  0.00    -0.382 A  
HETATM   19  C   UNL     1     -10.304  17.282  66.886  1.00  0.00    -0.310 A  
HETATM   20  N   UNL     1     -10.331  18.080  65.813  1.00  0.00    -0.618 NA 
HETATM   21  C   UNL     1     -10.311  19.432  66.050  1.00  0.00    -0.497 C  
HETATM   22  N   UNL     1     -10.274  20.178  64.919  1.00  0.00     0.340 NA 
HETATM   23  N   UNL     1     -10.291  20.007  67.218  1.00  0.00    -0.423 N  
HETATM   24  H2  UNL     1     -10.262  19.774  63.982  1.00  0.00     0.000 HD 
HETATM   25  H1  UNL     1     -10.259  21.183  65.094  1.00  0.00     0.000 HD 
HETATM   26  H   UNL     1     -10.276  21.025  67.283  1.00  0.00     0.000 HD 
HETATM   27  C   UNL     1     -10.290  19.231  68.383  1.00  0.00    -0.340 C  
HETATM   28  O   UNL     1     -10.285  19.726  69.504  1.00  0.00    -0.298 OA 
ENDBRANCH  14  15
ENDBRANCH  13  14
ENDBRANCH  12  13
BRANCH  12  29
HETATM   29  C   UNL     1     -12.618  12.906  64.190  1.00  0.00    -0.262 C  
HETATM   30  O   UNL     1     -12.551  13.874  63.141  1.00  0.00    -1.057 OA 
HETATM   31  H   UNL     1     -13.288  13.754  62.554  1.00  0.00     0.000 HD 
ENDBRANCH  12  29
ENDBRANCH  11  12
ENDBRANCH  10  11
ENDBRANCH   8  10
ENDBRANCH   4   8
TORSDOF 8
ENDMDL
MODEL      174
REMARK 921   NORMALIZED FREE ENERGY PREDICTED BY IDOCK:   -4.63 KCAL/MOL
REMARK 922        TOTAL FREE ENERGY PREDICTED BY IDOCK:   -8.01 KCAL/MOL
REMARK 923 INTER-LIGAND FREE ENERGY PREDICTED BY IDOCK:   -7.19 KCAL/MOL
REMARK 924 INTRA-LIGAND FREE ENERGY PREDICTED BY IDOCK:   -0.82 KCAL/MOL
REMARK 927      BINDING AFFINITY PREDICTED BY RF-SCORE:    0.00 PKD
ROOT
HETATM    1  C   UNL     1      -7.953  10.047  65.983  1.00  0.00    -0.118 C  
HETATM    2  C   UNL     1      -8.724   9.015  65.151  1.00  0.00    -0.223 C  
HETATM    3  C   UNL     1      -8.221   7.605  65.476  1.00  0.00    -0.135 C  
HETATM    4  C   UNL     1      -8.681   9.307  63.629  1.00  0.00    -0.167 C  
HETATM    5  N   UNL     1      -7.295   9.323  63.109  1.00  0.00    -0.101 NA 
HETATM    6  H1  UNL     1      -7.267   9.515  62.108  1.00  0.00     0.000 HD 
HETATM    7  H2  UNL     1      -6.804   8.458  63.334  1.00  0.00     0.000 HD 
ENDROOT
BRANCH   4   8
HETATM    8  C   UNL     1      -9.420  10.620  63.296  1.00  0.00    -0.329 C  
HETATM    9  O   UNL     1      -9.067  11.415  62.434  1.00  0.00    -0.296 OA 
BRANCH   8  10
HETATM   10  O   UNL     1     -10.481  10.826  64.133  1.00  0.00    -0.364 OA 
BRANCH  10  11
HETATM   11  C   UNL     1     -11.111  12.117  64.053  1.00  0.00    -0.386 C  
BRANCH  11  12
HETATM   12  C   UNL     1     -10.570  13.034  65.162  1.00  0.00    -0.312 C  
BRANCH  12  13
HETATM   13  O   UNL     1     -11.270  12.880  66.418  1.00  0.00    -0.282 OA 
BRANCH  13  14
HETATM   14  C   UNL     1     -10.492  13.284  67.543  1.00  0.00    -0.235 C  
BRANCH  14  15
HETATM   15  N   UNL     1     -11.132  12.815  68.752  1.00  0.00    -0.249 NA 
HETATM   16  C   UNL     1     -11.885  13.593  69.600  1.00  0.00    -0.335 A  
HETATM   17  N   UNL     1     -12.456  12.880  70.553  1.00  0.00    -0.265 NA 
HETATM   18  C   UNL     1     -12.061  11.583  70.308  1.00  0.00    -0.359 A  
HETATM   19  C   UNL     1     -11.245  11.545  69.205  1.00  0.00    -0.272 A  
HETATM   20  N   UNL     1     -10.734  10.402  68.734  1.00  0.00    -0.211 NA 
HETATM   21  C   UNL     1     -11.086   9.251  69.395  1.00  0.00    -0.043 C  
HETATM   22  N   UNL     1     -10.584   8.127  68.825  1.00  0.00    -0.361 NA 
HETATM   23  N   UNL     1     -11.849   9.171  70.445  1.00  0.00    -0.466 N  
HETATM   24  H2  UNL     1     -10.003   8.136  67.987  1.00  0.00     0.000 HD 
HETATM   25  H1  UNL     1     -10.845   7.272  69.316  1.00  0.00     0.000 HD 
HETATM   26  H   UNL     1     -12.050   8.261  70.861  1.00  0.00     0.000 HD 
HETATM   27  C   UNL     1     -12.396  10.331  71.007  1.00  0.00    -0.381 C  
HETATM   28  O   UNL     1     -13.109  10.308  72.003  1.00  0.00    -0.447 OA 
ENDBRANCH  14  15
ENDBRANCH  13  14
ENDBRANCH  12  13
BRANCH  12  29
HETATM   29  C   UNL     1     -10.694  14.506  64.742  1.00  0.00    -0.393 C  
HETATM   30  O   UNL     1     -12.074  14.837  64.574  1.00  0.00    -0.461 OA 
HETATM   31  H   UNL     1     -12.151  15.747  64.314  1.00  0.00     0.000 HD 
ENDBRANCH  12  29
ENDBRANCH  11  12
ENDBRANCH  10  11
ENDBRANCH   8  10
ENDBRANCH   4   8
TORSDOF 8
ENDMDL
MODEL      175
REMARK 921   NORMALIZED FREE ENERGY PREDICTED BY IDOCK:   -4.61 KCAL/MOL
REMARK 922        TOTAL FREE ENERGY PREDICTED BY IDOCK:   -7.99 KCAL/MOL
REMARK 923 INTER-LIGAND FREE ENERGY PREDICTED BY IDOCK:   -7.26 KCAL/MOL
REMARK 924 INTRA-LIGAND FREE ENERGY PREDICTED BY IDOCK:   -0.73 KCAL/MOL
REMARK 927      BINDING AFFINITY PREDICTED BY RF-SCORE:    0.00 PKD
ROOT
HETATM    1  C   UNL     1      -5.977  14.265  70.914  1.00  0.00    -0.200 C  
HETATM    2  C   UNL     1      -6.094  14.972  69.558  1.00  0.00    -0.117 C  
HETATM    3  C   UNL     1      -5.981  16.487  69.751  1.00  0.00    -0.208 C  
HETATM    4  C   UNL     1      -7.376  14.583  68.779  1.00  0.00    -0.129 C  
HETATM    5  N   UNL     1      -8.604  14.911  69.537  1.00  0.00    -0.431 NA 
HETATM    6  H1  UNL     1      -9.448  14.655  69.025  1.00  0.00     0.000 HD 
HETATM    7  H2  UNL     1      -8.621  15.893  69.810  1.00  0.00     0.000 HD 
ENDROOT
BRANCH   4   8
HETATM    8  C   UNL     1      -7.348  13.094  68.375  1.00  0.00    -0.116 C  
HETATM    9  O   UNL     1      -6.879  12.197  69.065  1.00  0.00    -0.097 OA 
BRANCH   8  10
HETATM   10  O   UNL     1      -7.846  12.905  67.116  1.00  0.00    -0.156 OA 
BRANCH  10  11
HETATM   11  C   UNL     1      -8.782  11.824  66.960  1.00  0.00    -0.181 C  
BRANCH  11  12
HETATM   12  C   UNL     1     -10.145  12.221  67.548  1.00  0.00    -0.201 C  
BRANCH  12  13
HETATM   13  O   UNL     1     -10.321  11.791  68.917  1.00  0.00    -0.200 OA 
BRANCH  13  14
HETATM   14  C   UNL     1     -11.619  11.258  69.173  1.00  0.00    -0.319 C  
BRANCH  14  15
HETATM   15  N   UNL     1     -12.250  12.033  70.217  1.00  0.00    -0.298 NA 
HETATM   16  C   UNL     1     -12.800  11.513  71.365  1.00  0.00    -0.384 A  
HETATM   17  N   UNL     1     -13.190  12.456  72.201  1.00  0.00    -0.466 NA 
HETATM   18  C   UNL     1     -12.875  13.639  71.570  1.00  0.00    -0.359 A  
HETATM   19  C   UNL     1     -12.302  13.379  70.351  1.00  0.00    -0.312 A  
HETATM   20  N   UNL     1     -11.882  14.353  69.536  1.00  0.00    -0.309 NA 
HETATM   21  C   UNL     1     -12.026  15.641  69.989  1.00  0.00    -0.368 C  
HETATM   22  N   UNL     1     -11.521  16.571  69.142  1.00  0.00    -0.231 NA 
HETATM   23  N   UNL     1     -12.552  16.002  71.124  1.00  0.00    -0.539 N  
HETATM   24  H2  UNL     1     -11.076  16.336  68.255  1.00  0.00     0.000 HD 
HETATM   25  H1  UNL     1     -11.628  17.528  69.478  1.00  0.00     0.000 HD 
HETATM   26  H   UNL     1     -12.611  16.991  71.366  1.00  0.00     0.000 HD 
HETATM   27  C   UNL     1     -13.038  15.034  72.012  1.00  0.00    -0.350 C  
HETATM   28  O   UNL     1     -13.553  15.325  73.085  1.00  0.00    -0.459 OA 
ENDBRANCH  14  15
ENDBRANCH  13  14
ENDBRANCH  12  13
BRANCH  12  29
HETATM   29  C   UNL     1     -11.282  11.601  66.721  1.00  0.00    -0.308 C  
HETATM   30  O   UNL     1     -12.093  12.643  66.173  1.00  0.00    -0.521 OA 
HETATM   31  H   UNL     1     -12.796  12.260  65.662  1.00  0.00     0.000 HD 
ENDBRANCH  12  29
ENDBRANCH  11  12
ENDBRANCH  10  11
ENDBRANCH   8  10
ENDBRANCH   4   8
TORSDOF 8
ENDMDL
MODEL      176
REMARK 921   NORMALIZED FREE ENERGY PREDICTED BY IDOCK:   -4.61 KCAL/MOL
REMARK 922        TOTAL FREE ENERGY PREDICTED BY IDOCK:   -7.99 KCAL/MOL
REMARK 923 INTER-LIGAND FREE ENERGY PREDICTED BY IDOCK:   -7.41 KCAL/MOL
REMARK 924 INTRA-LIGAND FREE ENERGY PREDICTED BY IDOCK:   -0.58 KCAL/MOL
REMARK 927      BINDING AFFINITY PREDICTED BY RF-SCORE:    0.00 PKD
ROOT
HETATM    1  C   UNL     1      -7.042   5.782  70.383  1.00  0.00    -0.070 C  
HETATM    2  C   UNL     1      -6.616   7.180  69.919  1.00  0.00    -0.044 C  
HETATM    3  C   UNL     1      -5.454   7.681  70.784  1.00  0.00    -0.026 C  
HETATM    4  C   UNL     1      -7.788   8.193  69.884  1.00  0.00    -0.104 C  
HETATM    5  N   UNL     1      -8.415   8.358  71.215  1.00  0.00    -0.134 NA 
HETATM    6  H1  UNL     1      -9.187   9.025  71.191  1.00  0.00     0.000 HD 
HETATM    7  H2  UNL     1      -7.725   8.615  71.920  1.00  0.00     0.000 HD 
ENDROOT
BRANCH   4   8
HETATM    8  C   UNL     1      -8.831   7.795  68.819  1.00  0.00    -0.134 C  
HETATM    9  O   UNL     1      -8.590   7.106  67.835  1.00  0.00    -0.123 OA 
BRANCH   8  10
HETATM   10  O   UNL     1     -10.047   8.367  69.068  1.00  0.00    -0.192 OA 
BRANCH  10  11
HETATM   11  C   UNL     1     -10.733   8.920  67.930  1.00  0.00    -0.121 C  
BRANCH  11  12
HETATM   12  C   UNL     1      -9.818   9.918  67.201  1.00  0.00    -0.186 C  
BRANCH  12  13
HETATM   13  O   UNL     1     -10.220  11.295  67.384  1.00  0.00    -0.181 OA 
BRANCH  13  14
HETATM   14  C   UNL     1      -9.195  12.226  67.043  1.00  0.00    -0.205 C  
BRANCH  14  15
HETATM   15  N   UNL     1      -9.802  13.410  66.477  1.00  0.00    -0.279 NA 
HETATM   16  C   UNL     1      -9.450  14.702  66.787  1.00  0.00    -0.260 A  
HETATM   17  N   UNL     1     -10.075  15.583  66.028  1.00  0.00    -0.307 NA 
HETATM   18  C   UNL     1     -10.862  14.829  65.187  1.00  0.00    -0.404 A  
HETATM   19  C   UNL     1     -10.697  13.495  65.465  1.00  0.00    -0.290 A  
HETATM   20  N   UNL     1     -11.332  12.537  64.781  1.00  0.00    -0.303 NA 
HETATM   21  C   UNL     1     -12.148  12.950  63.756  1.00  0.00    -0.508 C  
HETATM   22  N   UNL     1     -12.707  11.926  63.066  1.00  0.00    -0.857 NA 
HETATM   23  N   UNL     1     -12.376  14.182  63.405  1.00  0.00    -1.144 N  
HETATM   24  H2  UNL     1     -12.538  10.945  63.286  1.00  0.00     0.000 HD 
HETATM   25  H1  UNL     1     -13.313  12.232  62.305  1.00  0.00     0.000 HD 
HETATM   26  H   UNL     1     -13.002  14.381  62.624  1.00  0.00     0.000 HD 
HETATM   27  C   UNL     1     -11.765  15.235  64.097  1.00  0.00    -0.103 C  
HETATM   28  O   UNL     1     -11.960  16.411  63.813  1.00  0.00    -0.964 OA 
ENDBRANCH  14  15
ENDBRANCH  13  14
ENDBRANCH  12  13
BRANCH  12  29
HETATM   29  C   UNL     1      -9.819   9.635  65.691  1.00  0.00    -0.299 C  
HETATM   30  O   UNL     1      -8.709   8.795  65.365  1.00  0.00    -0.171 OA 
HETATM   31  H   UNL     1      -8.710   8.621  64.432  1.00  0.00     0.000 HD 
ENDBRANCH  12  29
ENDBRANCH  11  12
ENDBRANCH  10  11
ENDBRANCH   8  10
ENDBRANCH   4   8
TORSDOF 8
ENDMDL
MODEL      177
REMARK 921   NORMALIZED FREE ENERGY PREDICTED BY IDOCK:   -4.61 KCAL/MOL
REMARK 922        TOTAL FREE ENERGY PREDICTED BY IDOCK:   -7.98 KCAL/MOL
REMARK 923 INTER-LIGAND FREE ENERGY PREDICTED BY IDOCK:   -7.19 KCAL/MOL
REMARK 924 INTRA-LIGAND FREE ENERGY PREDICTED BY IDOCK:   -0.79 KCAL/MOL
REMARK 927      BINDING AFFINITY PREDICTED BY RF-SCORE:    0.00 PKD
ROOT
HETATM    1  C   UNL     1     -10.278  17.881  66.134  1.00  0.00    -0.343 C  
HETATM    2  C   UNL     1      -9.719  17.072  67.310  1.00  0.00    -0.253 C  
HETATM    3  C   UNL     1      -8.260  17.468  67.565  1.00  0.00    -0.213 C  
HETATM    4  C   UNL     1      -9.878  15.542  67.126  1.00  0.00    -0.235 C  
HETATM    5  N   UNL     1      -9.188  15.057  65.910  1.00  0.00    -0.489 NA 
HETATM    6  H1  UNL     1      -9.293  14.050  65.789  1.00  0.00     0.000 HD 
HETATM    7  H2  UNL     1      -8.205  15.329  65.907  1.00  0.00     0.000 HD 
ENDROOT
BRANCH   4   8
HETATM    8  C   UNL     1     -11.367  15.137  67.125  1.00  0.00    -0.290 C  
HETATM    9  O   UNL     1     -12.065  15.057  68.128  1.00  0.00    -0.231 OA 
BRANCH   8  10
HETATM   10  O   UNL     1     -11.797  14.807  65.870  1.00  0.00    -0.314 OA 
BRANCH  10  11
HETATM   11  C   UNL     1     -12.692  13.683  65.782  1.00  0.00    -0.416 C  
BRANCH  11  12
HETATM   12  C   UNL     1     -11.964  12.482  65.157  1.00  0.00    -0.434 C  
BRANCH  12  13
HETATM   13  O   UNL     1     -10.938  11.930  66.014  1.00  0.00    -0.288 OA 
BRANCH  13  14
HETATM   14  C   UNL     1     -11.416  11.603  67.317  1.00  0.00    -0.277 C  
BRANCH  14  15
HETATM   15  N   UNL     1     -10.465  10.725  67.962  1.00  0.00    -0.183 NA 
HETATM   16  C   UNL     1     -10.331  10.568  69.321  1.00  0.00    -0.227 A  
HETATM   17  N   UNL     1      -9.478   9.608  69.629  1.00  0.00    -0.196 NA 
HETATM   18  C   UNL     1      -9.045   9.119  68.416  1.00  0.00    -0.132 A  
HETATM   19  C   UNL     1      -9.648   9.808  67.393  1.00  0.00    -0.155 A  
HETATM   20  N   UNL     1      -9.420   9.522  66.107  1.00  0.00    -0.201 NA 
HETATM   21  C   UNL     1      -8.564   8.479  65.849  1.00  0.00    -0.163 C  
HETATM   22  N   UNL     1      -8.430   8.204  64.528  1.00  0.00    -0.376 NA 
HETATM   23  N   UNL     1      -7.941   7.760  66.737  1.00  0.00    -0.106 N  
HETATM   24  H2  UNL     1      -8.918   8.722  63.797  1.00  0.00     0.000 HD 
HETATM   25  H1  UNL     1      -7.795   7.430  64.337  1.00  0.00     0.000 HD 
HETATM   26  H   UNL     1      -7.325   7.004  66.438  1.00  0.00     0.000 HD 
HETATM   27  C   UNL     1      -8.113   8.023  68.101  1.00  0.00    -0.129 C  
HETATM   28  O   UNL     1      -7.537   7.383  68.973  1.00  0.00    -0.097 OA 
ENDBRANCH  14  15
ENDBRANCH  13  14
ENDBRANCH  12  13
BRANCH  12  29
HETATM   29  C   UNL     1     -11.291  12.895  63.839  1.00  0.00    -0.436 C  
HETATM   30  O   UNL     1     -12.190  13.708  63.081  1.00  0.00    -1.003 OA 
HETATM   31  H   UNL     1     -11.773  13.962  62.266  1.00  0.00     0.000 HD 
ENDBRANCH  12  29
ENDBRANCH  11  12
ENDBRANCH  10  11
ENDBRANCH   8  10
ENDBRANCH   4   8
TORSDOF 8
ENDMDL
MODEL      178
REMARK 921   NORMALIZED FREE ENERGY PREDICTED BY IDOCK:   -4.59 KCAL/MOL
REMARK 922        TOTAL FREE ENERGY PREDICTED BY IDOCK:   -7.96 KCAL/MOL
REMARK 923 INTER-LIGAND FREE ENERGY PREDICTED BY IDOCK:   -7.52 KCAL/MOL
REMARK 924 INTRA-LIGAND FREE ENERGY PREDICTED BY IDOCK:   -0.44 KCAL/MOL
REMARK 927      BINDING AFFINITY PREDICTED BY RF-SCORE:    0.00 PKD
ROOT
HETATM    1  C   UNL     1      -5.599  13.244  70.547  1.00  0.00    -0.168 C  
HETATM    2  C   UNL     1      -5.813  14.249  69.409  1.00  0.00    -0.095 C  
HETATM    3  C   UNL     1      -5.884  15.670  69.979  1.00  0.00    -0.150 C  
HETATM    4  C   UNL     1      -7.046  13.918  68.530  1.00  0.00    -0.104 C  
HETATM    5  N   UNL     1      -8.298  13.895  69.319  1.00  0.00    -0.264 NA 
HETATM    6  H1  UNL     1      -9.108  13.677  68.740  1.00  0.00     0.000 HD 
HETATM    7  H2  UNL     1      -8.431  14.768  69.830  1.00  0.00     0.000 HD 
ENDROOT
BRANCH   4   8
HETATM    8  C   UNL     1      -6.840  12.594  67.766  1.00  0.00    -0.128 C  
HETATM    9  O   UNL     1      -5.970  12.406  66.924  1.00  0.00    -0.273 OA 
BRANCH   8  10
HETATM   10  O   UNL     1      -7.796  11.673  68.090  1.00  0.00    -0.118 OA 
BRANCH  10  11
HETATM   11  C   UNL     1      -8.098  10.690  67.083  1.00  0.00    -0.121 C  
BRANCH  11  12
HETATM   12  C   UNL     1      -9.168   9.717  67.605  1.00  0.00    -0.130 C  
BRANCH  12  13
HETATM   13  O   UNL     1     -10.516  10.130  67.285  1.00  0.00    -0.224 OA 
BRANCH  13  14
HETATM   14  C   UNL     1     -10.988  11.190  68.114  1.00  0.00    -0.238 C  
BRANCH  14  15
HETATM   15  N   UNL     1     -11.570  12.218  67.281  1.00  0.00    -0.404 NA 
HETATM   16  C   UNL     1     -12.153  13.374  67.745  1.00  0.00    -0.259 A  
HETATM   17  N   UNL     1     -12.484  14.192  66.764  1.00  0.00    -0.307 NA 
HETATM   18  C   UNL     1     -12.094  13.541  65.615  1.00  0.00    -0.430 A  
HETATM   19  C   UNL     1     -11.536  12.328  65.933  1.00  0.00    -0.393 A  
HETATM   20  N   UNL     1     -11.054  11.496  65.003  1.00  0.00    -0.244 NA 
HETATM   21  C   UNL     1     -11.117  11.926  63.700  1.00  0.00    -0.440 C  
HETATM   22  N   UNL     1     -10.552  11.064  62.819  1.00  0.00    -0.778 NA 
HETATM   23  N   UNL     1     -11.620  13.053  63.286  1.00  0.00    -0.782 N  
HETATM   24  H2  UNL     1     -10.122  10.182  63.097  1.00  0.00     0.000 HD 
HETATM   25  H1  UNL     1     -10.599  11.383  61.851  1.00  0.00     0.000 HD 
HETATM   26  H   UNL     1     -11.617  13.277  62.291  1.00  0.00     0.000 HD 
HETATM   27  C   UNL     1     -12.168  13.957  64.204  1.00  0.00    -0.393 C  
HETATM   28  O   UNL     1     -12.665  15.023  63.862  1.00  0.00    -0.775 OA 
ENDBRANCH  14  15
ENDBRANCH  13  14
ENDBRANCH  12  13
BRANCH  12  29
HETATM   29  C   UNL     1      -9.075   9.593  69.134  1.00  0.00    -0.154 C  
HETATM   30  O   UNL     1      -8.857   8.226  69.487  1.00  0.00    -0.146 OA 
HETATM   31  H   UNL     1      -8.800   8.150  70.432  1.00  0.00     0.000 HD 
ENDBRANCH  12  29
ENDBRANCH  11  12
ENDBRANCH  10  11
ENDBRANCH   8  10
ENDBRANCH   4   8
TORSDOF 8
ENDMDL
MODEL      179
REMARK 921   NORMALIZED FREE ENERGY PREDICTED BY IDOCK:   -4.59 KCAL/MOL
REMARK 922        TOTAL FREE ENERGY PREDICTED BY IDOCK:   -7.96 KCAL/MOL
REMARK 923 INTER-LIGAND FREE ENERGY PREDICTED BY IDOCK:   -6.56 KCAL/MOL
REMARK 924 INTRA-LIGAND FREE ENERGY PREDICTED BY IDOCK:   -1.40 KCAL/MOL
REMARK 927      BINDING AFFINITY PREDICTED BY RF-SCORE:    0.00 PKD
ROOT
HETATM    1  C   UNL     1      -5.891  12.903  68.640  1.00  0.00    -0.069 C  
HETATM    2  C   UNL     1      -6.339  14.099  67.790  1.00  0.00    -0.169 C  
HETATM    3  C   UNL     1      -5.334  15.245  67.938  1.00  0.00    -0.125 C  
HETATM    4  C   UNL     1      -7.786  14.556  68.100  1.00  0.00    -0.135 C  
HETATM    5  N   UNL     1      -7.949  14.956  69.516  1.00  0.00    -0.383 NA 
HETATM    6  H1  UNL     1      -8.901  15.257  69.720  1.00  0.00     0.000 HD 
HETATM    7  H2  UNL     1      -7.270  15.670  69.780  1.00  0.00     0.000 HD 
ENDROOT
BRANCH   4   8
HETATM    8  C   UNL     1      -8.807  13.469  67.705  1.00  0.00    -0.202 C  
HETATM    9  O   UNL     1      -8.734  12.785  66.691  1.00  0.00    -0.167 OA 
BRANCH   8  10
HETATM   10  O   UNL     1      -9.848  13.411  68.589  1.00  0.00    -0.205 OA 
BRANCH  10  11
HETATM   11  C   UNL     1     -11.166  13.536  68.026  1.00  0.00    -0.271 C  
BRANCH  11  12
HETATM   12  C   UNL     1     -11.989  14.548  68.840  1.00  0.00    -0.290 C  
BRANCH  12  13
HETATM   13  O   UNL     1     -11.907  15.895  68.320  1.00  0.00    -0.277 OA 
BRANCH  13  14
HETATM   14  C   UNL     1     -10.813  16.636  68.856  1.00  0.00    -0.321 C  
BRANCH  14  15
HETATM   15  N   UNL     1     -10.114  17.295  67.776  1.00  0.00    -0.298 NA 
HETATM   16  C   UNL     1     -10.544  17.343  66.470  1.00  0.00    -0.184 A  
HETATM   17  N   UNL     1      -9.781  18.119  65.724  1.00  0.00    -0.464 NA 
HETATM   18  C   UNL     1      -8.818  18.599  66.584  1.00  0.00    -0.302 A  
HETATM   19  C   UNL     1      -9.021  18.089  67.842  1.00  0.00    -0.265 A  
HETATM   20  N   UNL     1      -8.237  18.409  68.878  1.00  0.00    -0.226 NA 
HETATM   21  C   UNL     1      -7.222  19.301  68.631  1.00  0.00    -0.332 C  
HETATM   22  N   UNL     1      -6.511  19.628  69.737  1.00  0.00    -0.328 NA 
HETATM   23  N   UNL     1      -6.940  19.845  67.483  1.00  0.00    -0.231 N  
HETATM   24  H2  UNL     1      -6.709  19.249  70.663  1.00  0.00     0.000 HD 
HETATM   25  H1  UNL     1      -5.757  20.291  69.555  1.00  0.00     0.000 HD 
HETATM   26  H   UNL     1      -6.162  20.500  67.408  1.00  0.00     0.000 HD 
HETATM   27  C   UNL     1      -7.704  19.533  66.351  1.00  0.00    -0.296 C  
HETATM   28  O   UNL     1      -7.468  20.009  65.247  1.00  0.00    -0.330 OA 
ENDBRANCH  14  15
ENDBRANCH  13  14
ENDBRANCH  12  13
BRANCH  12  29
HETATM   29  C   UNL     1     -11.497  14.586  70.295  1.00  0.00    -0.224 C  
HETATM   30  O   UNL     1     -12.029  13.465  71.005  1.00  0.00    -0.461 OA 
HETATM   31  H   UNL     1     -11.726  13.489  71.904  1.00  0.00     0.000 HD 
ENDBRANCH  12  29
ENDBRANCH  11  12
ENDBRANCH  10  11
ENDBRANCH   8  10
ENDBRANCH   4   8
TORSDOF 8
ENDMDL
MODEL      180
REMARK 921   NORMALIZED FREE ENERGY PREDICTED BY IDOCK:   -4.59 KCAL/MOL
REMARK 922        TOTAL FREE ENERGY PREDICTED BY IDOCK:   -7.95 KCAL/MOL
REMARK 923 INTER-LIGAND FREE ENERGY PREDICTED BY IDOCK:   -6.88 KCAL/MOL
REMARK 924 INTRA-LIGAND FREE ENERGY PREDICTED BY IDOCK:   -1.07 KCAL/MOL
REMARK 927      BINDING AFFINITY PREDICTED BY RF-SCORE:    0.00 PKD
ROOT
HETATM    1  C   UNL     1      -5.271  10.001  67.618  1.00  0.00    -0.034 C  
HETATM    2  C   UNL     1      -6.235   9.805  66.441  1.00  0.00    -0.068 C  
HETATM    3  C   UNL     1      -5.646  10.441  65.177  1.00  0.00    -0.137 C  
HETATM    4  C   UNL     1      -7.666  10.323  66.735  1.00  0.00    -0.111 C  
HETATM    5  N   UNL     1      -7.675  11.767  67.057  1.00  0.00    -0.161 NA 
HETATM    6  H1  UNL     1      -8.617  12.107  67.250  1.00  0.00     0.000 HD 
HETATM    7  H2  UNL     1      -7.228  12.315  66.323  1.00  0.00     0.000 HD 
ENDROOT
BRANCH   4   8
HETATM    8  C   UNL     1      -8.335   9.495  67.851  1.00  0.00    -0.115 C  
HETATM    9  O   UNL     1      -8.764   8.356  67.708  1.00  0.00    -0.136 OA 
BRANCH   8  10
HETATM   10  O   UNL     1      -8.458  10.215  69.006  1.00  0.00    -0.129 OA 
BRANCH  10  11
HETATM   11  C   UNL     1      -9.620   9.935  69.808  1.00  0.00    -0.231 C  
BRANCH  11  12
HETATM   12  C   UNL     1     -10.812  10.771  69.312  1.00  0.00    -0.242 C  
BRANCH  12  13
HETATM   13  O   UNL     1     -10.416  12.033  68.728  1.00  0.00    -0.222 OA 
BRANCH  13  14
HETATM   14  C   UNL     1     -11.475  12.989  68.693  1.00  0.00    -0.307 C  
BRANCH  14  15
HETATM   15  N   UNL     1     -11.526  13.589  67.379  1.00  0.00    -0.318 NA 
HETATM   16  C   UNL     1     -12.146  13.036  66.283  1.00  0.00    -0.386 A  
HETATM   17  N   UNL     1     -12.151  13.857  65.249  1.00  0.00    -0.387 NA 
HETATM   18  C   UNL     1     -11.512  14.992  65.696  1.00  0.00    -0.248 A  
HETATM   19  C   UNL     1     -11.125  14.825  67.003  1.00  0.00    -0.333 A  
HETATM   20  N   UNL     1     -10.497  15.785  67.691  1.00  0.00    -0.276 NA 
HETATM   21  C   UNL     1     -10.277  16.971  67.033  1.00  0.00    -0.303 C  
HETATM   22  N   UNL     1      -9.696  17.918  67.810  1.00  0.00    -0.275 NA 
HETATM   23  N   UNL     1     -10.600  17.238  65.802  1.00  0.00    -0.282 N  
HETATM   24  H2  UNL     1      -9.448  17.765  68.787  1.00  0.00     0.000 HD 
HETATM   25  H1  UNL     1      -9.532  18.799  67.322  1.00  0.00     0.000 HD 
HETATM   26  H   UNL     1     -10.391  18.155  65.408  1.00  0.00     0.000 HD 
HETATM   27  C   UNL     1     -11.235  16.268  65.016  1.00  0.00    -0.176 C  
HETATM   28  O   UNL     1     -11.546  16.468  63.848  1.00  0.00    -1.175 OA 
ENDBRANCH  14  15
ENDBRANCH  13  14
ENDBRANCH  12  13
BRANCH  12  29
HETATM   29  C   UNL     1     -11.765  11.080  70.476  1.00  0.00    -0.318 C  
HETATM   30  O   UNL     1     -12.820  10.115  70.495  1.00  0.00    -0.511 OA 
HETATM   31  H   UNL     1     -13.409  10.307  71.214  1.00  0.00     0.000 HD 
ENDBRANCH  12  29
ENDBRANCH  11  12
ENDBRANCH  10  11
ENDBRANCH   8  10
ENDBRANCH   4   8
TORSDOF 8
ENDMDL
MODEL      181
REMARK 921   NORMALIZED FREE ENERGY PREDICTED BY IDOCK:   -4.58 KCAL/MOL
REMARK 922        TOTAL FREE ENERGY PREDICTED BY IDOCK:   -7.94 KCAL/MOL
REMARK 923 INTER-LIGAND FREE ENERGY PREDICTED BY IDOCK:   -7.27 KCAL/MOL
REMARK 924 INTRA-LIGAND FREE ENERGY PREDICTED BY IDOCK:   -0.67 KCAL/MOL
REMARK 927      BINDING AFFINITY PREDICTED BY RF-SCORE:    0.00 PKD
ROOT
HETATM    1  C   UNL     1      -7.121  17.155  68.367  1.00  0.00    -0.206 C  
HETATM    2  C   UNL     1      -7.269  16.703  66.909  1.00  0.00    -0.261 C  
HETATM    3  C   UNL     1      -6.804  17.819  65.970  1.00  0.00    -0.327 C  
HETATM    4  C   UNL     1      -8.701  16.219  66.567  1.00  0.00    -0.292 C  
HETATM    5  N   UNL     1      -9.710  17.279  66.789  1.00  0.00    -0.269 NA 
HETATM    6  H1  UNL     1     -10.652  16.960  66.563  1.00  0.00     0.000 HD 
HETATM    7  H2  UNL     1      -9.474  18.129  66.277  1.00  0.00     0.000 HD 
ENDROOT
BRANCH   4   8
HETATM    8  C   UNL     1      -9.054  14.937  67.348  1.00  0.00    -0.189 C  
HETATM    9  O   UNL     1      -9.675  14.916  68.404  1.00  0.00    -0.198 OA 
BRANCH   8  10
HETATM   10  O   UNL     1      -8.525  13.825  66.755  1.00  0.00    -0.122 OA 
BRANCH  10  11
HETATM   11  C   UNL     1      -8.976  12.557  67.267  1.00  0.00    -0.192 C  
BRANCH  11  12
HETATM   12  C   UNL     1     -10.367  12.229  66.702  1.00  0.00    -0.215 C  
BRANCH  12  13
HETATM   13  O   UNL     1     -11.148  11.379  67.573  1.00  0.00    -0.244 OA 
BRANCH  13  14
HETATM   14  C   UNL     1     -10.585  11.249  68.877  1.00  0.00    -0.207 C  
BRANCH  14  15
HETATM   15  N   UNL     1     -11.602  11.541  69.862  1.00  0.00    -0.312 NA 
HETATM   16  C   UNL     1     -12.121  10.633  70.754  1.00  0.00    -0.374 A  
HETATM   17  N   UNL     1     -12.938  11.200  71.623  1.00  0.00    -0.462 NA 
HETATM   18  C   UNL     1     -12.944  12.535  71.281  1.00  0.00    -0.208 A  
HETATM   19  C   UNL     1     -12.127  12.742  70.198  1.00  0.00    -0.298 A  
HETATM   20  N   UNL     1     -11.935  13.956  69.670  1.00  0.00    -0.324 NA 
HETATM   21  C   UNL     1     -12.578  15.004  70.282  1.00  0.00    -0.317 C  
HETATM   22  N   UNL     1     -12.287  16.209  69.735  1.00  0.00    -0.417 NA 
HETATM   23  N   UNL     1     -13.371  14.923  71.311  1.00  0.00    -0.393 N  
HETATM   24  H2  UNL     1     -11.651  16.327  68.946  1.00  0.00     0.000 HD 
HETATM   25  H1  UNL     1     -12.764  16.988  70.190  1.00  0.00     0.000 HD 
HETATM   26  H   UNL     1     -13.800  15.766  71.691  1.00  0.00     0.000 HD 
HETATM   27  C   UNL     1     -13.638  13.679  71.896  1.00  0.00    -0.427 C  
HETATM   28  O   UNL     1     -14.388  13.550  72.856  1.00  0.00    -0.466 OA 
ENDBRANCH  14  15
ENDBRANCH  13  14
ENDBRANCH  12  13
BRANCH  12  29
HETATM   29  C   UNL     1     -10.235  11.506  65.352  1.00  0.00    -0.264 C  
HETATM   30  O   UNL     1     -10.196  10.095  65.571  1.00  0.00    -0.286 OA 
HETATM   31  H   UNL     1     -10.115   9.648  64.736  1.00  0.00     0.000 HD 
ENDBRANCH  12  29
ENDBRANCH  11  12
ENDBRANCH  10  11
ENDBRANCH   8  10
ENDBRANCH   4   8
TORSDOF 8
ENDMDL
MODEL      182
REMARK 921   NORMALIZED FREE ENERGY PREDICTED BY IDOCK:   -4.58 KCAL/MOL
REMARK 922        TOTAL FREE ENERGY PREDICTED BY IDOCK:   -7.94 KCAL/MOL
REMARK 923 INTER-LIGAND FREE ENERGY PREDICTED BY IDOCK:   -7.30 KCAL/MOL
REMARK 924 INTRA-LIGAND FREE ENERGY PREDICTED BY IDOCK:   -0.64 KCAL/MOL
REMARK 927      BINDING AFFINITY PREDICTED BY RF-SCORE:    0.00 PKD
ROOT
HETATM    1  C   UNL     1     -11.672  15.721  73.017  1.00  0.00    -0.458 C  
HETATM    2  C   UNL     1     -11.756  15.252  71.560  1.00  0.00    -0.450 C  
HETATM    3  C   UNL     1     -11.347  16.393  70.623  1.00  0.00    -0.208 C  
HETATM    4  C   UNL     1     -13.144  14.670  71.188  1.00  0.00    -0.366 C  
HETATM    5  N   UNL     1     -14.228  15.659  71.380  1.00  0.00    -0.608 NA 
HETATM    6  H1  UNL     1     -15.140  15.276  71.135  1.00  0.00     0.000 HD 
HETATM    7  H2  UNL     1     -14.039  16.521  70.868  1.00  0.00     0.000 HD 
ENDROOT
BRANCH   4   8
HETATM    8  C   UNL     1     -13.426  13.371  71.971  1.00  0.00    -0.494 C  
HETATM    9  O   UNL     1     -14.395  13.197  72.700  1.00  0.00    -0.636 OA 
BRANCH   8  10
HETATM   10  O   UNL     1     -12.422  12.457  71.809  1.00  0.00    -0.056 OA 
BRANCH  10  11
HETATM   11  C   UNL     1     -12.743  11.294  71.025  1.00  0.00    -0.359 C  
BRANCH  11  12
HETATM   12  C   UNL     1     -12.146  10.039  71.683  1.00  0.00    -0.334 C  
BRANCH  12  13
HETATM   13  O   UNL     1     -11.123   9.409  70.879  1.00  0.00    -0.265 OA 
BRANCH  13  14
HETATM   14  C   UNL     1     -11.375   8.026  70.636  1.00  0.00    -0.252 C  
BRANCH  14  15
HETATM   15  N   UNL     1     -10.118   7.311  70.630  1.00  0.00    -0.194 NA 
HETATM   16  C   UNL     1      -9.163   7.384  71.616  1.00  0.00    -0.142 A  
HETATM   17  N   UNL     1      -8.177   6.530  71.417  1.00  0.00    -0.119 NA 
HETATM   18  C   UNL     1      -8.510   5.871  70.254  1.00  0.00    -0.127 A  
HETATM   19  C   UNL     1      -9.700   6.354  69.769  1.00  0.00    -0.154 A  
HETATM   20  N   UNL     1     -10.267   5.874  68.657  1.00  0.00    -0.174 NA 
HETATM   21  C   UNL     1      -9.611   4.845  68.026  1.00  0.00    -0.146 C  
HETATM   22  N   UNL     1     -10.274   4.366  66.945  1.00  0.00    -0.231 NA 
HETATM   23  N   UNL     1      -8.484   4.311  68.396  1.00  0.00    -0.091 N  
HETATM   24  H2  UNL     1     -11.172   4.733  66.630  1.00  0.00     0.000 HD 
HETATM   25  H1  UNL     1      -9.787   3.602  66.475  1.00  0.00     0.000 HD 
HETATM   26  H   UNL     1      -8.080   3.546  67.854  1.00  0.00     0.000 HD 
HETATM   27  C   UNL     1      -7.823   4.784  69.536  1.00  0.00    -0.066 C  
HETATM   28  O   UNL     1      -6.753   4.323  69.916  1.00  0.00    -0.032 OA 
ENDBRANCH  14  15
ENDBRANCH  13  14
ENDBRANCH  12  13
BRANCH  12  29
HETATM   29  C   UNL     1     -13.246   8.995  71.930  1.00  0.00    -0.405 C  
HETATM   30  O   UNL     1     -14.094   9.441  72.990  1.00  0.00    -0.936 OA 
HETATM   31  H   UNL     1     -14.773   8.795  73.144  1.00  0.00     0.000 HD 
ENDBRANCH  12  29
ENDBRANCH  11  12
ENDBRANCH  10  11
ENDBRANCH   8  10
ENDBRANCH   4   8
TORSDOF 8
ENDMDL
MODEL      183
REMARK 921   NORMALIZED FREE ENERGY PREDICTED BY IDOCK:   -4.58 KCAL/MOL
REMARK 922        TOTAL FREE ENERGY PREDICTED BY IDOCK:   -7.94 KCAL/MOL
REMARK 923 INTER-LIGAND FREE ENERGY PREDICTED BY IDOCK:   -6.88 KCAL/MOL
REMARK 924 INTRA-LIGAND FREE ENERGY PREDICTED BY IDOCK:   -1.06 KCAL/MOL
REMARK 927      BINDING AFFINITY PREDICTED BY RF-SCORE:    0.00 PKD
ROOT
HETATM    1  C   UNL     1      -8.421  18.396  68.374  1.00  0.00    -0.345 C  
HETATM    2  C   UNL     1      -9.703  18.929  67.722  1.00  0.00    -0.371 C  
HETATM    3  C   UNL     1     -10.296  20.049  68.584  1.00  0.00    -0.370 C  
HETATM    4  C   UNL     1     -10.741  17.818  67.426  1.00  0.00    -0.279 C  
HETATM    5  N   UNL     1     -11.153  17.104  68.655  1.00  0.00    -0.219 NA 
HETATM    6  H1  UNL     1     -11.836  16.373  68.460  1.00  0.00     0.000 HD 
HETATM    7  H2  UNL     1     -11.498  17.753  69.363  1.00  0.00     0.000 HD 
ENDROOT
BRANCH   4   8
HETATM    8  C   UNL     1     -10.211  16.836  66.360  1.00  0.00    -0.323 C  
HETATM    9  O   UNL     1      -9.424  17.137  65.470  1.00  0.00    -0.465 OA 
BRANCH   8  10
HETATM   10  O   UNL     1     -10.784  15.602  66.483  1.00  0.00    -0.307 OA 
BRANCH  10  11
HETATM   11  C   UNL     1     -10.644  14.721  65.355  1.00  0.00    -0.378 C  
BRANCH  11  12
HETATM   12  C   UNL     1     -11.552  13.493  65.531  1.00  0.00    -0.320 C  
BRANCH  12  13
HETATM   13  O   UNL     1     -10.931  12.260  65.100  1.00  0.00    -0.286 OA 
BRANCH  13  14
HETATM   14  C   UNL     1     -10.687  11.353  66.173  1.00  0.00    -0.267 C  
BRANCH  14  15
HETATM   15  N   UNL     1      -9.317  11.499  66.612  1.00  0.00    -0.184 NA 
HETATM   16  C   UNL     1      -8.245  10.809  66.098  1.00  0.00    -0.163 A  
HETATM   17  N   UNL     1      -7.097  11.233  66.592  1.00  0.00    -0.141 NA 
HETATM   18  C   UNL     1      -7.440  12.246  67.460  1.00  0.00    -0.149 A  
HETATM   19  C   UNL     1      -8.803  12.406  67.475  1.00  0.00    -0.181 A  
HETATM   20  N   UNL     1      -9.405  13.338  68.222  1.00  0.00    -0.215 NA 
HETATM   21  C   UNL     1      -8.588  14.157  68.963  1.00  0.00     0.109 C  
HETATM   22  N   UNL     1      -9.261  15.118  69.642  1.00  0.00    -0.450 NA 
HETATM   23  N   UNL     1      -7.290  14.096  69.023  1.00  0.00    -0.176 N  
HETATM   24  H2  UNL     1     -10.275  15.223  69.606  1.00  0.00     0.000 HD 
HETATM   25  H1  UNL     1      -8.655  15.726  70.193  1.00  0.00     0.000 HD 
HETATM   26  H   UNL     1      -6.776  14.755  69.607  1.00  0.00     0.000 HD 
HETATM   27  C   UNL     1      -6.597  13.125  68.288  1.00  0.00    -0.097 C  
HETATM   28  O   UNL     1      -5.377  13.019  68.324  1.00  0.00    -0.069 OA 
ENDBRANCH  14  15
ENDBRANCH  13  14
ENDBRANCH  12  13
BRANCH  12  29
HETATM   29  C   UNL     1     -12.845  13.667  64.719  1.00  0.00    -0.123 C  
HETATM   30  O   UNL     1     -12.515  13.986  63.365  1.00  0.00    -1.108 OA 
HETATM   31  H   UNL     1     -13.314  14.093  62.863  1.00  0.00     0.000 HD 
ENDBRANCH  12  29
ENDBRANCH  11  12
ENDBRANCH  10  11
ENDBRANCH   8  10
ENDBRANCH   4   8
TORSDOF 8
ENDMDL
MODEL      184
REMARK 921   NORMALIZED FREE ENERGY PREDICTED BY IDOCK:   -4.57 KCAL/MOL
REMARK 922        TOTAL FREE ENERGY PREDICTED BY IDOCK:   -7.92 KCAL/MOL
REMARK 923 INTER-LIGAND FREE ENERGY PREDICTED BY IDOCK:   -7.42 KCAL/MOL
REMARK 924 INTRA-LIGAND FREE ENERGY PREDICTED BY IDOCK:   -0.50 KCAL/MOL
REMARK 927      BINDING AFFINITY PREDICTED BY RF-SCORE:    0.00 PKD
ROOT
HETATM    1  C   UNL     1     -11.973  14.792  66.898  1.00  0.00    -0.212 C  
HETATM    2  C   UNL     1     -10.852  14.564  65.877  1.00  0.00    -0.308 C  
HETATM    3  C   UNL     1     -10.114  15.880  65.613  1.00  0.00    -0.388 C  
HETATM    4  C   UNL     1     -11.351  13.908  64.564  1.00  0.00    -0.372 C  
HETATM    5  N   UNL     1     -12.379  14.733  63.891  1.00  0.00    -1.070 NA 
HETATM    6  H1  UNL     1     -12.707  14.301  63.027  1.00  0.00     0.000 HD 
HETATM    7  H2  UNL     1     -12.044  15.682  63.726  1.00  0.00     0.000 HD 
ENDROOT
BRANCH   4   8
HETATM    8  C   UNL     1     -11.862  12.476  64.821  1.00  0.00    -0.383 C  
HETATM    9  O   UNL     1     -13.039  12.141  64.778  1.00  0.00    -0.602 OA 
BRANCH   8  10
HETATM   10  O   UNL     1     -10.844  11.635  65.175  1.00  0.00    -0.290 OA 
BRANCH  10  11
HETATM   11  C   UNL     1     -10.767  11.283  66.568  1.00  0.00    -0.271 C  
BRANCH  11  12
HETATM   12  C   UNL     1     -10.500   9.776  66.714  1.00  0.00    -0.189 C  
BRANCH  12  13
HETATM   13  O   UNL     1     -10.974   9.235  67.968  1.00  0.00    -0.155 OA 
BRANCH  13  14
HETATM   14  C   UNL     1     -10.425   9.898  69.106  1.00  0.00    -0.217 C  
BRANCH  14  15
HETATM   15  N   UNL     1     -10.655   9.088  70.281  1.00  0.00    -0.208 NA 
HETATM   16  C   UNL     1     -11.237   9.533  71.444  1.00  0.00    -0.382 A  
HETATM   17  N   UNL     1     -11.442   8.553  72.304  1.00  0.00    -0.374 NA 
HETATM   18  C   UNL     1     -10.976   7.423  71.669  1.00  0.00    -0.225 A  
HETATM   19  C   UNL     1     -10.489   7.753  70.428  1.00  0.00    -0.221 A  
HETATM   20  N   UNL     1      -9.991   6.839  69.589  1.00  0.00    -0.171 NA 
HETATM   21  C   UNL     1     -10.012   5.534  70.016  1.00  0.00    -0.218 C  
HETATM   22  N   UNL     1      -9.553   4.656  69.091  1.00  0.00    -0.161 NA 
HETATM   23  N   UNL     1     -10.449   5.109  71.166  1.00  0.00    -0.202 N  
HETATM   24  H2  UNL     1      -9.225   4.937  68.167  1.00  0.00     0.000 HD 
HETATM   25  H1  UNL     1      -9.568   3.686  69.408  1.00  0.00     0.000 HD 
HETATM   26  H   UNL     1     -10.420   4.113  71.385  1.00  0.00     0.000 HD 
HETATM   27  C   UNL     1     -10.958   6.016  72.103  1.00  0.00    -0.267 C  
HETATM   28  O   UNL     1     -11.368   5.666  73.203  1.00  0.00    -0.262 OA 
ENDBRANCH  14  15
ENDBRANCH  13  14
ENDBRANCH  12  13
BRANCH  12  29
HETATM   29  C   UNL     1      -8.993   9.492  66.628  1.00  0.00    -0.146 C  
HETATM   30  O   UNL     1      -8.747   8.127  66.976  1.00  0.00    -0.127 OA 
HETATM   31  H   UNL     1      -7.815   7.951  66.923  1.00  0.00     0.000 HD 
ENDBRANCH  12  29
ENDBRANCH  11  12
ENDBRANCH  10  11
ENDBRANCH   8  10
ENDBRANCH   4   8
TORSDOF 8
ENDMDL
MODEL      185
REMARK 921   NORMALIZED FREE ENERGY PREDICTED BY IDOCK:   -4.56 KCAL/MOL
REMARK 922        TOTAL FREE ENERGY PREDICTED BY IDOCK:   -7.91 KCAL/MOL
REMARK 923 INTER-LIGAND FREE ENERGY PREDICTED BY IDOCK:   -7.19 KCAL/MOL
REMARK 924 INTRA-LIGAND FREE ENERGY PREDICTED BY IDOCK:   -0.72 KCAL/MOL
REMARK 927      BINDING AFFINITY PREDICTED BY RF-SCORE:    0.00 PKD
ROOT
HETATM    1  C   UNL     1      -9.162   4.767  69.582  1.00  0.00    -0.180 C  
HETATM    2  C   UNL     1      -8.970   6.195  70.107  1.00  0.00    -0.149 C  
HETATM    3  C   UNL     1      -7.749   6.834  69.438  1.00  0.00    -0.105 C  
HETATM    4  C   UNL     1      -8.885   6.267  71.652  1.00  0.00    -0.138 C  
HETATM    5  N   UNL     1      -7.761   5.464  72.183  1.00  0.00    -0.099 NA 
HETATM    6  H1  UNL     1      -7.706   5.512  73.200  1.00  0.00     0.000 HD 
HETATM    7  H2  UNL     1      -6.877   5.732  71.751  1.00  0.00     0.000 HD 
ENDROOT
BRANCH   4   8
HETATM    8  C   UNL     1     -10.223   5.854  72.300  1.00  0.00    -0.189 C  
HETATM    9  O   UNL     1     -10.860   4.852  71.998  1.00  0.00    -0.148 OA 
BRANCH   8  10
HETATM   10  O   UNL     1     -10.652   6.784  73.205  1.00  0.00    -0.260 OA 
BRANCH  10  11
HETATM   11  C   UNL     1     -10.805   8.127  72.712  1.00  0.00    -0.320 C  
BRANCH  11  12
HETATM   12  C   UNL     1     -12.083   8.231  71.864  1.00  0.00    -0.332 C  
BRANCH  12  13
HETATM   13  O   UNL     1     -11.821   8.536  70.475  1.00  0.00    -0.173 OA 
BRANCH  13  14
HETATM   14  C   UNL     1     -10.786   9.502  70.301  1.00  0.00    -0.269 C  
BRANCH  14  15
HETATM   15  N   UNL     1     -11.192  10.452  69.289  1.00  0.00    -0.241 NA 
HETATM   16  C   UNL     1     -11.819  11.650  69.538  1.00  0.00    -0.348 A  
HETATM   17  N   UNL     1     -11.957  12.375  68.443  1.00  0.00    -0.292 NA 
HETATM   18  C   UNL     1     -11.390  11.616  67.444  1.00  0.00    -0.300 A  
HETATM   19  C   UNL     1     -10.925  10.433  67.963  1.00  0.00    -0.291 A  
HETATM   20  N   UNL     1     -10.309   9.515  67.210  1.00  0.00    -0.240 NA 
HETATM   21  C   UNL     1     -10.137   9.821  65.883  1.00  0.00    -0.243 C  
HETATM   22  N   UNL     1      -9.450   8.875  65.196  1.00  0.00    -0.427 NA 
HETATM   23  N   UNL     1     -10.535  10.907  65.287  1.00  0.00    -0.258 N  
HETATM   24  H2  UNL     1      -9.095   8.020  65.624  1.00  0.00     0.000 HD 
HETATM   25  H1  UNL     1      -9.322   9.102  64.210  1.00  0.00     0.000 HD 
HETATM   26  H   UNL     1     -10.355  11.036  64.291  1.00  0.00     0.000 HD 
HETATM   27  C   UNL     1     -11.211  11.898  66.010  1.00  0.00    -0.324 C  
HETATM   28  O   UNL     1     -11.616  12.930  65.490  1.00  0.00    -0.326 OA 
ENDBRANCH  14  15
ENDBRANCH  13  14
ENDBRANCH  12  13
BRANCH  12  29
HETATM   29  C   UNL     1     -12.997   9.338  72.414  1.00  0.00    -0.377 C  
HETATM   30  O   UNL     1     -14.025   8.751  73.213  1.00  0.00    -1.160 OA 
HETATM   31  H   UNL     1     -14.590   9.435  73.553  1.00  0.00     0.000 HD 
ENDBRANCH  12  29
ENDBRANCH  11  12
ENDBRANCH  10  11
ENDBRANCH   8  10
ENDBRANCH   4   8
TORSDOF 8
ENDMDL
MODEL      186
REMARK 921   NORMALIZED FREE ENERGY PREDICTED BY IDOCK:   -4.56 KCAL/MOL
REMARK 922        TOTAL FREE ENERGY PREDICTED BY IDOCK:   -7.91 KCAL/MOL
REMARK 923 INTER-LIGAND FREE ENERGY PREDICTED BY IDOCK:   -7.28 KCAL/MOL
REMARK 924 INTRA-LIGAND FREE ENERGY PREDICTED BY IDOCK:   -0.63 KCAL/MOL
REMARK 927      BINDING AFFINITY PREDICTED BY RF-SCORE:    0.00 PKD
ROOT
HETATM    1  C   UNL     1      -8.759  18.158  68.465  1.00  0.00    -0.309 C  
HETATM    2  C   UNL     1      -9.861  18.161  67.399  1.00  0.00    -0.316 C  
HETATM    3  C   UNL     1     -10.872  19.272  67.700  1.00  0.00    -0.484 C  
HETATM    4  C   UNL     1     -10.550  16.782  67.235  1.00  0.00    -0.275 C  
HETATM    5  N   UNL     1     -11.177  16.324  68.495  1.00  0.00    -0.365 NA 
HETATM    6  H1  UNL     1     -11.631  15.418  68.387  1.00  0.00     0.000 HD 
HETATM    7  H2  UNL     1     -11.826  17.021  68.861  1.00  0.00     0.000 HD 
ENDROOT
BRANCH   4   8
HETATM    8  C   UNL     1      -9.563  15.732  66.687  1.00  0.00    -0.247 C  
HETATM    9  O   UNL     1      -8.690  15.965  65.858  1.00  0.00    -0.283 OA 
BRANCH   8  10
HETATM   10  O   UNL     1      -9.826  14.486  67.184  1.00  0.00    -0.238 OA 
BRANCH  10  11
HETATM   11  C   UNL     1      -9.252  13.381  66.464  1.00  0.00    -0.169 C  
BRANCH  11  12
HETATM   12  C   UNL     1     -10.346  12.359  66.114  1.00  0.00    -0.247 C  
BRANCH  12  13
HETATM   13  O   UNL     1     -10.152  11.078  66.756  1.00  0.00    -0.206 OA 
BRANCH  13  14
HETATM   14  C   UNL     1      -9.574  11.185  68.055  1.00  0.00    -0.176 C  
BRANCH  14  15
HETATM   15  N   UNL     1     -10.552  10.783  69.041  1.00  0.00    -0.207 NA 
HETATM   16  C   UNL     1     -11.901  11.033  68.963  1.00  0.00    -0.329 A  
HETATM   17  N   UNL     1     -12.574  10.441  69.932  1.00  0.00    -0.107 NA 
HETATM   18  C   UNL     1     -11.619   9.774  70.668  1.00  0.00    -0.313 A  
HETATM   19  C   UNL     1     -10.377   9.988  70.122  1.00  0.00    -0.266 A  
HETATM   20  N   UNL     1      -9.269   9.439  70.631  1.00  0.00    -0.254 NA 
HETATM   21  C   UNL     1      -9.431   8.619  71.721  1.00  0.00    -0.284 C  
HETATM   22  N   UNL     1      -8.277   8.047  72.143  1.00  0.00    -0.125 NA 
HETATM   23  N   UNL     1     -10.556   8.346  72.316  1.00  0.00    -0.323 N  
HETATM   24  H2  UNL     1      -7.376   8.209  71.694  1.00  0.00     0.000 HD 
HETATM   25  H1  UNL     1      -8.397   7.438  72.953  1.00  0.00     0.000 HD 
HETATM   26  H   UNL     1     -10.567   7.721  73.122  1.00  0.00     0.000 HD 
HETATM   27  C   UNL     1     -11.751   8.910  71.853  1.00  0.00    -0.369 C  
HETATM   28  O   UNL     1     -12.832   8.694  72.388  1.00  0.00    -0.378 OA 
ENDBRANCH  14  15
ENDBRANCH  13  14
ENDBRANCH  12  13
BRANCH  12  29
HETATM   29  C   UNL     1     -10.379  12.114  64.597  1.00  0.00    -0.297 C  
HETATM   30  O   UNL     1     -10.264  13.363  63.912  1.00  0.00    -0.712 OA 
HETATM   31  H   UNL     1     -10.285  13.212  62.975  1.00  0.00     0.000 HD 
ENDBRANCH  12  29
ENDBRANCH  11  12
ENDBRANCH  10  11
ENDBRANCH   8  10
ENDBRANCH   4   8
TORSDOF 8
ENDMDL
MODEL      187
REMARK 921   NORMALIZED FREE ENERGY PREDICTED BY IDOCK:   -4.53 KCAL/MOL
REMARK 922        TOTAL FREE ENERGY PREDICTED BY IDOCK:   -7.87 KCAL/MOL
REMARK 923 INTER-LIGAND FREE ENERGY PREDICTED BY IDOCK:   -6.82 KCAL/MOL
REMARK 924 INTRA-LIGAND FREE ENERGY PREDICTED BY IDOCK:   -1.05 KCAL/MOL
REMARK 927      BINDING AFFINITY PREDICTED BY RF-SCORE:    0.00 PKD
ROOT
HETATM    1  C   UNL     1      -8.659   9.192  63.549  1.00  0.00    -0.177 C  
HETATM    2  C   UNL     1      -9.580  10.303  64.068  1.00  0.00    -0.365 C  
HETATM    3  C   UNL     1      -9.546  11.496  63.108  1.00  0.00    -0.381 C  
HETATM    4  C   UNL     1      -9.262  10.725  65.525  1.00  0.00    -0.202 C  
HETATM    5  N   UNL     1      -7.874  11.222  65.665  1.00  0.00    -0.362 NA 
HETATM    6  H1  UNL     1      -7.665  11.500  66.624  1.00  0.00     0.000 HD 
HETATM    7  H2  UNL     1      -7.684  11.980  65.010  1.00  0.00     0.000 HD 
ENDROOT
BRANCH   4   8
HETATM    8  C   UNL     1      -9.546   9.572  66.509  1.00  0.00    -0.201 C  
HETATM    9  O   UNL     1      -8.975   8.488  66.493  1.00  0.00    -0.143 OA 
BRANCH   8  10
HETATM   10  O   UNL     1     -10.568   9.880  67.362  1.00  0.00    -0.253 OA 
BRANCH  10  11
HETATM   11  C   UNL     1     -10.414  11.088  68.128  1.00  0.00    -0.189 C  
BRANCH  11  12
HETATM   12  C   UNL     1     -11.679  11.345  68.963  1.00  0.00    -0.343 C  
BRANCH  12  13
HETATM   13  O   UNL     1     -11.876  12.742  69.281  1.00  0.00    -0.299 OA 
BRANCH  13  14
HETATM   14  C   UNL     1     -12.036  13.561  68.124  1.00  0.00    -0.341 C  
BRANCH  14  15
HETATM   15  N   UNL     1     -11.269  14.776  68.295  1.00  0.00    -0.273 NA 
HETATM   16  C   UNL     1     -11.746  15.937  68.855  1.00  0.00    -0.370 A  
HETATM   17  N   UNL     1     -10.797  16.842  69.006  1.00  0.00    -0.295 NA 
HETATM   18  C   UNL     1      -9.655  16.239  68.528  1.00  0.00    -0.222 A  
HETATM   19  C   UNL     1      -9.947  14.972  68.088  1.00  0.00    -0.220 A  
HETATM   20  N   UNL     1      -9.012  14.155  67.590  1.00  0.00    -0.183 NA 
HETATM   21  C   UNL     1      -7.725  14.635  67.562  1.00  0.00    -0.195 C  
HETATM   22  N   UNL     1      -6.822  13.733  67.106  1.00  0.00    -0.412 NA 
HETATM   23  N   UNL     1      -7.337  15.815  67.952  1.00  0.00    -0.128 N  
HETATM   24  H2  UNL     1      -7.074  12.789  66.814  1.00  0.00     0.000 HD 
HETATM   25  H1  UNL     1      -5.867  14.089  67.084  1.00  0.00     0.000 HD 
HETATM   26  H   UNL     1      -6.352  16.073  67.888  1.00  0.00     0.000 HD 
HETATM   27  C   UNL     1      -8.269  16.730  68.457  1.00  0.00    -0.242 C  
HETATM   28  O   UNL     1      -7.954  17.855  68.824  1.00  0.00    -0.292 OA 
ENDBRANCH  14  15
ENDBRANCH  13  14
ENDBRANCH  12  13
BRANCH  12  29
HETATM   29  C   UNL     1     -11.605  10.577  70.291  1.00  0.00    -0.332 C  
HETATM   30  O   UNL     1     -10.263  10.137  70.511  1.00  0.00    -0.402 OA 
HETATM   31  H   UNL     1     -10.218   9.662  71.332  1.00  0.00     0.000 HD 
ENDBRANCH  12  29
ENDBRANCH  11  12
ENDBRANCH  10  11
ENDBRANCH   8  10
ENDBRANCH   4   8
TORSDOF 8
ENDMDL
MODEL      188
REMARK 921   NORMALIZED FREE ENERGY PREDICTED BY IDOCK:   -4.53 KCAL/MOL
REMARK 922        TOTAL FREE ENERGY PREDICTED BY IDOCK:   -7.86 KCAL/MOL
REMARK 923 INTER-LIGAND FREE ENERGY PREDICTED BY IDOCK:   -7.39 KCAL/MOL
REMARK 924 INTRA-LIGAND FREE ENERGY PREDICTED BY IDOCK:   -0.47 KCAL/MOL
REMARK 927      BINDING AFFINITY PREDICTED BY RF-SCORE:    0.00 PKD
ROOT
HETATM    1  C   UNL     1     -10.608   8.341  69.868  1.00  0.00    -0.232 C  
HETATM    2  C   UNL     1     -10.746   9.733  70.497  1.00  0.00    -0.381 C  
HETATM    3  C   UNL     1     -11.837   9.710  71.573  1.00  0.00    -0.483 C  
HETATM    4  C   UNL     1     -10.991  10.850  69.451  1.00  0.00    -0.252 C  
HETATM    5  N   UNL     1     -12.224  10.612  68.667  1.00  0.00    -0.814 NA 
HETATM    6  H1  UNL     1     -12.384  11.348  67.979  1.00  0.00     0.000 HD 
HETATM    7  H2  UNL     1     -13.033  10.491  69.275  1.00  0.00     0.000 HD 
ENDROOT
BRANCH   4   8
HETATM    8  C   UNL     1      -9.766  11.024  68.530  1.00  0.00    -0.189 C  
HETATM    9  O   UNL     1      -8.605  11.065  68.920  1.00  0.00    -0.161 OA 
BRANCH   8  10
HETATM   10  O   UNL     1     -10.137  11.201  67.227  1.00  0.00    -0.181 OA 
BRANCH  10  11
HETATM   11  C   UNL     1      -9.206  11.914  66.393  1.00  0.00    -0.215 C  
BRANCH  11  12
HETATM   12  C   UNL     1      -9.367  13.428  66.605  1.00  0.00    -0.241 C  
BRANCH  12  13
HETATM   13  O   UNL     1      -9.677  14.142  65.386  1.00  0.00    -0.236 OA 
BRANCH  13  14
HETATM   14  C   UNL     1     -10.970  14.744  65.404  1.00  0.00    -0.359 C  
BRANCH  14  15
HETATM   15  N   UNL     1     -11.443  14.805  66.769  1.00  0.00    -0.353 NA 
HETATM   16  C   UNL     1     -12.183  13.829  67.393  1.00  0.00    -0.254 A  
HETATM   17  N   UNL     1     -12.366  14.087  68.675  1.00  0.00    -0.165 NA 
HETATM   18  C   UNL     1     -11.711  15.279  68.892  1.00  0.00    -0.342 A  
HETATM   19  C   UNL     1     -11.148  15.722  67.721  1.00  0.00    -0.313 A  
HETATM   20  N   UNL     1     -10.435  16.851  67.652  1.00  0.00    -0.325 NA 
HETATM   21  C   UNL     1     -10.266  17.545  68.825  1.00  0.00    -0.373 C  
HETATM   22  N   UNL     1      -9.480  18.642  68.694  1.00  0.00    -0.355 NA 
HETATM   23  N   UNL     1     -10.752  17.219  69.987  1.00  0.00    -0.130 N  
HETATM   24  H2  UNL     1      -9.056  18.925  67.811  1.00  0.00     0.000 HD 
HETATM   25  H1  UNL     1      -9.355  19.158  69.565  1.00  0.00     0.000 HD 
HETATM   26  H   UNL     1     -10.565  17.807  70.800  1.00  0.00     0.000 HD 
HETATM   27  C   UNL     1     -11.531  16.064  70.124  1.00  0.00    -0.344 C  
HETATM   28  O   UNL     1     -12.020  15.723  71.195  1.00  0.00    -0.355 OA 
ENDBRANCH  14  15
ENDBRANCH  13  14
ENDBRANCH  12  13
BRANCH  12  29
HETATM   29  C   UNL     1      -8.071  14.026  67.172  1.00  0.00    -0.099 C  
HETATM   30  O   UNL     1      -7.940  15.379  66.731  1.00  0.00    -0.240 OA 
HETATM   31  H   UNL     1      -7.138  15.749  67.082  1.00  0.00     0.000 HD 
ENDBRANCH  12  29
ENDBRANCH  11  12
ENDBRANCH  10  11
ENDBRANCH   8  10
ENDBRANCH   4   8
TORSDOF 8
ENDMDL
MODEL      189
REMARK 921   NORMALIZED FREE ENERGY PREDICTED BY IDOCK:   -4.52 KCAL/MOL
REMARK 922        TOTAL FREE ENERGY PREDICTED BY IDOCK:   -7.85 KCAL/MOL
REMARK 923 INTER-LIGAND FREE ENERGY PREDICTED BY IDOCK:   -7.04 KCAL/MOL
REMARK 924 INTRA-LIGAND FREE ENERGY PREDICTED BY IDOCK:   -0.81 KCAL/MOL
REMARK 927      BINDING AFFINITY PREDICTED BY RF-SCORE:    0.00 PKD
ROOT
HETATM    1  C   UNL     1     -13.908  14.430  71.444  1.00  0.00    -0.409 C  
HETATM    2  C   UNL     1     -12.376  14.412  71.514  1.00  0.00    -0.427 C  
HETATM    3  C   UNL     1     -11.889  15.482  72.496  1.00  0.00    -0.572 C  
HETATM    4  C   UNL     1     -11.703  14.554  70.125  1.00  0.00    -0.297 C  
HETATM    5  N   UNL     1     -12.084  15.816  69.452  1.00  0.00    -0.485 NA 
HETATM    6  H1  UNL     1     -11.641  15.909  68.539  1.00  0.00     0.000 HD 
HETATM    7  H2  UNL     1     -11.889  16.624  70.043  1.00  0.00     0.000 HD 
ENDROOT
BRANCH   4   8
HETATM    8  C   UNL     1     -12.008  13.331  69.235  1.00  0.00    -0.303 C  
HETATM    9  O   UNL     1     -12.101  12.180  69.645  1.00  0.00    -0.280 OA 
BRANCH   8  10
HETATM   10  O   UNL     1     -12.089  13.677  67.916  1.00  0.00    -0.357 OA 
BRANCH  10  11
HETATM   11  C   UNL     1     -10.991  13.266  67.082  1.00  0.00    -0.272 C  
BRANCH  11  12
HETATM   12  C   UNL     1     -11.440  12.139  66.140  1.00  0.00    -0.371 C  
BRANCH  12  13
HETATM   13  O   UNL     1     -10.722  10.901  66.351  1.00  0.00    -0.249 OA 
BRANCH  13  14
HETATM   14  C   UNL     1      -9.784  10.976  67.423  1.00  0.00    -0.168 C  
BRANCH  14  15
HETATM   15  N   UNL     1      -9.105   9.705  67.546  1.00  0.00    -0.130 NA 
HETATM   16  C   UNL     1      -7.823   9.451  67.119  1.00  0.00    -0.098 A  
HETATM   17  N   UNL     1      -7.411   8.248  67.473  1.00  0.00    -0.091 NA 
HETATM   18  C   UNL     1      -8.470   7.702  68.164  1.00  0.00    -0.124 A  
HETATM   19  C   UNL     1      -9.511   8.595  68.205  1.00  0.00    -0.141 A  
HETATM   20  N   UNL     1     -10.661   8.326  68.833  1.00  0.00    -0.184 NA 
HETATM   21  C   UNL     1     -10.746   7.110  69.467  1.00  0.00    -0.239 C  
HETATM   22  N   UNL     1     -11.911   6.932  70.136  1.00  0.00    -0.637 NA 
HETATM   23  N   UNL     1      -9.825   6.192  69.494  1.00  0.00    -0.155 N  
HETATM   24  H2  UNL     1     -12.652   7.632  70.166  1.00  0.00     0.000 HD 
HETATM   25  H1  UNL     1     -11.976   6.029  70.607  1.00  0.00     0.000 HD 
HETATM   26  H   UNL     1      -9.990   5.320  69.997  1.00  0.00     0.000 HD 
HETATM   27  C   UNL     1      -8.607   6.397  68.833  1.00  0.00    -0.123 C  
HETATM   28  O   UNL     1      -7.716   5.557  68.819  1.00  0.00    -0.088 OA 
ENDBRANCH  14  15
ENDBRANCH  13  14
ENDBRANCH  12  13
BRANCH  12  29
HETATM   29  C   UNL     1     -11.225  12.552  64.676  1.00  0.00    -0.312 C  
HETATM   30  O   UNL     1     -10.187  13.531  64.607  1.00  0.00    -0.530 OA 
HETATM   31  H   UNL     1     -10.054  13.787  63.702  1.00  0.00     0.000 HD 
ENDBRANCH  12  29
ENDBRANCH  11  12
ENDBRANCH  10  11
ENDBRANCH   8  10
ENDBRANCH   4   8
TORSDOF 8
ENDMDL
MODEL      190
REMARK 921   NORMALIZED FREE ENERGY PREDICTED BY IDOCK:   -4.52 KCAL/MOL
REMARK 922        TOTAL FREE ENERGY PREDICTED BY IDOCK:   -7.85 KCAL/MOL
REMARK 923 INTER-LIGAND FREE ENERGY PREDICTED BY IDOCK:   -7.19 KCAL/MOL
REMARK 924 INTRA-LIGAND FREE ENERGY PREDICTED BY IDOCK:   -0.66 KCAL/MOL
REMARK 927      BINDING AFFINITY PREDICTED BY RF-SCORE:    0.00 PKD
ROOT
HETATM    1  C   UNL     1      -8.619  19.263  66.758  1.00  0.00    -0.326 C  
HETATM    2  C   UNL     1     -10.038  18.994  67.273  1.00  0.00    -0.436 C  
HETATM    3  C   UNL     1     -10.334  19.898  68.474  1.00  0.00    -0.463 C  
HETATM    4  C   UNL     1     -10.294  17.501  67.598  1.00  0.00    -0.360 C  
HETATM    5  N   UNL     1      -9.363  16.992  68.631  1.00  0.00    -0.264 NA 
HETATM    6  H1  UNL     1      -9.532  16.010  68.844  1.00  0.00     0.000 HD 
HETATM    7  H2  UNL     1      -9.396  17.565  69.474  1.00  0.00     0.000 HD 
ENDROOT
BRANCH   4   8
HETATM    8  C   UNL     1     -10.238  16.639  66.320  1.00  0.00    -0.334 C  
HETATM    9  O   UNL     1      -9.336  16.684  65.492  1.00  0.00    -0.461 OA 
BRANCH   8  10
HETATM   10  O   UNL     1     -11.357  15.867  66.184  1.00  0.00    -0.005 OA 
BRANCH  10  11
HETATM   11  C   UNL     1     -11.245  14.502  66.627  1.00  0.00    -0.346 C  
BRANCH  11  12
HETATM   12  C   UNL     1     -12.150  13.598  65.774  1.00  0.00    -0.428 C  
BRANCH  12  13
HETATM   13  O   UNL     1     -12.314  12.273  66.330  1.00  0.00    -0.556 OA 
BRANCH  13  14
HETATM   14  C   UNL     1     -11.093  11.538  66.392  1.00  0.00    -0.269 C  
BRANCH  14  15
HETATM   15  N   UNL     1     -10.939  10.991  67.721  1.00  0.00    -0.247 NA 
HETATM   16  C   UNL     1     -11.908  10.999  68.696  1.00  0.00    -0.247 A  
HETATM   17  N   UNL     1     -11.544  10.318  69.766  1.00  0.00    -0.244 NA 
HETATM   18  C   UNL     1     -10.285   9.843  69.469  1.00  0.00    -0.225 A  
HETATM   19  C   UNL     1      -9.913  10.260  68.216  1.00  0.00    -0.147 A  
HETATM   20  N   UNL     1      -8.739   9.923  67.669  1.00  0.00    -0.122 NA 
HETATM   21  C   UNL     1      -7.923   9.109  68.416  1.00  0.00    -0.103 C  
HETATM   22  N   UNL     1      -6.781   8.756  67.775  1.00  0.00    -0.065 NA 
HETATM   23  N   UNL     1      -8.174   8.656  69.610  1.00  0.00    -0.112 N  
HETATM   24  H2  UNL     1      -6.552   9.065  66.831  1.00  0.00     0.000 HD 
HETATM   25  H1  UNL     1      -6.174   8.152  68.329  1.00  0.00     0.000 HD 
HETATM   26  H   UNL     1      -7.497   8.054  70.078  1.00  0.00     0.000 HD 
HETATM   27  C   UNL     1      -9.372   8.992  70.251  1.00  0.00    -0.198 C  
HETATM   28  O   UNL     1      -9.647   8.601  71.379  1.00  0.00    -0.194 OA 
ENDBRANCH  14  15
ENDBRANCH  13  14
ENDBRANCH  12  13
BRANCH  12  29
HETATM   29  C   UNL     1     -11.563  13.437  64.363  1.00  0.00    -0.384 C  
HETATM   30  O   UNL     1     -10.224  13.936  64.347  1.00  0.00    -0.654 OA 
HETATM   31  H   UNL     1      -9.862  13.837  63.474  1.00  0.00     0.000 HD 
ENDBRANCH  12  29
ENDBRANCH  11  12
ENDBRANCH  10  11
ENDBRANCH   8  10
ENDBRANCH   4   8
TORSDOF 8
ENDMDL
MODEL      191
REMARK 921   NORMALIZED FREE ENERGY PREDICTED BY IDOCK:   -4.51 KCAL/MOL
REMARK 922        TOTAL FREE ENERGY PREDICTED BY IDOCK:   -7.83 KCAL/MOL
REMARK 923 INTER-LIGAND FREE ENERGY PREDICTED BY IDOCK:   -7.22 KCAL/MOL
REMARK 924 INTRA-LIGAND FREE ENERGY PREDICTED BY IDOCK:   -0.61 KCAL/MOL
REMARK 927      BINDING AFFINITY PREDICTED BY RF-SCORE:    0.00 PKD
ROOT
HETATM    1  C   UNL     1      -8.538   8.539  63.599  1.00  0.00     0.049 C  
HETATM    2  C   UNL     1      -9.257   9.860  63.899  1.00  0.00    -0.295 C  
HETATM    3  C   UNL     1      -8.998  10.860  62.768  1.00  0.00    -0.326 C  
HETATM    4  C   UNL     1      -8.892  10.449  65.285  1.00  0.00    -0.186 C  
HETATM    5  N   UNL     1      -7.441  10.716  65.407  1.00  0.00    -0.316 NA 
HETATM    6  H1  UNL     1      -7.202  11.104  66.320  1.00  0.00     0.000 HD 
HETATM    7  H2  UNL     1      -7.110  11.316  64.652  1.00  0.00     0.000 HD 
ENDROOT
BRANCH   4   8
HETATM    8  C   UNL     1      -9.391   9.535  66.424  1.00  0.00    -0.179 C  
HETATM    9  O   UNL     1      -9.036   8.374  66.587  1.00  0.00    -0.136 OA 
BRANCH   8  10
HETATM   10  O   UNL     1     -10.337  10.156  67.189  1.00  0.00    -0.212 OA 
BRANCH  10  11
HETATM   11  C   UNL     1     -10.492  11.572  66.983  1.00  0.00    -0.228 C  
BRANCH  11  12
HETATM   12  C   UNL     1     -11.802  12.055  67.625  1.00  0.00    -0.224 C  
BRANCH  12  13
HETATM   13  O   UNL     1     -12.284  13.299  67.066  1.00  0.00    -0.353 OA 
BRANCH  13  14
HETATM   14  C   UNL     1     -11.944  13.461  65.690  1.00  0.00    -0.401 C  
BRANCH  14  15
HETATM   15  N   UNL     1     -11.466  14.809  65.478  1.00  0.00    -0.342 NA 
HETATM   16  C   UNL     1     -11.567  15.505  64.296  1.00  0.00    -0.194 A  
HETATM   17  N   UNL     1     -11.167  16.757  64.421  1.00  0.00    -1.107 NA 
HETATM   18  C   UNL     1     -10.797  16.879  65.742  1.00  0.00    -0.060 A  
HETATM   19  C   UNL     1     -10.977  15.681  66.389  1.00  0.00    -0.197 A  
HETATM   20  N   UNL     1     -10.712  15.525  67.691  1.00  0.00    -0.295 NA 
HETATM   21  C   UNL     1     -10.272  16.636  68.368  1.00  0.00    -0.284 C  
HETATM   22  N   UNL     1     -10.086  16.421  69.693  1.00  0.00    -0.200 NA 
HETATM   23  N   UNL     1     -10.067  17.815  67.858  1.00  0.00    -0.324 N  
HETATM   24  H2  UNL     1     -10.257  15.522  70.144  1.00  0.00     0.000 HD 
HETATM   25  H1  UNL     1      -9.758  17.246  70.197  1.00  0.00     0.000 HD 
HETATM   26  H   UNL     1      -9.738  18.577  68.452  1.00  0.00     0.000 HD 
HETATM   27  C   UNL     1     -10.298  18.041  66.495  1.00  0.00    -0.373 C  
HETATM   28  O   UNL     1     -10.107  19.130  65.967  1.00  0.00    -0.407 OA 
ENDBRANCH  14  15
ENDBRANCH  13  14
ENDBRANCH  12  13
BRANCH  12  29
HETATM   29  C   UNL     1     -11.607  12.273  69.133  1.00  0.00    -0.318 C  
HETATM   30  O   UNL     1     -11.978  13.611  69.471  1.00  0.00    -0.309 OA 
HETATM   31  H   UNL     1     -11.857  13.746  70.403  1.00  0.00     0.000 HD 
ENDBRANCH  12  29
ENDBRANCH  11  12
ENDBRANCH  10  11
ENDBRANCH   8  10
ENDBRANCH   4   8
TORSDOF 8
ENDMDL
MODEL      192
REMARK 921   NORMALIZED FREE ENERGY PREDICTED BY IDOCK:   -4.50 KCAL/MOL
REMARK 922        TOTAL FREE ENERGY PREDICTED BY IDOCK:   -7.83 KCAL/MOL
REMARK 923 INTER-LIGAND FREE ENERGY PREDICTED BY IDOCK:   -6.99 KCAL/MOL
REMARK 924 INTRA-LIGAND FREE ENERGY PREDICTED BY IDOCK:   -0.84 KCAL/MOL
REMARK 927      BINDING AFFINITY PREDICTED BY RF-SCORE:    0.00 PKD
ROOT
HETATM    1  C   UNL     1     -10.438   8.024  67.614  1.00  0.00    -0.301 C  
HETATM    2  C   UNL     1      -9.682   8.187  68.938  1.00  0.00    -0.156 C  
HETATM    3  C   UNL     1      -9.332   6.809  69.509  1.00  0.00    -0.146 C  
HETATM    4  C   UNL     1     -10.442   9.062  69.967  1.00  0.00    -0.214 C  
HETATM    5  N   UNL     1     -11.769   8.496  70.300  1.00  0.00    -0.471 NA 
HETATM    6  H1  UNL     1     -12.269   9.072  70.978  1.00  0.00     0.000 HD 
HETATM    7  H2  UNL     1     -11.691   7.531  70.621  1.00  0.00     0.000 HD 
ENDROOT
BRANCH   4   8
HETATM    8  C   UNL     1     -10.563  10.519  69.474  1.00  0.00    -0.246 C  
HETATM    9  O   UNL     1     -11.593  11.181  69.510  1.00  0.00    -0.261 OA 
BRANCH   8  10
HETATM   10  O   UNL     1      -9.394  10.960  68.920  1.00  0.00    -0.182 OA 
BRANCH  10  11
HETATM   11  C   UNL     1      -9.517  11.752  67.725  1.00  0.00    -0.181 C  
BRANCH  11  12
HETATM   12  C   UNL     1      -9.055  13.192  68.000  1.00  0.00    -0.207 C  
BRANCH  12  13
HETATM   13  O   UNL     1      -9.840  14.184  67.299  1.00  0.00    -0.231 OA 
BRANCH  13  14
HETATM   14  C   UNL     1      -9.043  15.093  66.542  1.00  0.00    -0.294 C  
BRANCH  14  15
HETATM   15  N   UNL     1      -9.521  16.439  66.766  1.00  0.00    -0.236 NA 
HETATM   16  C   UNL     1     -10.659  16.767  67.465  1.00  0.00    -0.309 A  
HETATM   17  N   UNL     1     -10.785  18.071  67.626  1.00  0.00    -0.398 NA 
HETATM   18  C   UNL     1      -9.678  18.611  67.010  1.00  0.00    -0.308 A  
HETATM   19  C   UNL     1      -8.905  17.609  66.479  1.00  0.00    -0.263 A  
HETATM   20  N   UNL     1      -7.756  17.855  65.839  1.00  0.00    -0.545 NA 
HETATM   21  C   UNL     1      -7.365  19.169  65.758  1.00  0.00    -0.218 C  
HETATM   22  N   UNL     1      -6.163  19.338  65.155  1.00  0.00    -0.259 NA 
HETATM   23  N   UNL     1      -8.017  20.195  66.225  1.00  0.00    -0.467 N  
HETATM   24  H2  UNL     1      -5.603  18.565  64.796  1.00  0.00     0.000 HD 
HETATM   25  H1  UNL     1      -5.872  20.314  65.094  1.00  0.00     0.000 HD 
HETATM   26  H   UNL     1      -7.636  21.134  66.112  1.00  0.00     0.000 HD 
HETATM   27  C   UNL     1      -9.240  20.011  66.881  1.00  0.00    -0.381 C  
HETATM   28  O   UNL     1      -9.896  20.945  67.325  1.00  0.00    -0.444 OA 
ENDBRANCH  14  15
ENDBRANCH  13  14
ENDBRANCH  12  13
BRANCH  12  29
HETATM   29  C   UNL     1      -7.592  13.373  67.569  1.00  0.00    -0.169 C  
HETATM   30  O   UNL     1      -6.925  12.110  67.612  1.00  0.00    -0.097 OA 
HETATM   31  H   UNL     1      -6.020  12.222  67.346  1.00  0.00     0.000 HD 
ENDBRANCH  12  29
ENDBRANCH  11  12
ENDBRANCH  10  11
ENDBRANCH   8  10
ENDBRANCH   4   8
TORSDOF 8
ENDMDL
MODEL      193
REMARK 921   NORMALIZED FREE ENERGY PREDICTED BY IDOCK:   -4.50 KCAL/MOL
REMARK 922        TOTAL FREE ENERGY PREDICTED BY IDOCK:   -7.82 KCAL/MOL
REMARK 923 INTER-LIGAND FREE ENERGY PREDICTED BY IDOCK:   -7.23 KCAL/MOL
REMARK 924 INTRA-LIGAND FREE ENERGY PREDICTED BY IDOCK:   -0.59 KCAL/MOL
REMARK 927      BINDING AFFINITY PREDICTED BY RF-SCORE:    0.00 PKD
ROOT
HETATM    1  C   UNL     1      -7.494   6.483  71.314  1.00  0.00    -0.089 C  
HETATM    2  C   UNL     1      -8.659   6.951  70.433  1.00  0.00    -0.143 C  
HETATM    3  C   UNL     1      -8.324   6.707  68.958  1.00  0.00    -0.120 C  
HETATM    4  C   UNL     1      -9.066   8.423  70.696  1.00  0.00    -0.156 C  
HETATM    5  N   UNL     1      -7.944   9.359  70.453  1.00  0.00    -0.158 NA 
HETATM    6  H1  UNL     1      -8.213  10.327  70.626  1.00  0.00     0.000 HD 
HETATM    7  H2  UNL     1      -7.561   9.243  69.515  1.00  0.00     0.000 HD 
ENDROOT
BRANCH   4   8
HETATM    8  C   UNL     1      -9.638   8.593  72.119  1.00  0.00    -0.307 C  
HETATM    9  O   UNL     1      -9.031   8.322  73.148  1.00  0.00    -0.248 OA 
BRANCH   8  10
HETATM   10  O   UNL     1     -10.938   9.015  72.090  1.00  0.00    -0.348 OA 
BRANCH  10  11
HETATM   11  C   UNL     1     -11.445   9.425  70.807  1.00  0.00    -0.300 C  
BRANCH  11  12
HETATM   12  C   UNL     1     -12.774  10.176  70.985  1.00  0.00    -0.386 C  
BRANCH  12  13
HETATM   13  O   UNL     1     -12.638  11.610  70.856  1.00  0.00    -0.358 OA 
BRANCH  13  14
HETATM   14  C   UNL     1     -11.897  11.999  69.701  1.00  0.00    -0.333 C  
BRANCH  14  15
HETATM   15  N   UNL     1     -11.770  13.439  69.684  1.00  0.00    -0.309 NA 
HETATM   16  C   UNL     1     -12.133  14.276  70.713  1.00  0.00    -0.348 A  
HETATM   17  N   UNL     1     -11.788  15.528  70.481  1.00  0.00    -0.324 NA 
HETATM   18  C   UNL     1     -11.170  15.502  69.251  1.00  0.00    -0.310 A  
HETATM   19  C   UNL     1     -11.163  14.220  68.760  1.00  0.00    -0.262 A  
HETATM   20  N   UNL     1     -10.605  13.907  67.585  1.00  0.00    -0.244 NA 
HETATM   21  C   UNL     1     -10.008  14.932  66.894  1.00  0.00    -0.242 C  
HETATM   22  N   UNL     1      -9.408  14.531  65.746  1.00  0.00    -0.531 NA 
HETATM   23  N   UNL     1      -9.955  16.179  67.263  1.00  0.00    -0.243 N  
HETATM   24  H2  UNL     1      -9.401  13.562  65.428  1.00  0.00     0.000 HD 
HETATM   25  H1  UNL     1      -8.965  15.292  65.232  1.00  0.00     0.000 HD 
HETATM   26  H   UNL     1      -9.484  16.865  66.673  1.00  0.00     0.000 HD 
HETATM   27  C   UNL     1     -10.543  16.580  68.469  1.00  0.00    -0.318 C  
HETATM   28  O   UNL     1     -10.530  17.744  68.852  1.00  0.00    -0.342 OA 
ENDBRANCH  14  15
ENDBRANCH  13  14
ENDBRANCH  12  13
BRANCH  12  29
HETATM   29  C   UNL     1     -13.364   9.892  72.374  1.00  0.00    -0.229 C  
HETATM   30  O   UNL     1     -13.746   8.518  72.456  1.00  0.00    -0.585 OA 
HETATM   31  H   UNL     1     -14.111   8.343  73.315  1.00  0.00     0.000 HD 
ENDBRANCH  12  29
ENDBRANCH  11  12
ENDBRANCH  10  11
ENDBRANCH   8  10
ENDBRANCH   4   8
TORSDOF 8
ENDMDL
MODEL      194
REMARK 921   NORMALIZED FREE ENERGY PREDICTED BY IDOCK:   -4.49 KCAL/MOL
REMARK 922        TOTAL FREE ENERGY PREDICTED BY IDOCK:   -7.81 KCAL/MOL
REMARK 923 INTER-LIGAND FREE ENERGY PREDICTED BY IDOCK:   -7.25 KCAL/MOL
REMARK 924 INTRA-LIGAND FREE ENERGY PREDICTED BY IDOCK:   -0.56 KCAL/MOL
REMARK 927      BINDING AFFINITY PREDICTED BY RF-SCORE:    0.00 PKD
ROOT
HETATM    1  C   UNL     1      -9.659   8.642  72.179  1.00  0.00    -0.378 C  
HETATM    2  C   UNL     1      -9.375   7.297  71.499  1.00  0.00    -0.155 C  
HETATM    3  C   UNL     1      -8.459   6.449  72.388  1.00  0.00    -0.120 C  
HETATM    4  C   UNL     1      -8.807   7.450  70.065  1.00  0.00    -0.141 C  
HETATM    5  N   UNL     1      -7.537   8.211  70.052  1.00  0.00    -0.076 NA 
HETATM    6  H1  UNL     1      -7.164   8.311  69.108  1.00  0.00     0.000 HD 
HETATM    7  H2  UNL     1      -6.849   7.796  70.680  1.00  0.00     0.000 HD 
ENDROOT
BRANCH   4   8
HETATM    8  C   UNL     1      -9.850   8.084  69.122  1.00  0.00    -0.178 C  
HETATM    9  O   UNL     1     -11.002   7.687  68.994  1.00  0.00    -0.096 OA 
BRANCH   8  10
HETATM   10  O   UNL     1      -9.310   9.102  68.387  1.00  0.00    -0.135 OA 
BRANCH  10  11
HETATM   11  C   UNL     1      -9.728  10.432  68.742  1.00  0.00    -0.183 C  
BRANCH  11  12
HETATM   12  C   UNL     1     -11.258  10.544  68.645  1.00  0.00    -0.270 C  
BRANCH  12  13
HETATM   13  O   UNL     1     -11.709  11.087  67.383  1.00  0.00    -0.539 OA 
BRANCH  13  14
HETATM   14  C   UNL     1     -10.709  11.043  66.367  1.00  0.00    -0.227 C  
BRANCH  14  15
HETATM   15  N   UNL     1     -10.868  12.188  65.498  1.00  0.00    -0.274 NA 
HETATM   16  C   UNL     1     -11.284  12.133  64.189  1.00  0.00    -0.368 A  
HETATM   17  N   UNL     1     -11.465  13.335  63.674  1.00  0.00    -0.317 NA 
HETATM   18  C   UNL     1     -11.158  14.206  64.696  1.00  0.00    -0.371 A  
HETATM   19  C   UNL     1     -10.787  13.501  65.814  1.00  0.00    -0.275 A  
HETATM   20  N   UNL     1     -10.454  14.103  66.961  1.00  0.00    -0.270 NA 
HETATM   21  C   UNL     1     -10.525  15.474  66.981  1.00  0.00    -0.304 C  
HETATM   22  N   UNL     1     -10.237  16.012  68.192  1.00  0.00    -0.238 NA 
HETATM   23  N   UNL     1     -10.863  16.240  65.985  1.00  0.00    -0.190 N  
HETATM   24  H2  UNL     1      -9.992  15.452  69.009  1.00  0.00     0.000 HD 
HETATM   25  H1  UNL     1     -10.290  17.030  68.207  1.00  0.00     0.000 HD 
HETATM   26  H   UNL     1     -10.885  17.253  66.107  1.00  0.00     0.000 HD 
HETATM   27  C   UNL     1     -11.197  15.677  64.747  1.00  0.00    -0.382 C  
HETATM   28  O   UNL     1     -11.508  16.358  63.777  1.00  0.00    -1.002 OA 
ENDBRANCH  14  15
ENDBRANCH  13  14
ENDBRANCH  12  13
BRANCH  12  29
HETATM   29  C   UNL     1     -11.797  11.457  69.757  1.00  0.00    -0.364 C  
HETATM   30  O   UNL     1     -11.372  12.800  69.516  1.00  0.00    -0.395 OA 
HETATM   31  H   UNL     1     -11.704  13.364  70.204  1.00  0.00     0.000 HD 
ENDBRANCH  12  29
ENDBRANCH  11  12
ENDBRANCH  10  11
ENDBRANCH   8  10
ENDBRANCH   4   8
TORSDOF 8
ENDMDL
MODEL      195
REMARK 921   NORMALIZED FREE ENERGY PREDICTED BY IDOCK:   -4.48 KCAL/MOL
REMARK 922        TOTAL FREE ENERGY PREDICTED BY IDOCK:   -7.80 KCAL/MOL
REMARK 923 INTER-LIGAND FREE ENERGY PREDICTED BY IDOCK:   -7.09 KCAL/MOL
REMARK 924 INTRA-LIGAND FREE ENERGY PREDICTED BY IDOCK:   -0.70 KCAL/MOL
REMARK 927      BINDING AFFINITY PREDICTED BY RF-SCORE:    0.00 PKD
ROOT
HETATM    1  C   UNL     1     -12.243  15.185  73.775  1.00  0.00    -0.678 C  
HETATM    2  C   UNL     1     -11.943  15.533  72.311  1.00  0.00    -0.542 C  
HETATM    3  C   UNL     1     -11.912  17.054  72.136  1.00  0.00     0.887 C  
HETATM    4  C   UNL     1     -12.916  14.856  71.314  1.00  0.00    -0.363 C  
HETATM    5  N   UNL     1     -14.323  15.244  71.565  1.00  0.00    -0.575 NA 
HETATM    6  H1  UNL     1     -14.963  14.799  70.908  1.00  0.00     0.000 HD 
HETATM    7  H2  UNL     1     -14.434  16.258  71.560  1.00  0.00     0.000 HD 
ENDROOT
BRANCH   4   8
HETATM    8  C   UNL     1     -12.748  13.322  71.331  1.00  0.00    -0.309 C  
HETATM    9  O   UNL     1     -13.429  12.556  72.002  1.00  0.00    -0.493 OA 
BRANCH   8  10
HETATM   10  O   UNL     1     -11.693  12.924  70.559  1.00  0.00    -0.165 OA 
BRANCH  10  11
HETATM   11  C   UNL     1     -11.983  12.662  69.174  1.00  0.00    -0.243 C  
BRANCH  11  12
HETATM   12  C   UNL     1     -10.742  12.953  68.315  1.00  0.00    -0.244 C  
BRANCH  12  13
HETATM   13  O   UNL     1     -10.762  14.269  67.716  1.00  0.00    -0.247 OA 
BRANCH  13  14
HETATM   14  C   UNL     1      -9.460  14.826  67.548  1.00  0.00    -0.197 C  
BRANCH  14  15
HETATM   15  N   UNL     1      -9.579  16.126  66.926  1.00  0.00    -0.225 NA 
HETATM   16  C   UNL     1     -10.465  16.443  65.923  1.00  0.00    -0.337 A  
HETATM   17  N   UNL     1     -10.448  17.730  65.634  1.00  0.00    -0.628 NA 
HETATM   18  C   UNL     1      -9.514  18.272  66.489  1.00  0.00    -0.310 A  
HETATM   19  C   UNL     1      -8.978  17.285  67.279  1.00  0.00    -0.227 A  
HETATM   20  N   UNL     1      -8.056  17.540  68.214  1.00  0.00    -0.259 NA 
HETATM   21  C   UNL     1      -7.684  18.853  68.371  1.00  0.00    -0.319 C  
HETATM   22  N   UNL     1      -6.797  19.045  69.378  1.00  0.00    -0.274 NA 
HETATM   23  N   UNL     1      -8.125  19.864  67.682  1.00  0.00    -0.298 N  
HETATM   24  H2  UNL     1      -6.441  18.289  69.963  1.00  0.00     0.000 HD 
HETATM   25  H1  UNL     1      -6.520  20.020  69.495  1.00  0.00     0.000 HD 
HETATM   26  H   UNL     1      -7.782  20.804  67.880  1.00  0.00     0.000 HD 
HETATM   27  C   UNL     1      -9.071  19.664  66.668  1.00  0.00    -0.363 C  
HETATM   28  O   UNL     1      -9.505  20.583  65.983  1.00  0.00    -0.158 OA 
ENDBRANCH  14  15
ENDBRANCH  13  14
ENDBRANCH  12  13
BRANCH  12  29
HETATM   29  C   UNL     1     -10.633  11.929  67.174  1.00  0.00    -0.231 C  
HETATM   30  O   UNL     1     -11.136  10.668  67.619  1.00  0.00    -0.294 OA 
HETATM   31  H   UNL     1     -11.068  10.035  66.914  1.00  0.00     0.000 HD 
ENDBRANCH  12  29
ENDBRANCH  11  12
ENDBRANCH  10  11
ENDBRANCH   8  10
ENDBRANCH   4   8
TORSDOF 8
ENDMDL
MODEL      196
REMARK 921   NORMALIZED FREE ENERGY PREDICTED BY IDOCK:   -4.47 KCAL/MOL
REMARK 922        TOTAL FREE ENERGY PREDICTED BY IDOCK:   -7.78 KCAL/MOL
REMARK 923 INTER-LIGAND FREE ENERGY PREDICTED BY IDOCK:   -6.55 KCAL/MOL
REMARK 924 INTRA-LIGAND FREE ENERGY PREDICTED BY IDOCK:   -1.23 KCAL/MOL
REMARK 927      BINDING AFFINITY PREDICTED BY RF-SCORE:    0.00 PKD
ROOT
HETATM    1  C   UNL     1      -7.923   6.078  65.226  1.00  0.00    -0.117 C  
HETATM    2  C   UNL     1      -7.003   7.222  65.668  1.00  0.00    -0.060 C  
HETATM    3  C   UNL     1      -6.281   6.836  66.963  1.00  0.00    -0.037 C  
HETATM    4  C   UNL     1      -7.742   8.578  65.802  1.00  0.00    -0.098 C  
HETATM    5  N   UNL     1      -8.844   8.512  66.788  1.00  0.00    -0.135 NA 
HETATM    6  H1  UNL     1      -9.330   9.405  66.875  1.00  0.00     0.000 HD 
HETATM    7  H2  UNL     1      -8.512   8.181  67.693  1.00  0.00     0.000 HD 
ENDROOT
BRANCH   4   8
HETATM    8  C   UNL     1      -8.246   9.071  64.430  1.00  0.00    -0.165 C  
HETATM    9  O   UNL     1      -7.571   9.087  63.407  1.00  0.00    -0.101 OA 
BRANCH   8  10
HETATM   10  O   UNL     1      -9.521   9.557  64.507  1.00  0.00    -0.200 OA 
BRANCH  10  11
HETATM   11  C   UNL     1      -9.758  10.824  63.868  1.00  0.00    -0.313 C  
BRANCH  11  12
HETATM   12  C   UNL     1     -10.911  11.558  64.570  1.00  0.00    -0.327 C  
BRANCH  12  13
HETATM   13  O   UNL     1     -10.959  12.969  64.257  1.00  0.00    -0.358 OA 
BRANCH  13  14
HETATM   14  C   UNL     1     -11.940  13.676  65.015  1.00  0.00    -0.378 C  
BRANCH  14  15
HETATM   15  N   UNL     1     -11.312  14.806  65.662  1.00  0.00    -0.345 NA 
HETATM   16  C   UNL     1     -10.880  15.943  65.021  1.00  0.00    -0.426 A  
HETATM   17  N   UNL     1     -10.466  16.865  65.870  1.00  0.00    -0.395 NA 
HETATM   18  C   UNL     1     -10.642  16.303  67.115  1.00  0.00    -0.291 A  
HETATM   19  C   UNL     1     -11.157  15.037  66.986  1.00  0.00    -0.334 A  
HETATM   20  N   UNL     1     -11.444  14.271  68.045  1.00  0.00    -0.297 NA 
HETATM   21  C   UNL     1     -11.221  14.822  69.283  1.00  0.00    -0.283 C  
HETATM   22  N   UNL     1     -11.594  14.016  70.307  1.00  0.00    -0.466 NA 
HETATM   23  N   UNL     1     -10.739  16.007  69.521  1.00  0.00    -0.273 N  
HETATM   24  H2  UNL     1     -12.000  13.090  70.171  1.00  0.00     0.000 HD 
HETATM   25  H1  UNL     1     -11.429  14.424  71.227  1.00  0.00     0.000 HD 
HETATM   26  H   UNL     1     -10.613  16.321  70.483  1.00  0.00     0.000 HD 
HETATM   27  C   UNL     1     -10.392  16.851  68.459  1.00  0.00    -0.336 C  
HETATM   28  O   UNL     1      -9.921  17.969  68.633  1.00  0.00    -0.357 OA 
ENDBRANCH  14  15
ENDBRANCH  13  14
ENDBRANCH  12  13
BRANCH  12  29
HETATM   29  C   UNL     1     -10.773  11.429  66.095  1.00  0.00    -0.267 C  
HETATM   30  O   UNL     1      -9.415  11.668  66.471  1.00  0.00    -0.194 OA 
HETATM   31  H   UNL     1      -9.329  11.588  67.413  1.00  0.00     0.000 HD 
ENDBRANCH  12  29
ENDBRANCH  11  12
ENDBRANCH  10  11
ENDBRANCH   8  10
ENDBRANCH   4   8
TORSDOF 8
ENDMDL
MODEL      197
REMARK 921   NORMALIZED FREE ENERGY PREDICTED BY IDOCK:   -4.47 KCAL/MOL
REMARK 922        TOTAL FREE ENERGY PREDICTED BY IDOCK:   -7.77 KCAL/MOL
REMARK 923 INTER-LIGAND FREE ENERGY PREDICTED BY IDOCK:   -7.14 KCAL/MOL
REMARK 924 INTRA-LIGAND FREE ENERGY PREDICTED BY IDOCK:   -0.64 KCAL/MOL
REMARK 927      BINDING AFFINITY PREDICTED BY RF-SCORE:    0.00 PKD
ROOT
HETATM    1  C   UNL     1     -10.549   9.096  71.566  1.00  0.00    -0.428 C  
HETATM    2  C   UNL     1     -11.713   8.390  70.860  1.00  0.00    -0.269 C  
HETATM    3  C   UNL     1     -13.045   8.954  71.365  1.00  0.00    -0.315 C  
HETATM    4  C   UNL     1     -11.654   6.847  70.988  1.00  0.00    -0.328 C  
HETATM    5  N   UNL     1     -11.684   6.407  72.401  1.00  0.00    -0.431 NA 
HETATM    6  H1  UNL     1     -11.645   5.392  72.484  1.00  0.00     0.000 HD 
HETATM    7  H2  UNL     1     -12.493   6.788  72.891  1.00  0.00     0.000 HD 
ENDROOT
BRANCH   4   8
HETATM    8  C   UNL     1     -10.425   6.277  70.250  1.00  0.00    -0.221 C  
HETATM    9  O   UNL     1      -9.267   6.406  70.629  1.00  0.00    -0.157 OA 
BRANCH   8  10
HETATM   10  O   UNL     1     -10.778   5.671  69.077  1.00  0.00    -0.267 OA 
BRANCH  10  11
HETATM   11  C   UNL     1     -11.169   6.545  68.003  1.00  0.00    -0.148 C  
BRANCH  11  12
HETATM   12  C   UNL     1      -9.926   7.217  67.397  1.00  0.00    -0.174 C  
BRANCH  12  13
HETATM   13  O   UNL     1     -10.235   8.423  66.661  1.00  0.00    -0.285 OA 
BRANCH  13  14
HETATM   14  C   UNL     1      -9.079   9.056  66.115  1.00  0.00    -0.199 C  
BRANCH  14  15
HETATM   15  N   UNL     1      -9.258  10.490  66.166  1.00  0.00    -0.165 NA 
HETATM   16  C   UNL     1      -8.508  11.352  66.931  1.00  0.00    -0.157 A  
HETATM   17  N   UNL     1      -8.800  12.616  66.686  1.00  0.00    -0.173 NA 
HETATM   18  C   UNL     1      -9.778  12.571  65.717  1.00  0.00    -0.187 A  
HETATM   19  C   UNL     1     -10.061  11.265  65.401  1.00  0.00    -0.264 A  
HETATM   20  N   UNL     1     -10.964  10.934  64.472  1.00  0.00    -0.101 NA 
HETATM   21  C   UNL     1     -11.585  11.971  63.819  1.00  0.00    -0.476 C  
HETATM   22  N   UNL     1     -12.438  11.563  62.848  1.00  0.00    -0.867 NA 
HETATM   23  N   UNL     1     -11.394  13.240  64.036  1.00  0.00    -0.499 N  
HETATM   24  H2  UNL     1     -12.602  10.582  62.623  1.00  0.00     0.000 HD 
HETATM   25  H1  UNL     1     -12.900  12.332  62.363  1.00  0.00     0.000 HD 
HETATM   26  H   UNL     1     -11.908  13.932  63.492  1.00  0.00     0.000 HD 
HETATM   27  C   UNL     1     -10.482  13.656  65.014  1.00  0.00    -0.391 C  
HETATM   28  O   UNL     1     -10.278  14.838  65.264  1.00  0.00    -0.358 OA 
ENDBRANCH  14  15
ENDBRANCH  13  14
ENDBRANCH  12  13
BRANCH  12  29
HETATM   29  C   UNL     1      -9.219   6.255  66.429  1.00  0.00    -0.156 C  
HETATM   30  O   UNL     1      -9.397   4.911  66.882  1.00  0.00    -0.121 OA 
HETATM   31  H   UNL     1      -8.960   4.317  66.284  1.00  0.00     0.000 HD 
ENDBRANCH  12  29
ENDBRANCH  11  12
ENDBRANCH  10  11
ENDBRANCH   8  10
ENDBRANCH   4   8
TORSDOF 8
ENDMDL
MODEL      198
REMARK 921   NORMALIZED FREE ENERGY PREDICTED BY IDOCK:   -4.47 KCAL/MOL
REMARK 922        TOTAL FREE ENERGY PREDICTED BY IDOCK:   -7.77 KCAL/MOL
REMARK 923 INTER-LIGAND FREE ENERGY PREDICTED BY IDOCK:   -6.93 KCAL/MOL
REMARK 924 INTRA-LIGAND FREE ENERGY PREDICTED BY IDOCK:   -0.84 KCAL/MOL
REMARK 927      BINDING AFFINITY PREDICTED BY RF-SCORE:    0.00 PKD
ROOT
HETATM    1  C   UNL     1     -12.834  15.580  71.101  1.00  0.00    -0.551 C  
HETATM    2  C   UNL     1     -11.508  15.091  70.504  1.00  0.00    -0.333 C  
HETATM    3  C   UNL     1     -10.675  16.290  70.041  1.00  0.00    -0.290 C  
HETATM    4  C   UNL     1     -11.698  14.049  69.374  1.00  0.00    -0.315 C  
HETATM    5  N   UNL     1     -12.496  14.591  68.251  1.00  0.00    -0.517 NA 
HETATM    6  H1  UNL     1     -12.621  13.905  67.507  1.00  0.00     0.000 HD 
HETATM    7  H2  UNL     1     -12.092  15.456  67.892  1.00  0.00     0.000 HD 
ENDROOT
BRANCH   4   8
HETATM    8  C   UNL     1     -12.315  12.745  69.921  1.00  0.00    -0.070 C  
HETATM    9  O   UNL     1     -13.381  12.680  70.521  1.00  0.00     0.489 OA 
BRANCH   8  10
HETATM   10  O   UNL     1     -11.490  11.674  69.718  1.00  0.00    -0.282 OA 
BRANCH  10  11
HETATM   11  C   UNL     1     -11.703  10.929  68.506  1.00  0.00    -0.237 C  
BRANCH  11  12
HETATM   12  C   UNL     1     -10.417  10.919  67.664  1.00  0.00    -0.209 C  
BRANCH  12  13
HETATM   13  O   UNL     1     -10.423  11.906  66.608  1.00  0.00    -0.207 OA 
BRANCH  13  14
HETATM   14  C   UNL     1      -9.122  12.409  66.307  1.00  0.00    -0.097 C  
BRANCH  14  15
HETATM   15  N   UNL     1      -9.006  13.756  66.821  1.00  0.00    -0.221 NA 
HETATM   16  C   UNL     1      -8.203  14.133  67.871  1.00  0.00    -0.155 A  
HETATM   17  N   UNL     1      -8.192  15.442  68.043  1.00  0.00    -0.141 NA 
HETATM   18  C   UNL     1      -9.021  15.934  67.059  1.00  0.00    -0.217 A  
HETATM   19  C   UNL     1      -9.523  14.898  66.311  1.00  0.00    -0.309 A  
HETATM   20  N   UNL     1     -10.343  15.097  65.274  1.00  0.00    -0.385 NA 
HETATM   21  C   UNL     1     -10.644  16.401  64.967  1.00  0.00    -0.193 C  
HETATM   22  N   UNL     1     -11.426  16.530  63.867  1.00  0.00    -1.599 NA 
HETATM   23  N   UNL     1     -10.225  17.456  65.604  1.00  0.00    -0.173 N  
HETATM   24  H2  UNL     1     -11.758  15.736  63.321  1.00  0.00     0.000 HD 
HETATM   25  H1  UNL     1     -11.650  17.499  63.640  1.00  0.00     0.000 HD 
HETATM   26  H   UNL     1     -10.509  18.385  65.292  1.00  0.00     0.000 HD 
HETATM   27  C   UNL     1      -9.386  17.318  66.717  1.00  0.00    -0.259 C  
HETATM   28  O   UNL     1      -8.978  18.280  67.356  1.00  0.00    -0.254 OA 
ENDBRANCH  14  15
ENDBRANCH  13  14
ENDBRANCH  12  13
BRANCH  12  29
HETATM   29  C   UNL     1     -10.222   9.543  67.008  1.00  0.00    -0.255 C  
HETATM   30  O   UNL     1      -9.677   8.633  67.965  1.00  0.00    -0.150 OA 
HETATM   31  H   UNL     1      -9.557   7.783  67.560  1.00  0.00     0.000 HD 
ENDBRANCH  12  29
ENDBRANCH  11  12
ENDBRANCH  10  11
ENDBRANCH   8  10
ENDBRANCH   4   8
TORSDOF 8
ENDMDL
MODEL      199
REMARK 921   NORMALIZED FREE ENERGY PREDICTED BY IDOCK:   -4.45 KCAL/MOL
REMARK 922        TOTAL FREE ENERGY PREDICTED BY IDOCK:   -7.75 KCAL/MOL
REMARK 923 INTER-LIGAND FREE ENERGY PREDICTED BY IDOCK:   -6.76 KCAL/MOL
REMARK 924 INTRA-LIGAND FREE ENERGY PREDICTED BY IDOCK:   -0.99 KCAL/MOL
REMARK 927      BINDING AFFINITY PREDICTED BY RF-SCORE:    0.00 PKD
ROOT
HETATM    1  C   UNL     1      -7.280  10.599  67.407  1.00  0.00    -0.092 C  
HETATM    2  C   UNL     1      -7.347  11.323  68.757  1.00  0.00    -0.109 C  
HETATM    3  C   UNL     1      -6.172  12.298  68.882  1.00  0.00    -0.078 C  
HETATM    4  C   UNL     1      -7.423  10.353  69.963  1.00  0.00    -0.075 C  
HETATM    5  N   UNL     1      -6.252   9.450  70.022  1.00  0.00    -0.042 NA 
HETATM    6  H1  UNL     1      -6.302   8.812  70.816  1.00  0.00     0.000 HD 
HETATM    7  H2  UNL     1      -5.378   9.976  70.024  1.00  0.00     0.000 HD 
ENDROOT
BRANCH   4   8
HETATM    8  C   UNL     1      -8.744   9.556  69.950  1.00  0.00    -0.210 C  
HETATM    9  O   UNL     1      -8.817   8.334  69.884  1.00  0.00    -0.136 OA 
BRANCH   8  10
HETATM   10  O   UNL     1      -9.832  10.384  69.947  1.00  0.00    -0.165 OA 
BRANCH  10  11
HETATM   11  C   UNL     1     -10.701  10.286  68.804  1.00  0.00    -0.219 C  
BRANCH  11  12
HETATM   12  C   UNL     1     -12.018  11.027  69.083  1.00  0.00    -0.324 C  
BRANCH  12  13
HETATM   13  O   UNL     1     -12.212  12.180  68.232  1.00  0.00    -0.356 OA 
BRANCH  13  14
HETATM   14  C   UNL     1     -11.018  12.595  67.573  1.00  0.00    -0.246 C  
BRANCH  14  15
HETATM   15  N   UNL     1     -10.766  13.985  67.882  1.00  0.00    -0.238 NA 
HETATM   16  C   UNL     1     -10.274  14.451  69.078  1.00  0.00    -0.179 A  
HETATM   17  N   UNL     1     -10.019  15.746  69.041  1.00  0.00    -0.220 NA 
HETATM   18  C   UNL     1     -10.357  16.134  67.763  1.00  0.00    -0.283 A  
HETATM   19  C   UNL     1     -10.819  15.054  67.053  1.00  0.00    -0.311 A  
HETATM   20  N   UNL     1     -11.199  15.148  65.774  1.00  0.00    -0.321 NA 
HETATM   21  C   UNL     1     -11.080  16.383  65.185  1.00  0.00    -0.170 C  
HETATM   22  N   UNL     1     -11.420  16.389  63.873  1.00  0.00    -1.618 NA 
HETATM   23  N   UNL     1     -10.655  17.470  65.760  1.00  0.00    -0.273 N  
HETATM   24  H2  UNL     1     -11.734  15.558  63.372  1.00  0.00     0.000 HD 
HETATM   25  H1  UNL     1     -11.333  17.306  63.435  1.00  0.00     0.000 HD 
HETATM   26  H   UNL     1     -10.605  18.340  65.229  1.00  0.00     0.000 HD 
HETATM   27  C   UNL     1     -10.268  17.449  67.105  1.00  0.00    -0.323 C  
HETATM   28  O   UNL     1      -9.875  18.449  67.693  1.00  0.00    -0.295 OA 
ENDBRANCH  14  15
ENDBRANCH  13  14
ENDBRANCH  12  13
BRANCH  12  29
HETATM   29  C   UNL     1     -12.055  11.517  70.539  1.00  0.00    -0.378 C  
HETATM   30  O   UNL     1     -12.841  12.708  70.619  1.00  0.00    -0.103 OA 
HETATM   31  H   UNL     1     -12.864  13.011  71.518  1.00  0.00     0.000 HD 
ENDBRANCH  12  29
ENDBRANCH  11  12
ENDBRANCH  10  11
ENDBRANCH   8  10
ENDBRANCH   4   8
TORSDOF 8
ENDMDL
MODEL      200
REMARK 921   NORMALIZED FREE ENERGY PREDICTED BY IDOCK:   -4.44 KCAL/MOL
REMARK 922        TOTAL FREE ENERGY PREDICTED BY IDOCK:   -7.73 KCAL/MOL
REMARK 923 INTER-LIGAND FREE ENERGY PREDICTED BY IDOCK:   -6.99 KCAL/MOL
REMARK 924 INTRA-LIGAND FREE ENERGY PREDICTED BY IDOCK:   -0.74 KCAL/MOL
REMARK 927      BINDING AFFINITY PREDICTED BY RF-SCORE:    0.00 PKD
ROOT
HETATM    1  C   UNL     1      -5.690  14.463  71.314  1.00  0.00    -0.171 C  
HETATM    2  C   UNL     1      -5.697  15.072  69.907  1.00  0.00    -0.121 C  
HETATM    3  C   UNL     1      -5.767  16.599  70.003  1.00  0.00    -0.217 C  
HETATM    4  C   UNL     1      -6.817  14.498  69.002  1.00  0.00    -0.109 C  
HETATM    5  N   UNL     1      -8.162  14.731  69.573  1.00  0.00    -0.401 NA 
HETATM    6  H1  UNL     1      -8.899  14.354  68.977  1.00  0.00     0.000 HD 
HETATM    7  H2  UNL     1      -8.315  15.720  69.770  1.00  0.00     0.000 HD 
ENDROOT
BRANCH   4   8
HETATM    8  C   UNL     1      -6.582  13.001  68.713  1.00  0.00    -0.096 C  
HETATM    9  O   UNL     1      -6.308  12.165  69.565  1.00  0.00    -0.111 OA 
BRANCH   8  10
HETATM   10  O   UNL     1      -6.647  12.731  67.375  1.00  0.00    -0.153 OA 
BRANCH  10  11
HETATM   11  C   UNL     1      -7.703  11.848  66.956  1.00  0.00    -0.146 C  
BRANCH  11  12
HETATM   12  C   UNL     1      -9.002  12.645  66.752  1.00  0.00    -0.197 C  
BRANCH  12  13
HETATM   13  O   UNL     1      -9.789  12.765  67.959  1.00  0.00    -0.213 OA 
BRANCH  13  14
HETATM   14  C   UNL     1     -11.177  12.970  67.703  1.00  0.00    -0.280 C  
BRANCH  14  15
HETATM   15  N   UNL     1     -11.812  13.463  68.904  1.00  0.00    -0.321 NA 
HETATM   16  C   UNL     1     -12.242  14.754  69.097  1.00  0.00    -0.173 A  
HETATM   17  N   UNL     1     -12.901  14.895  70.232  1.00  0.00    -0.269 NA 
HETATM   18  C   UNL     1     -12.902  13.639  70.797  1.00  0.00    -0.202 A  
HETATM   19  C   UNL     1     -12.229  12.761  69.984  1.00  0.00    -0.209 A  
HETATM   20  N   UNL     1     -12.095  11.465  70.286  1.00  0.00    -0.358 NA 
HETATM   21  C   UNL     1     -12.691  11.039  71.448  1.00  0.00    -0.429 C  
HETATM   22  N   UNL     1     -12.571   9.705  71.658  1.00  0.00    -0.373 NA 
HETATM   23  N   UNL     1     -13.351  11.780  72.290  1.00  0.00    -0.545 N  
HETATM   24  H2  UNL     1     -12.086   9.079  71.015  1.00  0.00     0.000 HD 
HETATM   25  H1  UNL     1     -13.012   9.388  72.521  1.00  0.00     0.000 HD 
HETATM   26  H   UNL     1     -13.756  11.361  73.127  1.00  0.00     0.000 HD 
HETATM   27  C   UNL     1     -13.505  13.151  72.048  1.00  0.00    -0.507 C  
HETATM   28  O   UNL     1     -14.105  13.891  72.818  1.00  0.00    -0.668 OA 
ENDBRANCH  14  15
ENDBRANCH  13  14
ENDBRANCH  12  13
BRANCH  12  29
HETATM   29  C   UNL     1      -9.883  11.964  65.694  1.00  0.00    -0.241 C  
HETATM   30  O   UNL     1      -9.525  12.447  64.397  1.00  0.00    -0.477 OA 
HETATM   31  H   UNL     1     -10.070  12.026  63.743  1.00  0.00     0.000 HD 
ENDBRANCH  12  29
ENDBRANCH  11  12
ENDBRANCH  10  11
ENDBRANCH   8  10
ENDBRANCH   4   8
TORSDOF 8
ENDMDL
MODEL      201
REMARK 921   NORMALIZED FREE ENERGY PREDICTED BY IDOCK:   -4.42 KCAL/MOL
REMARK 922        TOTAL FREE ENERGY PREDICTED BY IDOCK:   -7.70 KCAL/MOL
REMARK 923 INTER-LIGAND FREE ENERGY PREDICTED BY IDOCK:   -6.45 KCAL/MOL
REMARK 924 INTRA-LIGAND FREE ENERGY PREDICTED BY IDOCK:   -1.25 KCAL/MOL
REMARK 927      BINDING AFFINITY PREDICTED BY RF-SCORE:    0.00 PKD
ROOT
HETATM    1  C   UNL     1      -5.628  10.970  68.032  1.00  0.00    -0.042 C  
HETATM    2  C   UNL     1      -6.596  11.194  69.201  1.00  0.00    -0.085 C  
HETATM    3  C   UNL     1      -5.812  11.596  70.454  1.00  0.00    -0.156 C  
HETATM    4  C   UNL     1      -7.522   9.980  69.464  1.00  0.00    -0.123 C  
HETATM    5  N   UNL     1      -6.752   8.755  69.778  1.00  0.00    -0.045 NA 
HETATM    6  H1  UNL     1      -7.362   7.957  69.952  1.00  0.00     0.000 HD 
HETATM    7  H2  UNL     1      -6.112   8.909  70.558  1.00  0.00     0.000 HD 
ENDROOT
BRANCH   4   8
HETATM    8  C   UNL     1      -8.482   9.749  68.279  1.00  0.00    -0.114 C  
HETATM    9  O   UNL     1      -8.530   8.721  67.615  1.00  0.00    -0.123 OA 
BRANCH   8  10
HETATM   10  O   UNL     1      -9.227  10.863  68.011  1.00  0.00    -0.148 OA 
BRANCH  10  11
HETATM   11  C   UNL     1      -9.859  10.908  66.719  1.00  0.00    -0.195 C  
BRANCH  11  12
HETATM   12  C   UNL     1     -11.314  11.384  66.864  1.00  0.00    -0.210 C  
BRANCH  12  13
HETATM   13  O   UNL     1     -11.592  12.595  66.125  1.00  0.00    -0.349 OA 
BRANCH  13  14
HETATM   14  C   UNL     1     -10.436  13.140  65.490  1.00  0.00    -0.288 C  
BRANCH  14  15
HETATM   15  N   UNL     1     -10.413  14.570  65.699  1.00  0.00    -0.316 NA 
HETATM   16  C   UNL     1     -10.719  15.512  64.745  1.00  0.00    -0.304 A  
HETATM   17  N   UNL     1     -10.743  16.734  65.243  1.00  0.00    -0.596 NA 
HETATM   18  C   UNL     1     -10.445  16.577  66.578  1.00  0.00    -0.270 A  
HETATM   19  C   UNL     1     -10.239  15.249  66.856  1.00  0.00    -0.268 A  
HETATM   20  N   UNL     1      -9.951  14.812  68.088  1.00  0.00    -0.217 NA 
HETATM   21  C   UNL     1      -9.897  15.760  69.080  1.00  0.00    -0.247 C  
HETATM   22  N   UNL     1      -9.666  15.240  70.311  1.00  0.00    -0.364 NA 
HETATM   23  N   UNL     1     -10.076  17.040  68.931  1.00  0.00    -0.293 N  
HETATM   24  H2  UNL     1      -9.545  14.242  70.482  1.00  0.00     0.000 HD 
HETATM   25  H1  UNL     1      -9.625  15.943  71.048  1.00  0.00     0.000 HD 
HETATM   26  H   UNL     1     -10.014  17.661  69.738  1.00  0.00     0.000 HD 
HETATM   27  C   UNL     1     -10.352  17.568  67.663  1.00  0.00    -0.360 C  
HETATM   28  O   UNL     1     -10.515  18.767  67.471  1.00  0.00    -0.391 OA 
ENDBRANCH  14  15
ENDBRANCH  13  14
ENDBRANCH  12  13
BRANCH  12  29
HETATM   29  C   UNL     1     -11.639  11.660  68.340  1.00  0.00    -0.312 C  
HETATM   30  O   UNL     1     -12.079  10.451  68.963  1.00  0.00    -0.635 OA 
HETATM   31  H   UNL     1     -12.280  10.622  69.875  1.00  0.00     0.000 HD 
ENDBRANCH  12  29
ENDBRANCH  11  12
ENDBRANCH  10  11
ENDBRANCH   8  10
ENDBRANCH   4   8
TORSDOF 8
ENDMDL
MODEL      202
REMARK 921   NORMALIZED FREE ENERGY PREDICTED BY IDOCK:   -4.41 KCAL/MOL
REMARK 922        TOTAL FREE ENERGY PREDICTED BY IDOCK:   -7.68 KCAL/MOL
REMARK 923 INTER-LIGAND FREE ENERGY PREDICTED BY IDOCK:   -7.47 KCAL/MOL
REMARK 924 INTRA-LIGAND FREE ENERGY PREDICTED BY IDOCK:   -0.22 KCAL/MOL
REMARK 927      BINDING AFFINITY PREDICTED BY RF-SCORE:    0.00 PKD
ROOT
HETATM    1  C   UNL     1     -12.160  12.246  64.490  1.00  0.00    -0.462 C  
HETATM    2  C   UNL     1     -12.496  13.566  65.195  1.00  0.00    -0.495 C  
HETATM    3  C   UNL     1     -12.485  14.714  64.181  1.00  0.00    -0.180 C  
HETATM    4  C   UNL     1     -11.576  13.858  66.408  1.00  0.00    -0.367 C  
HETATM    5  N   UNL     1     -10.151  13.937  66.014  1.00  0.00    -0.304 NA 
HETATM    6  H1  UNL     1      -9.546  14.129  66.812  1.00  0.00     0.000 HD 
HETATM    7  H2  UNL     1     -10.009  14.618  65.269  1.00  0.00     0.000 HD 
ENDROOT
BRANCH   4   8
HETATM    8  C   UNL     1     -11.791  12.820  67.528  1.00  0.00    -0.343 C  
HETATM    9  O   UNL     1     -12.087  13.097  68.684  1.00  0.00    -0.315 OA 
BRANCH   8  10
HETATM   10  O   UNL     1     -11.539  11.549  67.092  1.00  0.00    -0.516 OA 
BRANCH  10  11
HETATM   11  C   UNL     1     -10.465  10.854  67.750  1.00  0.00    -0.203 C  
BRANCH  11  12
HETATM   12  C   UNL     1     -10.916   9.435  68.134  1.00  0.00    -0.045 C  
BRANCH  12  13
HETATM   13  O   UNL     1     -10.452   9.025  69.441  1.00  0.00    -0.215 OA 
BRANCH  13  14
HETATM   14  C   UNL     1     -11.381   9.322  70.481  1.00  0.00    -0.258 C  
BRANCH  14  15
HETATM   15  N   UNL     1     -11.393   8.230  71.429  1.00  0.00    -0.253 NA 
HETATM   16  C   UNL     1     -12.295   7.192  71.427  1.00  0.00    -0.377 A  
HETATM   17  N   UNL     1     -11.994   6.270  72.321  1.00  0.00    -0.293 NA 
HETATM   18  C   UNL     1     -10.844   6.727  72.926  1.00  0.00    -0.272 A  
HETATM   19  C   UNL     1     -10.478   7.932  72.380  1.00  0.00    -0.277 A  
HETATM   20  N   UNL     1      -9.382   8.591  72.773  1.00  0.00    -0.257 NA 
HETATM   21  C   UNL     1      -8.614   7.989  73.739  1.00  0.00    -0.266 C  
HETATM   22  N   UNL     1      -7.487   8.681  74.041  1.00  0.00    -0.401 NA 
HETATM   23  N   UNL     1      -8.864   6.853  74.322  1.00  0.00    -0.173 N  
HETATM   24  H2  UNL     1      -7.235   9.561  73.593  1.00  0.00     0.000 HD 
HETATM   25  H1  UNL     1      -6.917   8.235  74.759  1.00  0.00     0.000 HD 
HETATM   26  H   UNL     1      -8.225   6.493  75.031  1.00  0.00     0.000 HD 
HETATM   27  C   UNL     1     -10.010   6.125  73.979  1.00  0.00    -0.246 C  
HETATM   28  O   UNL     1     -10.295   5.058  74.510  1.00  0.00    -0.257 OA 
ENDBRANCH  14  15
ENDBRANCH  13  14
ENDBRANCH  12  13
BRANCH  12  29
HETATM   29  C   UNL     1     -10.384   8.415  67.115  1.00  0.00    -0.311 C  
HETATM   30  O   UNL     1     -10.245   9.045  65.841  1.00  0.00    -0.381 OA 
HETATM   31  H   UNL     1      -9.917   8.414  65.211  1.00  0.00     0.000 HD 
ENDBRANCH  12  29
ENDBRANCH  11  12
ENDBRANCH  10  11
ENDBRANCH   8  10
ENDBRANCH   4   8
TORSDOF 8
ENDMDL
MODEL      203
REMARK 921   NORMALIZED FREE ENERGY PREDICTED BY IDOCK:   -4.40 KCAL/MOL
REMARK 922        TOTAL FREE ENERGY PREDICTED BY IDOCK:   -7.68 KCAL/MOL
REMARK 923 INTER-LIGAND FREE ENERGY PREDICTED BY IDOCK:   -6.94 KCAL/MOL
REMARK 924 INTRA-LIGAND FREE ENERGY PREDICTED BY IDOCK:   -0.74 KCAL/MOL
REMARK 927      BINDING AFFINITY PREDICTED BY RF-SCORE:    0.00 PKD
ROOT
HETATM    1  C   UNL     1     -12.052  14.293  66.948  1.00  0.00    -0.440 C  
HETATM    2  C   UNL     1     -10.737  14.651  66.247  1.00  0.00    -0.316 C  
HETATM    3  C   UNL     1     -10.473  16.155  66.377  1.00  0.00    -0.304 C  
HETATM    4  C   UNL     1     -10.687  14.182  64.771  1.00  0.00    -0.419 C  
HETATM    5  N   UNL     1     -11.776  14.779  63.964  1.00  0.00    -0.720 NA 
HETATM    6  H1  UNL     1     -11.743  14.470  62.993  1.00  0.00     0.000 HD 
HETATM    7  H2  UNL     1     -11.771  15.797  64.030  1.00  0.00     0.000 HD 
ENDROOT
BRANCH   4   8
HETATM    8  C   UNL     1     -10.701  12.642  64.679  1.00  0.00    -0.326 C  
HETATM    9  O   UNL     1     -11.445  11.998  63.949  1.00  0.00    -0.373 OA 
BRANCH   8  10
HETATM   10  O   UNL     1      -9.831  12.077  65.568  1.00  0.00    -0.237 OA 
BRANCH  10  11
HETATM   11  C   UNL     1     -10.275  10.868  66.209  1.00  0.00    -0.247 C  
BRANCH  11  12
HETATM   12  C   UNL     1      -9.158  10.310  67.106  1.00  0.00    -0.142 C  
BRANCH  12  13
HETATM   13  O   UNL     1      -8.935   8.893  66.921  1.00  0.00    -0.124 OA 
BRANCH  13  14
HETATM   14  C   UNL     1      -9.215   8.126  68.090  1.00  0.00    -0.133 C  
BRANCH  14  15
HETATM   15  N   UNL     1      -8.660   6.801  67.930  1.00  0.00    -0.122 NA 
HETATM   16  C   UNL     1      -7.599   6.297  68.645  1.00  0.00    -0.093 A  
HETATM   17  N   UNL     1      -7.387   5.021  68.387  1.00  0.00    -0.066 NA 
HETATM   18  C   UNL     1      -8.355   4.681  67.468  1.00  0.00    -0.104 A  
HETATM   19  C   UNL     1      -9.133   5.775  67.185  1.00  0.00    -0.112 A  
HETATM   20  N   UNL     1     -10.164   5.719  66.334  1.00  0.00    -0.166 NA 
HETATM   21  C   UNL     1     -10.430   4.496  65.768  1.00  0.00    -0.233 C  
HETATM   22  N   UNL     1     -11.524   4.498  64.969  1.00  0.00    -1.108 NA 
HETATM   23  N   UNL     1      -9.761   3.397  65.965  1.00  0.00    -0.401 N  
HETATM   24  H2  UNL     1     -12.095   5.327  64.804  1.00  0.00     0.000 HD 
HETATM   25  H1  UNL     1     -11.722   3.590  64.548  1.00  0.00     0.000 HD 
HETATM   26  H   UNL     1     -10.044   2.538  65.494  1.00  0.00     0.000 HD 
HETATM   27  C   UNL     1      -8.654   3.392  66.822  1.00  0.00    -0.114 C  
HETATM   28  O   UNL     1      -7.986   2.386  67.028  1.00  0.00    -0.070 OA 
ENDBRANCH  14  15
ENDBRANCH  13  14
ENDBRANCH  12  13
BRANCH  12  29
HETATM   29  C   UNL     1      -9.504  10.533  68.586  1.00  0.00    -0.172 C  
HETATM   30  O   UNL     1      -9.536  11.935  68.861  1.00  0.00    -0.401 OA 
HETATM   31  H   UNL     1      -9.750  12.072  69.776  1.00  0.00     0.000 HD 
ENDBRANCH  12  29
ENDBRANCH  11  12
ENDBRANCH  10  11
ENDBRANCH   8  10
ENDBRANCH   4   8
TORSDOF 8
ENDMDL
MODEL      204
REMARK 921   NORMALIZED FREE ENERGY PREDICTED BY IDOCK:   -4.40 KCAL/MOL
REMARK 922        TOTAL FREE ENERGY PREDICTED BY IDOCK:   -7.67 KCAL/MOL
REMARK 923 INTER-LIGAND FREE ENERGY PREDICTED BY IDOCK:   -7.15 KCAL/MOL
REMARK 924 INTRA-LIGAND FREE ENERGY PREDICTED BY IDOCK:   -0.52 KCAL/MOL
REMARK 927      BINDING AFFINITY PREDICTED BY RF-SCORE:    0.00 PKD
ROOT
HETATM    1  C   UNL     1      -9.773  10.149  70.194  1.00  0.00    -0.071 C  
HETATM    2  C   UNL     1     -11.295  10.047  70.347  1.00  0.00    -0.392 C  
HETATM    3  C   UNL     1     -11.706   8.577  70.480  1.00  0.00    -0.082 C  
HETATM    4  C   UNL     1     -12.069  10.763  69.211  1.00  0.00    -0.207 C  
HETATM    5  N   UNL     1     -11.737  10.206  67.881  1.00  0.00    -0.537 NA 
HETATM    6  H1  UNL     1     -12.247  10.677  67.133  1.00  0.00     0.000 HD 
HETATM    7  H2  UNL     1     -11.887   9.198  67.852  1.00  0.00     0.000 HD 
ENDROOT
BRANCH   4   8
HETATM    8  C   UNL     1     -11.834  12.287  69.256  1.00  0.00    -0.306 C  
HETATM    9  O   UNL     1     -12.091  13.001  70.218  1.00  0.00    -0.348 OA 
BRANCH   8  10
HETATM   10  O   UNL     1     -11.369  12.759  68.060  1.00  0.00    -0.254 OA 
BRANCH  10  11
HETATM   11  C   UNL     1     -10.123  13.476  68.102  1.00  0.00    -0.250 C  
BRANCH  11  12
HETATM   12  C   UNL     1     -10.237  14.773  67.284  1.00  0.00    -0.241 C  
BRANCH  12  13
HETATM   13  O   UNL     1     -10.263  15.963  68.106  1.00  0.00    -0.226 OA 
BRANCH  13  14
HETATM   14  C   UNL     1      -9.214  15.998  69.072  1.00  0.00    -0.244 C  
BRANCH  14  15
HETATM   15  N   UNL     1      -8.388  17.160  68.831  1.00  0.00    -0.227 NA 
HETATM   16  C   UNL     1      -7.113  17.336  69.312  1.00  0.00    -0.155 A  
HETATM   17  N   UNL     1      -6.546  18.427  68.832  1.00  0.00    -0.243 NA 
HETATM   18  C   UNL     1      -7.494  18.979  67.998  1.00  0.00    -0.260 A  
HETATM   19  C   UNL     1      -8.626  18.202  68.001  1.00  0.00    -0.265 A  
HETATM   20  N   UNL     1      -9.699  18.500  67.261  1.00  0.00    -0.293 NA 
HETATM   21  C   UNL     1      -9.609  19.616  66.465  1.00  0.00    -0.389 C  
HETATM   22  N   UNL     1     -10.706  19.820  65.695  1.00  0.00    -0.437 NA 
HETATM   23  N   UNL     1      -8.589  20.420  66.383  1.00  0.00    -0.551 N  
HETATM   24  H2  UNL     1     -11.519  19.204  65.705  1.00  0.00     0.000 HD 
HETATM   25  H1  UNL     1     -10.639  20.649  65.105  1.00  0.00     0.000 HD 
HETATM   26  H   UNL     1      -8.624  21.225  65.758  1.00  0.00     0.000 HD 
HETATM   27  C   UNL     1      -7.443  20.183  67.153  1.00  0.00    -0.290 C  
HETATM   28  O   UNL     1      -6.464  20.919  67.120  1.00  0.00    -0.263 OA 
ENDBRANCH  14  15
ENDBRANCH  13  14
ENDBRANCH  12  13
BRANCH  12  29
HETATM   29  C   UNL     1     -11.526  14.763  66.448  1.00  0.00    -0.319 C  
HETATM   30  O   UNL     1     -11.326  13.964  65.280  1.00  0.00    -0.302 OA 
HETATM   31  H   UNL     1     -12.123  13.958  64.763  1.00  0.00     0.000 HD 
ENDBRANCH  12  29
ENDBRANCH  11  12
ENDBRANCH  10  11
ENDBRANCH   8  10
ENDBRANCH   4   8
TORSDOF 8
ENDMDL
MODEL      205
REMARK 921   NORMALIZED FREE ENERGY PREDICTED BY IDOCK:   -4.40 KCAL/MOL
REMARK 922        TOTAL FREE ENERGY PREDICTED BY IDOCK:   -7.67 KCAL/MOL
REMARK 923 INTER-LIGAND FREE ENERGY PREDICTED BY IDOCK:   -7.08 KCAL/MOL
REMARK 924 INTRA-LIGAND FREE ENERGY PREDICTED BY IDOCK:   -0.58 KCAL/MOL
REMARK 927      BINDING AFFINITY PREDICTED BY RF-SCORE:    0.00 PKD
ROOT
HETATM    1  C   UNL     1     -11.669  14.616  67.552  1.00  0.00    -0.403 C  
HETATM    2  C   UNL     1     -11.472  14.234  66.080  1.00  0.00    -0.347 C  
HETATM    3  C   UNL     1     -12.786  14.423  65.314  1.00  0.00    -0.277 C  
HETATM    4  C   UNL     1     -10.896  12.808  65.893  1.00  0.00    -0.269 C  
HETATM    5  N   UNL     1     -11.774  11.775  66.487  1.00  0.00    -0.528 NA 
HETATM    6  H1  UNL     1     -11.395  10.837  66.364  1.00  0.00     0.000 HD 
HETATM    7  H2  UNL     1     -12.724  11.841  66.121  1.00  0.00     0.000 HD 
ENDROOT
BRANCH   4   8
HETATM    8  C   UNL     1      -9.462  12.713  66.454  1.00  0.00    -0.231 C  
HETATM    9  O   UNL     1      -8.873  13.631  67.012  1.00  0.00    -0.229 OA 
BRANCH   8  10
HETATM   10  O   UNL     1      -8.897  11.498  66.188  1.00  0.00    -0.198 OA 
BRANCH  10  11
HETATM   11  C   UNL     1      -8.247  10.844  67.293  1.00  0.00    -0.123 C  
BRANCH  11  12
HETATM   12  C   UNL     1      -8.811   9.425  67.468  1.00  0.00    -0.118 C  
BRANCH  12  13
HETATM   13  O   UNL     1      -8.828   8.986  68.845  1.00  0.00    -0.137 OA 
BRANCH  13  14
HETATM   14  C   UNL     1      -8.882  10.066  69.775  1.00  0.00    -0.183 C  
BRANCH  14  15
HETATM   15  N   UNL     1     -10.239  10.208  70.255  1.00  0.00    -0.201 NA 
HETATM   16  C   UNL     1     -11.182  11.050  69.715  1.00  0.00    -0.268 A  
HETATM   17  N   UNL     1     -12.371  10.883  70.265  1.00  0.00    -0.322 NA 
HETATM   18  C   UNL     1     -12.190   9.885  71.198  1.00  0.00    -0.373 A  
HETATM   19  C   UNL     1     -10.880   9.474  71.193  1.00  0.00    -0.355 A  
HETATM   20  N   UNL     1     -10.434   8.499  71.993  1.00  0.00    -0.309 NA 
HETATM   21  C   UNL     1     -11.361   7.900  72.811  1.00  0.00    -0.393 C  
HETATM   22  N   UNL     1     -10.854   6.879  73.544  1.00  0.00    -0.518 NA 
HETATM   23  N   UNL     1     -12.623   8.207  72.896  1.00  0.00    -0.547 N  
HETATM   24  H2  UNL     1      -9.879   6.585  73.493  1.00  0.00     0.000 HD 
HETATM   25  H1  UNL     1     -11.542   6.434  74.152  1.00  0.00     0.000 HD 
HETATM   26  H   UNL     1     -13.229   7.697  73.538  1.00  0.00     0.000 HD 
HETATM   27  C   UNL     1     -13.150   9.237  72.107  1.00  0.00    -0.443 C  
HETATM   28  O   UNL     1     -14.328   9.571  72.162  1.00  0.00    -0.137 OA 
ENDBRANCH  14  15
ENDBRANCH  13  14
ENDBRANCH  12  13
BRANCH  12  29
HETATM   29  C   UNL     1      -7.968   8.416  66.673  1.00  0.00    -0.097 C  
HETATM   30  O   UNL     1      -7.112   7.703  67.568  1.00  0.00    -0.081 OA 
HETATM   31  H   UNL     1      -6.591   7.080  67.077  1.00  0.00     0.000 HD 
ENDBRANCH  12  29
ENDBRANCH  11  12
ENDBRANCH  10  11
ENDBRANCH   8  10
ENDBRANCH   4   8
TORSDOF 8
ENDMDL
MODEL      206
REMARK 921   NORMALIZED FREE ENERGY PREDICTED BY IDOCK:   -4.39 KCAL/MOL
REMARK 922        TOTAL FREE ENERGY PREDICTED BY IDOCK:   -7.67 KCAL/MOL
REMARK 923 INTER-LIGAND FREE ENERGY PREDICTED BY IDOCK:   -6.97 KCAL/MOL
REMARK 924 INTRA-LIGAND FREE ENERGY PREDICTED BY IDOCK:   -0.69 KCAL/MOL
REMARK 927      BINDING AFFINITY PREDICTED BY RF-SCORE:    0.00 PKD
ROOT
HETATM    1  C   UNL     1     -14.190  15.156  71.114  1.00  0.00    -0.433 C  
HETATM    2  C   UNL     1     -12.838  14.518  71.454  1.00  0.00    -0.406 C  
HETATM    3  C   UNL     1     -12.693  14.385  72.973  1.00  0.00    -0.453 C  
HETATM    4  C   UNL     1     -11.637  15.267  70.823  1.00  0.00    -0.333 C  
HETATM    5  N   UNL     1     -11.567  16.676  71.272  1.00  0.00    -0.518 NA 
HETATM    6  H1  UNL     1     -10.777  17.169  70.857  1.00  0.00     0.000 HD 
HETATM    7  H2  UNL     1     -11.551  16.741  72.290  1.00  0.00     0.000 HD 
ENDROOT
BRANCH   4   8
HETATM    8  C   UNL     1     -11.671  15.171  69.284  1.00  0.00    -0.329 C  
HETATM    9  O   UNL     1     -11.693  16.135  68.529  1.00  0.00    -0.348 OA 
BRANCH   8  10
HETATM   10  O   UNL     1     -11.747  13.873  68.863  1.00  0.00    -0.291 OA 
BRANCH  10  11
HETATM   11  C   UNL     1     -10.522  13.119  68.905  1.00  0.00    -0.092 C  
BRANCH  11  12
HETATM   12  C   UNL     1     -10.283  12.432  67.551  1.00  0.00    -0.209 C  
BRANCH  12  13
HETATM   13  O   UNL     1     -10.073  11.006  67.667  1.00  0.00    -0.177 OA 
BRANCH  13  14
HETATM   14  C   UNL     1     -11.243  10.300  68.075  1.00  0.00    -0.235 C  
BRANCH  14  15
HETATM   15  N   UNL     1     -10.967   9.603  69.312  1.00  0.00    -0.204 NA 
HETATM   16  C   UNL     1     -11.108  10.141  70.569  1.00  0.00    -0.327 A  
HETATM   17  N   UNL     1     -10.914   9.244  71.518  1.00  0.00    -0.360 NA 
HETATM   18  C   UNL     1     -10.640   8.073  70.846  1.00  0.00    -0.213 A  
HETATM   19  C   UNL     1     -10.669   8.295  69.492  1.00  0.00    -0.174 A  
HETATM   20  N   UNL     1     -10.456   7.319  68.602  1.00  0.00    -0.197 NA 
HETATM   21  C   UNL     1     -10.229   6.063  69.109  1.00  0.00    -0.204 C  
HETATM   22  N   UNL     1     -10.086   5.113  68.152  1.00  0.00    -0.150 NA 
HETATM   23  N   UNL     1     -10.181   5.740  70.368  1.00  0.00    -0.208 N  
HETATM   24  H2  UNL     1     -10.141   5.313  67.153  1.00  0.00     0.000 HD 
HETATM   25  H1  UNL     1      -9.917   4.180  68.527  1.00  0.00     0.000 HD 
HETATM   26  H   UNL     1     -10.006   4.772  70.639  1.00  0.00     0.000 HD 
HETATM   27  C   UNL     1     -10.368   6.718  71.353  1.00  0.00    -0.202 C  
HETATM   28  O   UNL     1     -10.318   6.465  72.550  1.00  0.00    -0.186 OA 
ENDBRANCH  14  15
ENDBRANCH  13  14
ENDBRANCH  12  13
BRANCH  12  29
HETATM   29  C   UNL     1      -9.044  13.026  66.864  1.00  0.00    -0.227 C  
HETATM   30  O   UNL     1      -9.455  13.823  65.751  1.00  0.00    -0.497 OA 
HETATM   31  H   UNL     1      -8.689  14.190  65.327  1.00  0.00     0.000 HD 
ENDBRANCH  12  29
ENDBRANCH  11  12
ENDBRANCH  10  11
ENDBRANCH   8  10
ENDBRANCH   4   8
TORSDOF 8
ENDMDL
MODEL      207
REMARK 921   NORMALIZED FREE ENERGY PREDICTED BY IDOCK:   -4.39 KCAL/MOL
REMARK 922        TOTAL FREE ENERGY PREDICTED BY IDOCK:   -7.66 KCAL/MOL
REMARK 923 INTER-LIGAND FREE ENERGY PREDICTED BY IDOCK:   -6.96 KCAL/MOL
REMARK 924 INTRA-LIGAND FREE ENERGY PREDICTED BY IDOCK:   -0.69 KCAL/MOL
REMARK 927      BINDING AFFINITY PREDICTED BY RF-SCORE:    0.00 PKD
ROOT
HETATM    1  C   UNL     1     -12.128  12.213  64.035  1.00  0.00    -0.540 C  
HETATM    2  C   UNL     1     -12.183  13.316  65.099  1.00  0.00    -0.487 C  
HETATM    3  C   UNL     1     -12.258  14.687  64.420  1.00  0.00    -0.473 C  
HETATM    4  C   UNL     1     -11.016  13.238  66.116  1.00  0.00    -0.279 C  
HETATM    5  N   UNL     1      -9.697  13.351  65.454  1.00  0.00    -0.517 NA 
HETATM    6  H1  UNL     1      -8.930  13.300  66.123  1.00  0.00     0.000 HD 
HETATM    7  H2  UNL     1      -9.638  14.197  64.886  1.00  0.00     0.000 HD 
ENDROOT
BRANCH   4   8
HETATM    8  C   UNL     1     -11.108  11.954  66.966  1.00  0.00    -0.302 C  
HETATM    9  O   UNL     1     -12.052  11.669  67.693  1.00  0.00    -0.615 OA 
BRANCH   8  10
HETATM   10  O   UNL     1      -9.971  11.203  66.867  1.00  0.00    -0.190 OA 
BRANCH  10  11
HETATM   11  C   UNL     1      -9.247  10.982  68.091  1.00  0.00    -0.165 C  
BRANCH  11  12
HETATM   12  C   UNL     1      -8.394   9.709  67.973  1.00  0.00    -0.117 C  
BRANCH  12  13
HETATM   13  O   UNL     1      -9.181   8.517  67.751  1.00  0.00    -0.135 OA 
BRANCH  13  14
HETATM   14  C   UNL     1     -10.292   8.408  68.638  1.00  0.00    -0.197 C  
BRANCH  14  15
HETATM   15  N   UNL     1     -10.333   7.068  69.181  1.00  0.00    -0.194 NA 
HETATM   16  C   UNL     1     -10.092   5.919  68.467  1.00  0.00    -0.167 A  
HETATM   17  N   UNL     1     -10.068   4.849  69.240  1.00  0.00    -0.203 NA 
HETATM   18  C   UNL     1     -10.299   5.327  70.511  1.00  0.00    -0.266 A  
HETATM   19  C   UNL     1     -10.466   6.689  70.473  1.00  0.00    -0.203 A  
HETATM   20  N   UNL     1     -10.687   7.413  71.576  1.00  0.00    -0.222 NA 
HETATM   21  C   UNL     1     -10.713   6.729  72.767  1.00  0.00    -0.246 C  
HETATM   22  N   UNL     1     -10.876   7.532  73.847  1.00  0.00    -0.493 NA 
HETATM   23  N   UNL     1     -10.566   5.445  72.919  1.00  0.00    -0.213 N  
HETATM   24  H2  UNL     1     -10.969   8.546  73.781  1.00  0.00     0.000 HD 
HETATM   25  H1  UNL     1     -10.896   7.025  74.731  1.00  0.00     0.000 HD 
HETATM   26  H   UNL     1     -10.602   5.036  73.852  1.00  0.00     0.000 HD 
HETATM   27  C   UNL     1     -10.360   4.625  71.803  1.00  0.00    -0.138 C  
HETATM   28  O   UNL     1     -10.230   3.410  71.894  1.00  0.00    -0.132 OA 
ENDBRANCH  14  15
ENDBRANCH  13  14
ENDBRANCH  12  13
BRANCH  12  29
HETATM   29  C   UNL     1      -7.581   9.492  69.259  1.00  0.00    -0.084 C  
HETATM   30  O   UNL     1      -8.121  10.305  70.304  1.00  0.00    -0.388 OA 
HETATM   31  H   UNL     1      -7.618  10.171  71.098  1.00  0.00     0.000 HD 
ENDBRANCH  12  29
ENDBRANCH  11  12
ENDBRANCH  10  11
ENDBRANCH   8  10
ENDBRANCH   4   8
TORSDOF 8
ENDMDL
MODEL      208
REMARK 921   NORMALIZED FREE ENERGY PREDICTED BY IDOCK:   -4.37 KCAL/MOL
REMARK 922        TOTAL FREE ENERGY PREDICTED BY IDOCK:   -7.63 KCAL/MOL
REMARK 923 INTER-LIGAND FREE ENERGY PREDICTED BY IDOCK:   -6.32 KCAL/MOL
REMARK 924 INTRA-LIGAND FREE ENERGY PREDICTED BY IDOCK:   -1.31 KCAL/MOL
REMARK 927      BINDING AFFINITY PREDICTED BY RF-SCORE:    0.00 PKD
ROOT
HETATM    1  C   UNL     1     -11.182  15.463  67.162  1.00  0.00    -0.256 C  
HETATM    2  C   UNL     1     -10.046  15.366  66.136  1.00  0.00    -0.325 C  
HETATM    3  C   UNL     1      -9.142  16.598  66.245  1.00  0.00    -0.333 C  
HETATM    4  C   UNL     1     -10.553  15.147  64.688  1.00  0.00    -0.136 C  
HETATM    5  N   UNL     1     -11.438  16.246  64.240  1.00  0.00    -1.168 NA 
HETATM    6  H1  UNL     1     -11.771  16.102  63.287  1.00  0.00     0.000 HD 
HETATM    7  H2  UNL     1     -10.983  17.153  64.340  1.00  0.00     0.000 HD 
ENDROOT
BRANCH   4   8
HETATM    8  C   UNL     1     -11.246  13.776  64.546  1.00  0.00    -0.373 C  
HETATM    9  O   UNL     1     -12.447  13.586  64.698  1.00  0.00    -0.536 OA 
BRANCH   8  10
HETATM   10  O   UNL     1     -10.344  12.780  64.299  1.00  0.00    -0.372 OA 
BRANCH  10  11
HETATM   11  C   UNL     1     -10.045  11.906  65.402  1.00  0.00    -0.253 C  
BRANCH  11  12
HETATM   12  C   UNL     1     -10.251  10.442  64.982  1.00  0.00    -0.264 C  
BRANCH  12  13
HETATM   13  O   UNL     1     -10.368   9.539  66.105  1.00  0.00    -0.233 OA 
BRANCH  13  14
HETATM   14  C   UNL     1      -9.293   8.605  66.186  1.00  0.00    -0.226 C  
BRANCH  14  15
HETATM   15  N   UNL     1      -8.553   8.842  67.406  1.00  0.00    -0.125 NA 
HETATM   16  C   UNL     1      -8.633   8.069  68.540  1.00  0.00    -0.128 A  
HETATM   17  N   UNL     1      -7.754   8.435  69.454  1.00  0.00    -0.095 NA 
HETATM   18  C   UNL     1      -7.071   9.488  68.885  1.00  0.00    -0.067 A  
HETATM   19  C   UNL     1      -7.565   9.739  67.629  1.00  0.00    -0.091 A  
HETATM   20  N   UNL     1      -7.067  10.701  66.844  1.00  0.00    -0.103 NA 
HETATM   21  C   UNL     1      -6.009  11.418  67.345  1.00  0.00    -0.073 C  
HETATM   22  N   UNL     1      -5.514  12.330  66.472  1.00  0.00    -0.434 NA 
HETATM   23  N   UNL     1      -5.462  11.265  68.516  1.00  0.00    -0.043 N  
HETATM   24  H2  UNL     1      -5.891  12.469  65.535  1.00  0.00     0.000 HD 
HETATM   25  H1  UNL     1      -4.728  12.864  66.844  1.00  0.00     0.000 HD 
HETATM   26  H   UNL     1      -4.676  11.853  68.791  1.00  0.00     0.000 HD 
HETATM   27  C   UNL     1      -5.953  10.295  69.399  1.00  0.00    -0.038 C  
HETATM   28  O   UNL     1      -5.480  10.123  70.516  1.00  0.00    -0.046 OA 
ENDBRANCH  14  15
ENDBRANCH  13  14
ENDBRANCH  12  13
BRANCH  12  29
HETATM   29  C   UNL     1      -9.067   9.962  64.127  1.00  0.00    -0.252 C  
HETATM   30  O   UNL     1      -8.138  11.035  63.960  1.00  0.00    -0.353 OA 
HETATM   31  H   UNL     1      -7.407  10.739  63.431  1.00  0.00     0.000 HD 
ENDBRANCH  12  29
ENDBRANCH  11  12
ENDBRANCH  10  11
ENDBRANCH   8  10
ENDBRANCH   4   8
TORSDOF 8
ENDMDL
MODEL      209
REMARK 921   NORMALIZED FREE ENERGY PREDICTED BY IDOCK:   -4.36 KCAL/MOL
REMARK 922        TOTAL FREE ENERGY PREDICTED BY IDOCK:   -7.61 KCAL/MOL
REMARK 923 INTER-LIGAND FREE ENERGY PREDICTED BY IDOCK:   -7.08 KCAL/MOL
REMARK 924 INTRA-LIGAND FREE ENERGY PREDICTED BY IDOCK:   -0.54 KCAL/MOL
REMARK 927      BINDING AFFINITY PREDICTED BY RF-SCORE:    0.00 PKD
ROOT
HETATM    1  C   UNL     1     -11.768  15.388  64.590  1.00  0.00    -0.267 C  
HETATM    2  C   UNL     1     -10.915  14.776  65.708  1.00  0.00    -0.334 C  
HETATM    3  C   UNL     1      -9.545  15.461  65.749  1.00  0.00    -0.368 C  
HETATM    4  C   UNL     1     -10.787  13.236  65.601  1.00  0.00    -0.279 C  
HETATM    5  N   UNL     1     -10.173  12.820  64.321  1.00  0.00    -0.541 NA 
HETATM    6  H1  UNL     1     -10.089  11.806  64.251  1.00  0.00     0.000 HD 
HETATM    7  H2  UNL     1      -9.273  13.277  64.175  1.00  0.00     0.000 HD 
ENDROOT
BRANCH   4   8
HETATM    8  C   UNL     1     -12.153  12.551  65.816  1.00  0.00    -0.378 C  
HETATM    9  O   UNL     1     -13.115  12.672  65.067  1.00  0.00    -0.808 OA 
BRANCH   8  10
HETATM   10  O   UNL     1     -12.184  11.847  66.987  1.00  0.00    -0.492 OA 
BRANCH  10  11
HETATM   11  C   UNL     1     -11.962  12.606  68.189  1.00  0.00    -0.222 C  
BRANCH  11  12
HETATM   12  C   UNL     1     -11.318  11.711  69.261  1.00  0.00    -0.290 C  
BRANCH  12  13
HETATM   13  O   UNL     1     -11.089  10.357  68.808  1.00  0.00    -0.231 OA 
BRANCH  13  14
HETATM   14  C   UNL     1      -9.841   9.825  69.249  1.00  0.00    -0.199 C  
BRANCH  14  15
HETATM   15  N   UNL     1      -9.093   9.363  68.101  1.00  0.00    -0.128 NA 
HETATM   16  C   UNL     1      -7.871   9.854  67.705  1.00  0.00    -0.098 A  
HETATM   17  N   UNL     1      -7.358   9.163  66.704  1.00  0.00    -0.085 NA 
HETATM   18  C   UNL     1      -8.286   8.178  66.444  1.00  0.00    -0.108 A  
HETATM   19  C   UNL     1      -9.352   8.304  67.299  1.00  0.00    -0.147 A  
HETATM   20  N   UNL     1     -10.391   7.462  67.275  1.00  0.00    -0.255 NA 
HETATM   21  C   UNL     1     -10.332   6.436  66.364  1.00  0.00     0.022 C  
HETATM   22  N   UNL     1     -11.385   5.586  66.440  1.00  0.00    -0.497 NA 
HETATM   23  N   UNL     1      -9.374   6.221  65.510  1.00  0.00    -0.363 N  
HETATM   24  H2  UNL     1     -12.147   5.697  67.109  1.00  0.00     0.000 HD 
HETATM   25  H1  UNL     1     -11.342   4.824  65.763  1.00  0.00     0.000 HD 
HETATM   26  H   UNL     1      -9.428   5.425  64.874  1.00  0.00     0.000 HD 
HETATM   27  C   UNL     1      -8.270   7.081  65.462  1.00  0.00    -0.135 C  
HETATM   28  O   UNL     1      -7.350   6.928  64.667  1.00  0.00    -0.077 OA 
ENDBRANCH  14  15
ENDBRANCH  13  14
ENDBRANCH  12  13
BRANCH  12  29
HETATM   29  C   UNL     1     -12.221  11.635  70.502  1.00  0.00    -0.361 C  
HETATM   30  O   UNL     1     -13.096  10.512  70.384  1.00  0.00    -0.434 OA 
HETATM   31  H   UNL     1     -13.654  10.465  71.151  1.00  0.00     0.000 HD 
ENDBRANCH  12  29
ENDBRANCH  11  12
ENDBRANCH  10  11
ENDBRANCH   8  10
ENDBRANCH   4   8
TORSDOF 8
ENDMDL
MODEL      210
REMARK 921   NORMALIZED FREE ENERGY PREDICTED BY IDOCK:   -4.35 KCAL/MOL
REMARK 922        TOTAL FREE ENERGY PREDICTED BY IDOCK:   -7.60 KCAL/MOL
REMARK 923 INTER-LIGAND FREE ENERGY PREDICTED BY IDOCK:   -6.62 KCAL/MOL
REMARK 924 INTRA-LIGAND FREE ENERGY PREDICTED BY IDOCK:   -0.98 KCAL/MOL
REMARK 927      BINDING AFFINITY PREDICTED BY RF-SCORE:    0.00 PKD
ROOT
HETATM    1  C   UNL     1      -7.165   7.888  67.906  1.00  0.00    -0.091 C  
HETATM    2  C   UNL     1      -8.148   6.880  67.300  1.00  0.00    -0.118 C  
HETATM    3  C   UNL     1      -7.396   5.616  66.871  1.00  0.00    -0.079 C  
HETATM    4  C   UNL     1      -8.989   7.472  66.141  1.00  0.00    -0.153 C  
HETATM    5  N   UNL     1      -8.137   7.957  65.032  1.00  0.00    -0.140 NA 
HETATM    6  H1  UNL     1      -8.691   8.346  64.269  1.00  0.00     0.000 HD 
HETATM    7  H2  UNL     1      -7.511   7.224  64.698  1.00  0.00     0.000 HD 
ENDROOT
BRANCH   4   8
HETATM    8  C   UNL     1      -9.929   8.584  66.652  1.00  0.00    -0.293 C  
HETATM    9  O   UNL     1     -10.756   8.438  67.543  1.00  0.00    -0.240 OA 
BRANCH   8  10
HETATM   10  O   UNL     1      -9.777   9.739  65.937  1.00  0.00    -0.225 OA 
BRANCH  10  11
HETATM   11  C   UNL     1     -10.990  10.394  65.525  1.00  0.00     0.431 C  
BRANCH  11  12
HETATM   12  C   UNL     1     -10.655  11.696  64.780  1.00  0.00    -0.304 C  
BRANCH  12  13
HETATM   13  O   UNL     1     -11.798  12.568  64.618  1.00  0.00    -0.343 OA 
BRANCH  13  14
HETATM   14  C   UNL     1     -11.441  13.945  64.522  1.00  0.00    -0.381 C  
BRANCH  14  15
HETATM   15  N   UNL     1     -11.465  14.532  65.843  1.00  0.00    -0.342 NA 
HETATM   16  C   UNL     1     -12.108  13.997  66.933  1.00  0.00    -0.430 A  
HETATM   17  N   UNL     1     -11.857  14.671  68.040  1.00  0.00    -0.334 NA 
HETATM   18  C   UNL     1     -11.009  15.685  67.650  1.00  0.00    -0.315 A  
HETATM   19  C   UNL     1     -10.772  15.601  66.300  1.00  0.00    -0.295 A  
HETATM   20  N   UNL     1      -9.965  16.456  65.662  1.00  0.00    -0.529 NA 
HETATM   21  C   UNL     1      -9.354  17.417  66.430  1.00  0.00    -0.252 C  
HETATM   22  N   UNL     1      -8.502  18.205  65.730  1.00  0.00    -0.389 NA 
HETATM   23  N   UNL     1      -9.505  17.587  67.711  1.00  0.00    -0.265 N  
HETATM   24  H2  UNL     1      -8.331  18.094  64.730  1.00  0.00     0.000 HD 
HETATM   25  H1  UNL     1      -8.048  18.919  66.299  1.00  0.00     0.000 HD 
HETATM   26  H   UNL     1      -9.001  18.335  68.188  1.00  0.00     0.000 HD 
HETATM   27  C   UNL     1     -10.357  16.745  68.436  1.00  0.00    -0.319 C  
HETATM   28  O   UNL     1     -10.542  16.875  69.640  1.00  0.00    -0.301 OA 
ENDBRANCH  14  15
ENDBRANCH  13  14
ENDBRANCH  12  13
BRANCH  12  29
HETATM   29  C   UNL     1     -10.113  11.382  63.377  1.00  0.00    -0.405 C  
HETATM   30  O   UNL     1      -9.911   9.973  63.251  1.00  0.00    -0.509 OA 
HETATM   31  H   UNL     1      -9.575   9.779  62.384  1.00  0.00     0.000 HD 
ENDBRANCH  12  29
ENDBRANCH  11  12
ENDBRANCH  10  11
ENDBRANCH   8  10
ENDBRANCH   4   8
TORSDOF 8
ENDMDL
MODEL      211
REMARK 921   NORMALIZED FREE ENERGY PREDICTED BY IDOCK:   -4.35 KCAL/MOL
REMARK 922        TOTAL FREE ENERGY PREDICTED BY IDOCK:   -7.60 KCAL/MOL
REMARK 923 INTER-LIGAND FREE ENERGY PREDICTED BY IDOCK:   -6.93 KCAL/MOL
REMARK 924 INTRA-LIGAND FREE ENERGY PREDICTED BY IDOCK:   -0.67 KCAL/MOL
REMARK 927      BINDING AFFINITY PREDICTED BY RF-SCORE:    0.00 PKD
ROOT
HETATM    1  C   UNL     1     -12.699   8.945  71.544  1.00  0.00    -0.386 C  
HETATM    2  C   UNL     1     -12.007  10.313  71.504  1.00  0.00    -0.357 C  
HETATM    3  C   UNL     1     -12.989  11.404  71.943  1.00  0.00    -0.466 C  
HETATM    4  C   UNL     1     -11.368  10.631  70.129  1.00  0.00    -0.323 C  
HETATM    5  N   UNL     1     -12.371  10.629  69.040  1.00  0.00    -0.779 NA 
HETATM    6  H1  UNL     1     -11.951  10.839  68.135  1.00  0.00     0.000 HD 
HETATM    7  H2  UNL     1     -13.143  11.264  69.245  1.00  0.00     0.000 HD 
ENDROOT
BRANCH   4   8
HETATM    8  C   UNL     1     -10.206   9.664  69.821  1.00  0.00    -0.237 C  
HETATM    9  O   UNL     1      -9.326   9.362  70.618  1.00  0.00    -0.248 OA 
BRANCH   8  10
HETATM   10  O   UNL     1     -10.237   9.238  68.523  1.00  0.00    -0.187 OA 
BRANCH  10  11
HETATM   11  C   UNL     1      -9.130   9.642  67.696  1.00  0.00    -0.131 C  
BRANCH  11  12
HETATM   12  C   UNL     1      -8.724  11.086  68.034  1.00  0.00    -0.138 C  
BRANCH  12  13
HETATM   13  O   UNL     1      -9.030  12.024  66.978  1.00  0.00    -0.184 OA 
BRANCH  13  14
HETATM   14  C   UNL     1     -10.338  12.583  67.089  1.00  0.00    -0.220 C  
BRANCH  14  15
HETATM   15  N   UNL     1     -10.342  13.898  66.488  1.00  0.00    -0.281 NA 
HETATM   16  C   UNL     1     -11.227  14.323  65.525  1.00  0.00    -0.320 A  
HETATM   17  N   UNL     1     -11.085  15.606  65.251  1.00  0.00    -0.331 NA 
HETATM   18  C   UNL     1     -10.068  16.033  66.077  1.00  0.00    -0.341 A  
HETATM   19  C   UNL     1      -9.610  14.982  66.833  1.00  0.00    -0.239 A  
HETATM   20  N   UNL     1      -8.632  15.124  67.735  1.00  0.00    -0.148 NA 
HETATM   21  C   UNL     1      -8.118  16.387  67.894  1.00  0.00    -0.158 C  
HETATM   22  N   UNL     1      -7.179  16.469  68.868  1.00  0.00    -0.196 NA 
HETATM   23  N   UNL     1      -8.476  17.451  67.235  1.00  0.00    -0.205 N  
HETATM   24  H2  UNL     1      -6.884  15.670  69.429  1.00  0.00     0.000 HD 
HETATM   25  H1  UNL     1      -6.796  17.407  68.986  1.00  0.00     0.000 HD 
HETATM   26  H   UNL     1      -8.028  18.346  67.431  1.00  0.00     0.000 HD 
HETATM   27  C   UNL     1      -9.474  17.368  66.256  1.00  0.00    -0.226 C  
HETATM   28  O   UNL     1      -9.835  18.338  65.600  1.00  0.00    -0.462 OA 
ENDBRANCH  14  15
ENDBRANCH  13  14
ENDBRANCH  12  13
BRANCH  12  29
HETATM   29  C   UNL     1      -7.212  11.165  68.296  1.00  0.00    -0.083 C  
HETATM   30  O   UNL     1      -6.985  11.553  69.653  1.00  0.00    -0.286 OA 
HETATM   31  H   UNL     1      -6.050  11.602  69.815  1.00  0.00     0.000 HD 
ENDBRANCH  12  29
ENDBRANCH  11  12
ENDBRANCH  10  11
ENDBRANCH   8  10
ENDBRANCH   4   8
TORSDOF 8
ENDMDL
MODEL      212
REMARK 921   NORMALIZED FREE ENERGY PREDICTED BY IDOCK:   -4.34 KCAL/MOL
REMARK 922        TOTAL FREE ENERGY PREDICTED BY IDOCK:   -7.58 KCAL/MOL
REMARK 923 INTER-LIGAND FREE ENERGY PREDICTED BY IDOCK:   -6.82 KCAL/MOL
REMARK 924 INTRA-LIGAND FREE ENERGY PREDICTED BY IDOCK:   -0.76 KCAL/MOL
REMARK 927      BINDING AFFINITY PREDICTED BY RF-SCORE:    0.00 PKD
ROOT
HETATM    1  C   UNL     1     -10.110  18.866  66.280  1.00  0.00    -0.460 C  
HETATM    2  C   UNL     1     -10.561  18.975  67.742  1.00  0.00    -0.488 C  
HETATM    3  C   UNL     1     -10.120  20.324  68.321  1.00  0.00    -0.386 C  
HETATM    4  C   UNL     1     -10.082  17.788  68.615  1.00  0.00    -0.384 C  
HETATM    5  N   UNL     1      -8.607  17.673  68.632  1.00  0.00    -0.287 NA 
HETATM    6  H1  UNL     1      -8.292  16.892  69.207  1.00  0.00     0.000 HD 
HETATM    7  H2  UNL     1      -8.170  18.547  68.925  1.00  0.00     0.000 HD 
ENDROOT
BRANCH   4   8
HETATM    8  C   UNL     1     -10.741  16.468  68.164  1.00  0.00    -0.343 C  
HETATM    9  O   UNL     1     -11.834  16.071  68.549  1.00  0.00    -0.343 OA 
BRANCH   8  10
HETATM   10  O   UNL     1      -9.923  15.756  67.333  1.00  0.00    -0.232 OA 
BRANCH  10  11
HETATM   11  C   UNL     1     -10.522  14.634  66.661  1.00  0.00    -0.278 C  
BRANCH  11  12
HETATM   12  C   UNL     1      -9.543  13.449  66.643  1.00  0.00    -0.270 C  
BRANCH  12  13
HETATM   13  O   UNL     1     -10.131  12.218  67.123  1.00  0.00    -0.207 OA 
BRANCH  13  14
HETATM   14  C   UNL     1     -10.836  11.503  66.109  1.00  0.00    -0.278 C  
BRANCH  14  15
HETATM   15  N   UNL     1     -10.075  10.329  65.745  1.00  0.00    -0.263 NA 
HETATM   16  C   UNL     1      -9.083  10.294  64.793  1.00  0.00    -0.219 A  
HETATM   17  N   UNL     1      -8.469   9.126  64.757  1.00  0.00    -0.169 NA 
HETATM   18  C   UNL     1      -9.087   8.373  65.731  1.00  0.00    -0.139 A  
HETATM   19  C   UNL     1     -10.076   9.111  66.334  1.00  0.00    -0.274 A  
HETATM   20  N   UNL     1     -10.823   8.625  67.331  1.00  0.00    -0.129 NA 
HETATM   21  C   UNL     1     -10.537   7.348  67.750  1.00  0.00    -0.210 C  
HETATM   22  N   UNL     1     -11.288   6.946  68.804  1.00  0.00    -0.533 NA 
HETATM   23  N   UNL     1      -9.626   6.563  67.253  1.00  0.00    -0.123 N  
HETATM   24  H2  UNL     1     -11.996   7.534  69.244  1.00  0.00     0.000 HD 
HETATM   25  H1  UNL     1     -11.077   5.997  69.115  1.00  0.00     0.000 HD 
HETATM   26  H   UNL     1      -9.494   5.628  67.640  1.00  0.00     0.000 HD 
HETATM   27  C   UNL     1      -8.827   6.998  66.189  1.00  0.00    -0.147 C  
HETATM   28  O   UNL     1      -7.966   6.291  65.680  1.00  0.00    -0.103 OA 
ENDBRANCH  14  15
ENDBRANCH  13  14
ENDBRANCH  12  13
BRANCH  12  29
HETATM   29  C   UNL     1      -8.324  13.753  67.528  1.00  0.00    -0.192 C  
HETATM   30  O   UNL     1      -8.589  13.321  68.864  1.00  0.00    -0.368 OA 
HETATM   31  H   UNL     1      -7.836  13.509  69.411  1.00  0.00     0.000 HD 
ENDBRANCH  12  29
ENDBRANCH  11  12
ENDBRANCH  10  11
ENDBRANCH   8  10
ENDBRANCH   4   8
TORSDOF 8
ENDMDL
MODEL      213
REMARK 921   NORMALIZED FREE ENERGY PREDICTED BY IDOCK:   -4.33 KCAL/MOL
REMARK 922        TOTAL FREE ENERGY PREDICTED BY IDOCK:   -7.57 KCAL/MOL
REMARK 923 INTER-LIGAND FREE ENERGY PREDICTED BY IDOCK:   -6.51 KCAL/MOL
REMARK 924 INTRA-LIGAND FREE ENERGY PREDICTED BY IDOCK:   -1.05 KCAL/MOL
REMARK 927      BINDING AFFINITY PREDICTED BY RF-SCORE:    0.00 PKD
ROOT
HETATM    1  C   UNL     1     -12.686  14.678  69.507  1.00  0.00     0.104 C  
HETATM    2  C   UNL     1     -11.158  14.801  69.523  1.00  0.00    -0.302 C  
HETATM    3  C   UNL     1     -10.704  15.465  70.827  1.00  0.00    -0.205 C  
HETATM    4  C   UNL     1     -10.593  15.530  68.278  1.00  0.00    -0.255 C  
HETATM    5  N   UNL     1     -11.129  16.904  68.151  1.00  0.00    -0.293 NA 
HETATM    6  H1  UNL     1     -10.757  17.383  67.332  1.00  0.00     0.000 HD 
HETATM    7  H2  UNL     1     -10.968  17.444  69.001  1.00  0.00     0.000 HD 
ENDROOT
BRANCH   4   8
HETATM    8  C   UNL     1     -10.846  14.710  66.995  1.00  0.00    -0.304 C  
HETATM    9  O   UNL     1     -11.258  15.180  65.941  1.00  0.00    -0.338 OA 
BRANCH   8  10
HETATM   10  O   UNL     1     -10.623  13.377  67.198  1.00  0.00    -0.257 OA 
BRANCH  10  11
HETATM   11  C   UNL     1      -9.901  12.689  66.161  1.00  0.00    -0.259 C  
BRANCH  11  12
HETATM   12  C   UNL     1     -10.793  11.608  65.530  1.00  0.00    -0.279 C  
BRANCH  12  13
HETATM   13  O   UNL     1     -10.260  10.272  65.682  1.00  0.00    -0.273 OA 
BRANCH  13  14
HETATM   14  C   UNL     1      -9.348  10.155  66.772  1.00  0.00    -0.160 C  
BRANCH  14  15
HETATM   15  N   UNL     1      -9.854   9.177  67.708  1.00  0.00    -0.165 NA 
HETATM   16  C   UNL     1      -9.491   7.851  67.738  1.00  0.00    -0.144 A  
HETATM   17  N   UNL     1     -10.005   7.217  68.775  1.00  0.00    -0.162 NA 
HETATM   18  C   UNL     1     -10.729   8.176  69.450  1.00  0.00    -0.156 A  
HETATM   19  C   UNL     1     -10.639   9.377  68.792  1.00  0.00    -0.208 A  
HETATM   20  N   UNL     1     -11.235  10.486  69.244  1.00  0.00    -0.246 NA 
HETATM   21  C   UNL     1     -11.928  10.376  70.424  1.00  0.00    -0.320 C  
HETATM   22  N   UNL     1     -12.450  11.550  70.855  1.00  0.00    -0.389 NA 
HETATM   23  N   UNL     1     -12.078   9.292  71.129  1.00  0.00    -0.307 N  
HETATM   24  H2  UNL     1     -12.338  12.430  70.352  1.00  0.00     0.000 HD 
HETATM   25  H1  UNL     1     -12.966  11.469  71.731  1.00  0.00     0.000 HD 
HETATM   26  H   UNL     1     -12.615   9.319  71.996  1.00  0.00     0.000 HD 
HETATM   27  C   UNL     1     -11.504   8.089  70.699  1.00  0.00    -0.232 C  
HETATM   28  O   UNL     1     -11.628   7.041  71.321  1.00  0.00    -0.272 OA 
ENDBRANCH  14  15
ENDBRANCH  13  14
ENDBRANCH  12  13
BRANCH  12  29
HETATM   29  C   UNL     1     -10.962  11.868  64.025  1.00  0.00    -0.381 C  
HETATM   30  O   UNL     1     -10.006  12.843  63.603  1.00  0.00    -0.708 OA 
HETATM   31  H   UNL     1     -10.111  13.004  62.672  1.00  0.00     0.000 HD 
ENDBRANCH  12  29
ENDBRANCH  11  12
ENDBRANCH  10  11
ENDBRANCH   8  10
ENDBRANCH   4   8
TORSDOF 8
ENDMDL
MODEL      214
REMARK 921   NORMALIZED FREE ENERGY PREDICTED BY IDOCK:   -4.33 KCAL/MOL
REMARK 922        TOTAL FREE ENERGY PREDICTED BY IDOCK:   -7.57 KCAL/MOL
REMARK 923 INTER-LIGAND FREE ENERGY PREDICTED BY IDOCK:   -6.68 KCAL/MOL
REMARK 924 INTRA-LIGAND FREE ENERGY PREDICTED BY IDOCK:   -0.89 KCAL/MOL
REMARK 927      BINDING AFFINITY PREDICTED BY RF-SCORE:    0.00 PKD
ROOT
HETATM    1  C   UNL     1      -5.960  14.197  70.594  1.00  0.00    -0.194 C  
HETATM    2  C   UNL     1      -5.875  14.093  69.066  1.00  0.00    -0.089 C  
HETATM    3  C   UNL     1      -5.865  15.496  68.450  1.00  0.00    -0.109 C  
HETATM    4  C   UNL     1      -6.987  13.202  68.456  1.00  0.00    -0.103 C  
HETATM    5  N   UNL     1      -8.340  13.712  68.773  1.00  0.00    -0.342 NA 
HETATM    6  H1  UNL     1      -9.071  13.125  68.371  1.00  0.00     0.000 HD 
HETATM    7  H2  UNL     1      -8.446  14.685  68.487  1.00  0.00     0.000 HD 
ENDROOT
BRANCH   4   8
HETATM    8  C   UNL     1      -6.823  11.733  68.897  1.00  0.00    -0.102 C  
HETATM    9  O   UNL     1      -6.828  11.354  70.062  1.00  0.00    -0.067 OA 
BRANCH   8  10
HETATM   10  O   UNL     1      -6.598  10.910  67.830  1.00  0.00    -0.062 OA 
BRANCH  10  11
HETATM   11  C   UNL     1      -7.562   9.862  67.622  1.00  0.00    -0.091 C  
BRANCH  11  12
HETATM   12  C   UNL     1      -8.420  10.176  66.386  1.00  0.00    -0.131 C  
BRANCH  12  13
HETATM   13  O   UNL     1      -9.253  11.346  66.555  1.00  0.00    -0.178 OA 
BRANCH  13  14
HETATM   14  C   UNL     1     -10.632  11.092  66.295  1.00  0.00    -0.253 C  
BRANCH  14  15
HETATM   15  N   UNL     1     -11.164  12.163  65.482  1.00  0.00    -0.324 NA 
HETATM   16  C   UNL     1     -12.240  12.049  64.634  1.00  0.00    -0.205 A  
HETATM   17  N   UNL     1     -12.590  13.212  64.116  1.00  0.00    -0.658 NA 
HETATM   18  C   UNL     1     -11.705  14.119  64.656  1.00  0.00    -0.417 A  
HETATM   19  C   UNL     1     -10.827  13.473  65.491  1.00  0.00    -0.288 A  
HETATM   20  N   UNL     1      -9.871  14.123  66.164  1.00  0.00    -0.303 NA 
HETATM   21  C   UNL     1      -9.820  15.486  66.001  1.00  0.00    -0.335 C  
HETATM   22  N   UNL     1      -8.871  16.085  66.761  1.00  0.00    -0.231 NA 
HETATM   23  N   UNL     1     -10.599  16.198  65.239  1.00  0.00    -0.397 N  
HETATM   24  H2  UNL     1      -8.255  15.573  67.392  1.00  0.00     0.000 HD 
HETATM   25  H1  UNL     1      -8.833  17.097  66.640  1.00  0.00     0.000 HD 
HETATM   26  H   UNL     1     -10.477  17.209  65.190  1.00  0.00     0.000 HD 
HETATM   27  C   UNL     1     -11.604  15.578  64.486  1.00  0.00    -0.283 C  
HETATM   28  O   UNL     1     -12.352  16.204  63.744  1.00  0.00    -0.864 OA 
ENDBRANCH  14  15
ENDBRANCH  13  14
ENDBRANCH  12  13
BRANCH  12  29
HETATM   29  C   UNL     1      -9.346   8.993  66.066  1.00  0.00    -0.242 C  
HETATM   30  O   UNL     1      -8.971   8.422  64.811  1.00  0.00    -0.410 OA 
HETATM   31  H   UNL     1      -9.544   7.691  64.613  1.00  0.00     0.000 HD 
ENDBRANCH  12  29
ENDBRANCH  11  12
ENDBRANCH  10  11
ENDBRANCH   8  10
ENDBRANCH   4   8
TORSDOF 8
ENDMDL
MODEL      215
REMARK 921   NORMALIZED FREE ENERGY PREDICTED BY IDOCK:   -4.31 KCAL/MOL
REMARK 922        TOTAL FREE ENERGY PREDICTED BY IDOCK:   -7.55 KCAL/MOL
REMARK 923 INTER-LIGAND FREE ENERGY PREDICTED BY IDOCK:   -7.02 KCAL/MOL
REMARK 924 INTRA-LIGAND FREE ENERGY PREDICTED BY IDOCK:   -0.53 KCAL/MOL
REMARK 927      BINDING AFFINITY PREDICTED BY RF-SCORE:    0.00 PKD
ROOT
HETATM    1  C   UNL     1     -12.253  12.185  63.810  1.00  0.00    -0.630 C  
HETATM    2  C   UNL     1     -12.055  12.609  65.271  1.00  0.00    -0.519 C  
HETATM    3  C   UNL     1     -12.896  13.854  65.569  1.00  0.00    -0.471 C  
HETATM    4  C   UNL     1     -10.565  12.814  65.646  1.00  0.00    -0.275 C  
HETATM    5  N   UNL     1      -9.923  13.853  64.811  1.00  0.00    -0.602 NA 
HETATM    6  H1  UNL     1      -8.943  13.988  65.058  1.00  0.00     0.000 HD 
HETATM    7  H2  UNL     1     -10.439  14.732  64.849  1.00  0.00     0.000 HD 
ENDROOT
BRANCH   4   8
HETATM    8  C   UNL     1      -9.789  11.483  65.580  1.00  0.00    -0.234 C  
HETATM    9  O   UNL     1      -9.247  11.045  64.572  1.00  0.00    -0.206 OA 
BRANCH   8  10
HETATM   10  O   UNL     1      -9.840  10.811  66.769  1.00  0.00    -0.183 OA 
BRANCH  10  11
HETATM   11  C   UNL     1      -9.359   9.455  66.753  1.00  0.00    -0.158 C  
BRANCH  11  12
HETATM   12  C   UNL     1     -10.418   8.516  67.354  1.00  0.00    -0.280 C  
BRANCH  12  13
HETATM   13  O   UNL     1     -10.180   8.209  68.747  1.00  0.00    -0.199 OA 
BRANCH  13  14
HETATM   14  C   UNL     1      -8.985   7.459  68.957  1.00  0.00    -0.131 C  
BRANCH  14  15
HETATM   15  N   UNL     1      -9.317   6.218  69.620  1.00  0.00    -0.143 NA 
HETATM   16  C   UNL     1      -9.072   4.963  69.114  1.00  0.00    -0.103 A  
HETATM   17  N   UNL     1      -9.358   4.012  69.984  1.00  0.00    -0.153 NA 
HETATM   18  C   UNL     1      -9.802   4.680  71.103  1.00  0.00    -0.191 A  
HETATM   19  C   UNL     1      -9.780   6.034  70.878  1.00  0.00    -0.174 A  
HETATM   20  N   UNL     1     -10.145   6.920  71.811  1.00  0.00    -0.185 NA 
HETATM   21  C   UNL     1     -10.522   6.412  73.030  1.00  0.00    -0.230 C  
HETATM   22  N   UNL     1     -10.815   7.368  73.945  1.00  0.00    -0.547 NA 
HETATM   23  N   UNL     1     -10.579   5.152  73.353  1.00  0.00    -0.229 N  
HETATM   24  H2  UNL     1     -10.761   8.367  73.748  1.00  0.00     0.000 HD 
HETATM   25  H1  UNL     1     -11.096   6.991  74.851  1.00  0.00     0.000 HD 
HETATM   26  H   UNL     1     -10.873   4.880  74.291  1.00  0.00     0.000 HD 
HETATM   27  C   UNL     1     -10.237   4.170  72.414  1.00  0.00    -0.170 C  
HETATM   28  O   UNL     1     -10.288   2.973  72.667  1.00  0.00    -0.156 OA 
ENDBRANCH  14  15
ENDBRANCH  13  14
ENDBRANCH  12  13
BRANCH  12  29
HETATM   29  C   UNL     1     -10.445   7.185  66.587  1.00  0.00    -0.135 C  
HETATM   30  O   UNL     1     -11.521   6.380  67.072  1.00  0.00    -0.717 OA 
HETATM   31  H   UNL     1     -11.538   5.557  66.599  1.00  0.00     0.000 HD 
ENDBRANCH  12  29
ENDBRANCH  11  12
ENDBRANCH  10  11
ENDBRANCH   8  10
ENDBRANCH   4   8
TORSDOF 8
ENDMDL
MODEL      216
REMARK 921   NORMALIZED FREE ENERGY PREDICTED BY IDOCK:   -4.30 KCAL/MOL
REMARK 922        TOTAL FREE ENERGY PREDICTED BY IDOCK:   -7.53 KCAL/MOL
REMARK 923 INTER-LIGAND FREE ENERGY PREDICTED BY IDOCK:   -6.01 KCAL/MOL
REMARK 924 INTRA-LIGAND FREE ENERGY PREDICTED BY IDOCK:   -1.52 KCAL/MOL
REMARK 927      BINDING AFFINITY PREDICTED BY RF-SCORE:    0.00 PKD
ROOT
HETATM    1  C   UNL     1      -5.404  13.660  69.332  1.00  0.00    -0.083 C  
HETATM    2  C   UNL     1      -6.196  14.184  68.128  1.00  0.00    -0.133 C  
HETATM    3  C   UNL     1      -6.850  15.524  68.481  1.00  0.00    -0.114 C  
HETATM    4  C   UNL     1      -7.228  13.162  67.589  1.00  0.00    -0.159 C  
HETATM    5  N   UNL     1      -8.221  12.783  68.620  1.00  0.00    -0.337 NA 
HETATM    6  H1  UNL     1      -8.900  12.111  68.265  1.00  0.00     0.000 HD 
HETATM    7  H2  UNL     1      -8.682  13.605  69.010  1.00  0.00     0.000 HD 
ENDROOT
BRANCH   4   8
HETATM    8  C   UNL     1      -6.524  11.919  67.006  1.00  0.00    -0.136 C  
HETATM    9  O   UNL     1      -5.386  11.915  66.554  1.00  0.00    -0.308 OA 
BRANCH   8  10
HETATM   10  O   UNL     1      -7.354  10.833  66.988  1.00  0.00    -0.099 OA 
BRANCH  10  11
HETATM   11  C   UNL     1      -7.887  10.462  65.704  1.00  0.00    -0.154 C  
BRANCH  11  12
HETATM   12  C   UNL     1      -9.299   9.879  65.871  1.00  0.00    -0.192 C  
BRANCH  12  13
HETATM   13  O   UNL     1     -10.334  10.735  65.335  1.00  0.00    -0.270 OA 
BRANCH  13  14
HETATM   14  C   UNL     1     -11.065  11.428  66.345  1.00  0.00    -0.240 C  
BRANCH  14  15
HETATM   15  N   UNL     1     -10.774  12.841  66.255  1.00  0.00    -0.267 NA 
HETATM   16  C   UNL     1     -10.539  13.525  65.086  1.00  0.00    -0.355 A  
HETATM   17  N   UNL     1     -10.429  14.825  65.284  1.00  0.00    -0.374 NA 
HETATM   18  C   UNL     1     -10.606  14.991  66.640  1.00  0.00    -0.301 A  
HETATM   19  C   UNL     1     -10.814  13.772  67.236  1.00  0.00    -0.285 A  
HETATM   20  N   UNL     1     -11.033  13.647  68.549  1.00  0.00    -0.257 NA 
HETATM   21  C   UNL     1     -11.069  14.807  69.282  1.00  0.00    -0.266 C  
HETATM   22  N   UNL     1     -11.360  14.610  70.591  1.00  0.00    -0.479 NA 
HETATM   23  N   UNL     1     -10.888  16.012  68.823  1.00  0.00    -0.282 N  
HETATM   24  H2  UNL     1     -11.535  13.689  70.993  1.00  0.00     0.000 HD 
HETATM   25  H1  UNL     1     -11.386  15.472  71.136  1.00  0.00     0.000 HD 
HETATM   26  H   UNL     1     -10.936  16.810  69.455  1.00  0.00     0.000 HD 
HETATM   27  C   UNL     1     -10.626  16.213  67.462  1.00  0.00    -0.314 C  
HETATM   28  O   UNL     1     -10.434  17.325  66.986  1.00  0.00    -0.325 OA 
ENDBRANCH  14  15
ENDBRANCH  13  14
ENDBRANCH  12  13
BRANCH  12  29
HETATM   29  C   UNL     1      -9.610   9.657  67.360  1.00  0.00    -0.148 C  
HETATM   30  O   UNL     1      -8.925   8.490  67.818  1.00  0.00    -0.136 OA 
HETATM   31  H   UNL     1      -9.117   8.352  68.738  1.00  0.00     0.000 HD 
ENDBRANCH  12  29
ENDBRANCH  11  12
ENDBRANCH  10  11
ENDBRANCH   8  10
ENDBRANCH   4   8
TORSDOF 8
ENDMDL
MODEL      217
REMARK 921   NORMALIZED FREE ENERGY PREDICTED BY IDOCK:   -4.30 KCAL/MOL
REMARK 922        TOTAL FREE ENERGY PREDICTED BY IDOCK:   -7.53 KCAL/MOL
REMARK 923 INTER-LIGAND FREE ENERGY PREDICTED BY IDOCK:   -6.69 KCAL/MOL
REMARK 924 INTRA-LIGAND FREE ENERGY PREDICTED BY IDOCK:   -0.84 KCAL/MOL
REMARK 927      BINDING AFFINITY PREDICTED BY RF-SCORE:    0.00 PKD
ROOT
HETATM    1  C   UNL     1      -9.055   6.522  71.893  1.00  0.00    -0.148 C  
HETATM    2  C   UNL     1     -10.566   6.557  72.153  1.00  0.00    -0.240 C  
HETATM    3  C   UNL     1     -11.008   5.250  72.819  1.00  0.00    -0.331 C  
HETATM    4  C   UNL     1     -11.394   6.864  70.880  1.00  0.00    -0.304 C  
HETATM    5  N   UNL     1     -11.169   5.859  69.817  1.00  0.00    -0.363 NA 
HETATM    6  H1  UNL     1     -11.714   6.062  68.980  1.00  0.00     0.000 HD 
HETATM    7  H2  UNL     1     -11.348   4.914  70.156  1.00  0.00     0.000 HD 
ENDROOT
BRANCH   4   8
HETATM    8  C   UNL     1     -11.114   8.293  70.369  1.00  0.00    -0.235 C  
HETATM    9  O   UNL     1     -11.479   9.316  70.934  1.00  0.00    -0.269 OA 
BRANCH   8  10
HETATM   10  O   UNL     1     -10.467   8.278  69.165  1.00  0.00    -0.220 OA 
BRANCH  10  11
HETATM   11  C   UNL     1     -11.028   9.110  68.133  1.00  0.00     0.040 C  
BRANCH  11  12
HETATM   12  C   UNL     1      -9.906   9.851  67.389  1.00  0.00    -0.179 C  
BRANCH  12  13
HETATM   13  O   UNL     1     -10.243  11.221  67.072  1.00  0.00    -0.204 OA 
BRANCH  13  14
HETATM   14  C   UNL     1     -10.422  12.035  68.229  1.00  0.00    -0.204 C  
BRANCH  14  15
HETATM   15  N   UNL     1     -10.017  13.388  67.922  1.00  0.00    -0.229 NA 
HETATM   16  C   UNL     1      -9.349  13.773  66.784  1.00  0.00    -0.266 A  
HETATM   17  N   UNL     1      -9.220  15.084  66.702  1.00  0.00    -0.258 NA 
HETATM   18  C   UNL     1      -9.837  15.570  67.834  1.00  0.00    -0.216 A  
HETATM   19  C   UNL     1     -10.322  14.528  68.584  1.00  0.00    -0.242 A  
HETATM   20  N   UNL     1     -10.984  14.720  69.731  1.00  0.00    -0.256 NA 
HETATM   21  C   UNL     1     -11.184  16.023  70.116  1.00  0.00    -0.373 C  
HETATM   22  N   UNL     1     -11.917  16.143  71.250  1.00  0.00    -0.601 NA 
HETATM   23  N   UNL     1     -10.771  17.083  69.484  1.00  0.00    -0.368 N  
HETATM   24  H2  UNL     1     -12.285  15.344  71.766  1.00  0.00     0.000 HD 
HETATM   25  H1  UNL     1     -12.066  17.111  71.537  1.00  0.00     0.000 HD 
HETATM   26  H   UNL     1     -10.975  18.010  69.858  1.00  0.00     0.000 HD 
HETATM   27  C   UNL     1     -10.047  16.953  68.293  1.00  0.00    -0.302 C  
HETATM   28  O   UNL     1      -9.626  17.921  67.670  1.00  0.00    -0.262 OA 
ENDBRANCH  14  15
ENDBRANCH  13  14
ENDBRANCH  12  13
BRANCH  12  29
HETATM   29  C   UNL     1      -9.582   9.138  66.067  1.00  0.00    -0.272 C  
HETATM   30  O   UNL     1      -9.668   7.724  66.258  1.00  0.00    -0.387 OA 
HETATM   31  H   UNL     1      -9.468   7.283  65.441  1.00  0.00     0.000 HD 
ENDBRANCH  12  29
ENDBRANCH  11  12
ENDBRANCH  10  11
ENDBRANCH   8  10
ENDBRANCH   4   8
TORSDOF 8
ENDMDL
MODEL      218
REMARK 921   NORMALIZED FREE ENERGY PREDICTED BY IDOCK:   -4.30 KCAL/MOL
REMARK 922        TOTAL FREE ENERGY PREDICTED BY IDOCK:   -7.52 KCAL/MOL
REMARK 923 INTER-LIGAND FREE ENERGY PREDICTED BY IDOCK:   -6.90 KCAL/MOL
REMARK 924 INTRA-LIGAND FREE ENERGY PREDICTED BY IDOCK:   -0.63 KCAL/MOL
REMARK 927      BINDING AFFINITY PREDICTED BY RF-SCORE:    0.00 PKD
ROOT
HETATM    1  C   UNL     1     -14.405  15.352  71.992  1.00  0.00    -0.653 C  
HETATM    2  C   UNL     1     -13.095  15.006  72.710  1.00  0.00    -0.549 C  
HETATM    3  C   UNL     1     -12.817  16.037  73.809  1.00  0.00    -0.690 C  
HETATM    4  C   UNL     1     -11.894  14.855  71.743  1.00  0.00    -0.356 C  
HETATM    5  N   UNL     1     -11.644  16.096  70.975  1.00  0.00    -0.523 NA 
HETATM    6  H1  UNL     1     -10.853  15.996  70.339  1.00  0.00     0.000 HD 
HETATM    7  H2  UNL     1     -11.522  16.897  71.594  1.00  0.00     0.000 HD 
ENDROOT
BRANCH   4   8
HETATM    8  C   UNL     1     -12.086  13.645  70.805  1.00  0.00    -0.295 C  
HETATM    9  O   UNL     1     -12.749  12.653  71.081  1.00  0.00    -0.358 OA 
BRANCH   8  10
HETATM   10  O   UNL     1     -11.365  13.783  69.652  1.00  0.00    -0.243 OA 
BRANCH  10  11
HETATM   11  C   UNL     1     -12.127  13.932  68.441  1.00  0.00    -0.291 C  
BRANCH  11  12
HETATM   12  C   UNL     1     -11.991  12.667  67.577  1.00  0.00    -0.250 C  
BRANCH  12  13
HETATM   13  O   UNL     1     -10.914  11.802  68.003  1.00  0.00    -0.202 OA 
BRANCH  13  14
HETATM   14  C   UNL     1     -11.112  10.439  67.632  1.00  0.00    -0.293 C  
BRANCH  14  15
HETATM   15  N   UNL     1      -9.937   9.963  66.937  1.00  0.00    -0.201 NA 
HETATM   16  C   UNL     1      -9.836   9.799  65.576  1.00  0.00    -0.308 A  
HETATM   17  N   UNL     1      -8.612   9.477  65.203  1.00  0.00    -0.151 NA 
HETATM   18  C   UNL     1      -7.886   9.436  66.373  1.00  0.00    -0.100 A  
HETATM   19  C   UNL     1      -8.701   9.730  67.438  1.00  0.00    -0.132 A  
HETATM   20  N   UNL     1      -8.246   9.778  68.694  1.00  0.00    -0.104 NA 
HETATM   21  C   UNL     1      -6.905   9.543  68.874  1.00  0.00    -0.055 C  
HETATM   22  N   UNL     1      -6.502   9.672  70.162  1.00  0.00    -0.064 NA 
HETATM   23  N   UNL     1      -6.044   9.257  67.941  1.00  0.00    -0.049 N  
HETATM   24  H2  UNL     1      -7.133   9.920  70.923  1.00  0.00     0.000 HD 
HETATM   25  H1  UNL     1      -5.506   9.497  70.295  1.00  0.00     0.000 HD 
HETATM   26  H   UNL     1      -5.065   9.100  68.182  1.00  0.00     0.000 HD 
HETATM   27  C   UNL     1      -6.458   9.163  66.607  1.00  0.00    -0.067 C  
HETATM   28  O   UNL     1      -5.688   8.883  65.696  1.00  0.00    -0.048 OA 
ENDBRANCH  14  15
ENDBRANCH  13  14
ENDBRANCH  12  13
BRANCH  12  29
HETATM   29  C   UNL     1     -11.725  13.049  66.113  1.00  0.00    -0.394 C  
HETATM   30  O   UNL     1     -12.827  13.808  65.613  1.00  0.00    -0.521 OA 
HETATM   31  H   UNL     1     -12.663  14.044  64.707  1.00  0.00     0.000 HD 
ENDBRANCH  12  29
ENDBRANCH  11  12
ENDBRANCH  10  11
ENDBRANCH   8  10
ENDBRANCH   4   8
TORSDOF 8
ENDMDL
MODEL      219
REMARK 921   NORMALIZED FREE ENERGY PREDICTED BY IDOCK:   -4.30 KCAL/MOL
REMARK 922        TOTAL FREE ENERGY PREDICTED BY IDOCK:   -7.52 KCAL/MOL
REMARK 923 INTER-LIGAND FREE ENERGY PREDICTED BY IDOCK:   -6.70 KCAL/MOL
REMARK 924 INTRA-LIGAND FREE ENERGY PREDICTED BY IDOCK:   -0.83 KCAL/MOL
REMARK 927      BINDING AFFINITY PREDICTED BY RF-SCORE:    0.00 PKD
ROOT
HETATM    1  C   UNL     1     -12.230  12.157  63.914  1.00  0.00    -0.587 C  
HETATM    2  C   UNL     1     -12.203  13.263  64.975  1.00  0.00    -0.477 C  
HETATM    3  C   UNL     1     -12.387  14.629  64.306  1.00  0.00    -0.375 C  
HETATM    4  C   UNL     1     -10.933  13.222  65.862  1.00  0.00    -0.274 C  
HETATM    5  N   UNL     1      -9.695  13.367  65.063  1.00  0.00    -0.554 NA 
HETATM    6  H1  UNL     1      -8.860  13.340  65.647  1.00  0.00     0.000 HD 
HETATM    7  H2  UNL     1      -9.720  14.212  64.491  1.00  0.00     0.000 HD 
ENDROOT
BRANCH   4   8
HETATM    8  C   UNL     1     -10.898  11.940  66.720  1.00  0.00    -0.266 C  
HETATM    9  O   UNL     1     -11.890  11.374  67.163  1.00  0.00    -0.566 OA 
BRANCH   8  10
HETATM   10  O   UNL     1      -9.616  11.549  66.988  1.00  0.00    -0.182 OA 
BRANCH  10  11
HETATM   11  C   UNL     1      -9.302  11.311  68.372  1.00  0.00    -0.181 C  
BRANCH  11  12
HETATM   12  C   UNL     1      -8.423  10.056  68.501  1.00  0.00    -0.115 C  
BRANCH  12  13
HETATM   13  O   UNL     1      -9.190   8.836  68.628  1.00  0.00    -0.141 OA 
BRANCH  13  14
HETATM   14  C   UNL     1     -10.478   9.043  69.203  1.00  0.00    -0.225 C  
BRANCH  14  15
HETATM   15  N   UNL     1     -10.549   8.344  70.467  1.00  0.00    -0.211 NA 
HETATM   16  C   UNL     1     -10.931   8.908  71.661  1.00  0.00    -0.345 A  
HETATM   17  N   UNL     1     -11.031   8.012  72.625  1.00  0.00    -0.362 NA 
HETATM   18  C   UNL     1     -10.704   6.814  72.028  1.00  0.00    -0.218 A  
HETATM   19  C   UNL     1     -10.405   7.020  70.704  1.00  0.00    -0.207 A  
HETATM   20  N   UNL     1     -10.071   6.018  69.883  1.00  0.00    -0.174 NA 
HETATM   21  C   UNL     1     -10.067   4.755  70.422  1.00  0.00    -0.231 C  
HETATM   22  N   UNL     1      -9.784   3.784  69.519  1.00  0.00    -0.155 NA 
HETATM   23  N   UNL     1     -10.334   4.446  71.657  1.00  0.00    -0.108 N  
HETATM   24  H2  UNL     1      -9.593   3.974  68.535  1.00  0.00     0.000 HD 
HETATM   25  H1  UNL     1      -9.780   2.846  69.919  1.00  0.00     0.000 HD 
HETATM   26  H   UNL     1     -10.303   3.471  71.956  1.00  0.00     0.000 HD 
HETATM   27  C   UNL     1     -10.663   5.449  72.577  1.00  0.00    -0.237 C  
HETATM   28  O   UNL     1     -10.909   5.209  73.753  1.00  0.00    -0.281 OA 
ENDBRANCH  14  15
ENDBRANCH  13  14
ENDBRANCH  12  13
BRANCH  12  29
HETATM   29  C   UNL     1      -7.521  10.164  69.741  1.00  0.00    -0.163 C  
HETATM   30  O   UNL     1      -7.490   8.904  70.416  1.00  0.00    -0.062 OA 
HETATM   31  H   UNL     1      -6.933   8.971  71.182  1.00  0.00     0.000 HD 
ENDBRANCH  12  29
ENDBRANCH  11  12
ENDBRANCH  10  11
ENDBRANCH   8  10
ENDBRANCH   4   8
TORSDOF 8
ENDMDL
MODEL      220
REMARK 921   NORMALIZED FREE ENERGY PREDICTED BY IDOCK:   -4.30 KCAL/MOL
REMARK 922        TOTAL FREE ENERGY PREDICTED BY IDOCK:   -7.52 KCAL/MOL
REMARK 923 INTER-LIGAND FREE ENERGY PREDICTED BY IDOCK:   -7.27 KCAL/MOL
REMARK 924 INTRA-LIGAND FREE ENERGY PREDICTED BY IDOCK:   -0.25 KCAL/MOL
REMARK 927      BINDING AFFINITY PREDICTED BY RF-SCORE:    0.00 PKD
ROOT
HETATM    1  C   UNL     1     -11.668  15.726  73.022  1.00  0.00    -0.458 C  
HETATM    2  C   UNL     1     -11.735  15.269  71.559  1.00  0.00    -0.450 C  
HETATM    3  C   UNL     1     -11.328  16.422  70.636  1.00  0.00    -0.208 C  
HETATM    4  C   UNL     1     -13.113  14.678  71.171  1.00  0.00    -0.366 C  
HETATM    5  N   UNL     1     -14.208  15.655  71.362  1.00  0.00    -0.608 NA 
HETATM    6  H1  UNL     1     -15.115  15.265  71.106  1.00  0.00     0.000 HD 
HETATM    7  H2  UNL     1     -14.023  16.523  70.859  1.00  0.00     0.000 HD 
ENDROOT
BRANCH   4   8
HETATM    8  C   UNL     1     -13.390  13.369  71.939  1.00  0.00    -0.451 C  
HETATM    9  O   UNL     1     -14.371  13.174  72.647  1.00  0.00    -0.636 OA 
BRANCH   8  10
HETATM   10  O   UNL     1     -12.367  12.474  71.793  1.00  0.00     0.069 OA 
BRANCH  10  11
HETATM   11  C   UNL     1     -12.646  11.318  70.983  1.00  0.00    -0.394 C  
BRANCH  11  12
HETATM   12  C   UNL     1     -12.056  10.061  71.642  1.00  0.00    -0.334 C  
BRANCH  12  13
HETATM   13  O   UNL     1     -10.983   9.467  70.875  1.00  0.00    -0.281 OA 
BRANCH  13  14
HETATM   14  C   UNL     1     -11.082   9.735  69.478  1.00  0.00    -0.192 C  
BRANCH  14  15
HETATM   15  N   UNL     1     -10.631   8.575  68.742  1.00  0.00    -0.179 NA 
HETATM   16  C   UNL     1     -10.565   8.485  67.372  1.00  0.00    -0.234 A  
HETATM   17  N   UNL     1      -9.995   7.363  66.973  1.00  0.00    -0.209 NA 
HETATM   18  C   UNL     1      -9.672   6.699  68.137  1.00  0.00    -0.130 A  
HETATM   19  C   UNL     1     -10.067   7.442  69.222  1.00  0.00    -0.186 A  
HETATM   20  N   UNL     1      -9.856   7.037  70.479  1.00  0.00    -0.179 NA 
HETATM   21  C   UNL     1      -9.197   5.844  70.640  1.00  0.00    -0.153 C  
HETATM   22  N   UNL     1      -8.961   5.528  71.938  1.00  0.00    -0.135 NA 
HETATM   23  N   UNL     1      -8.779   5.062  69.688  1.00  0.00    -0.090 N  
HETATM   24  H2  UNL     1      -9.245   6.120  72.718  1.00  0.00     0.000 HD 
HETATM   25  H1  UNL     1      -8.471   4.642  72.058  1.00  0.00     0.000 HD 
HETATM   26  H   UNL     1      -8.296   4.193  69.917  1.00  0.00     0.000 HD 
HETATM   27  C   UNL     1      -8.991   5.412  68.348  1.00  0.00    -0.108 C  
HETATM   28  O   UNL     1      -8.629   4.702  67.417  1.00  0.00    -0.104 OA 
ENDBRANCH  14  15
ENDBRANCH  13  14
ENDBRANCH  12  13
BRANCH  12  29
HETATM   29  C   UNL     1     -13.145   8.991  71.817  1.00  0.00    -0.381 C  
HETATM   30  O   UNL     1     -14.055   9.403  72.838  1.00  0.00    -0.874 OA 
HETATM   31  H   UNL     1     -14.728   8.742  72.946  1.00  0.00     0.000 HD 
ENDBRANCH  12  29
ENDBRANCH  11  12
ENDBRANCH  10  11
ENDBRANCH   8  10
ENDBRANCH   4   8
TORSDOF 8
ENDMDL
MODEL      221
REMARK 921   NORMALIZED FREE ENERGY PREDICTED BY IDOCK:   -4.29 KCAL/MOL
REMARK 922        TOTAL FREE ENERGY PREDICTED BY IDOCK:   -7.52 KCAL/MOL
REMARK 923 INTER-LIGAND FREE ENERGY PREDICTED BY IDOCK:   -6.95 KCAL/MOL
REMARK 924 INTRA-LIGAND FREE ENERGY PREDICTED BY IDOCK:   -0.56 KCAL/MOL
REMARK 927      BINDING AFFINITY PREDICTED BY RF-SCORE:    0.00 PKD
ROOT
HETATM    1  C   UNL     1      -5.881   8.733  66.799  1.00  0.00    -0.052 C  
HETATM    2  C   UNL     1      -7.203   9.461  66.526  1.00  0.00    -0.089 C  
HETATM    3  C   UNL     1      -6.935  10.741  65.728  1.00  0.00    -0.048 C  
HETATM    4  C   UNL     1      -8.017   9.743  67.814  1.00  0.00    -0.101 C  
HETATM    5  N   UNL     1      -7.261  10.578  68.774  1.00  0.00    -0.078 NA 
HETATM    6  H1  UNL     1      -7.798  10.764  69.621  1.00  0.00     0.000 HD 
HETATM    7  H2  UNL     1      -6.942  11.444  68.341  1.00  0.00     0.000 HD 
ENDROOT
BRANCH   4   8
HETATM    8  C   UNL     1      -8.493   8.429  68.468  1.00  0.00    -0.132 C  
HETATM    9  O   UNL     1      -9.161   7.573  67.900  1.00  0.00    -0.131 OA 
BRANCH   8  10
HETATM   10  O   UNL     1      -8.138   8.366  69.786  1.00  0.00    -0.111 OA 
BRANCH  10  11
HETATM   11  C   UNL     1      -9.110   7.790  70.678  1.00  0.00    -0.153 C  
BRANCH  11  12
HETATM   12  C   UNL     1     -10.484   8.437  70.444  1.00  0.00    -0.214 C  
BRANCH  12  13
HETATM   13  O   UNL     1     -10.614   9.736  71.065  1.00  0.00    -0.314 OA 
BRANCH  13  14
HETATM   14  C   UNL     1     -11.861  10.369  70.783  1.00  0.00    -0.368 C  
BRANCH  14  15
HETATM   15  N   UNL     1     -11.713  11.200  69.609  1.00  0.00    -0.306 NA 
HETATM   16  C   UNL     1     -11.506  10.734  68.332  1.00  0.00    -0.288 A  
HETATM   17  N   UNL     1     -11.538  11.704  67.438  1.00  0.00    -0.539 NA 
HETATM   18  C   UNL     1     -11.782  12.848  68.166  1.00  0.00    -0.352 A  
HETATM   19  C   UNL     1     -11.885  12.538  69.499  1.00  0.00    -0.310 A  
HETATM   20  N   UNL     1     -12.139  13.464  70.431  1.00  0.00    -0.349 NA 
HETATM   21  C   UNL     1     -12.321  14.751  69.987  1.00  0.00    -0.316 C  
HETATM   22  N   UNL     1     -12.638  15.622  70.975  1.00  0.00    -0.452 NA 
HETATM   23  N   UNL     1     -12.247  15.155  68.752  1.00  0.00    -0.598 N  
HETATM   24  H2  UNL     1     -12.733  15.349  71.953  1.00  0.00     0.000 HD 
HETATM   25  H1  UNL     1     -12.773  16.578  70.646  1.00  0.00     0.000 HD 
HETATM   26  H   UNL     1     -12.401  16.138  68.529  1.00  0.00     0.000 HD 
HETATM   27  C   UNL     1     -11.957  14.243  67.730  1.00  0.00    -0.349 C  
HETATM   28  O   UNL     1     -11.864  14.578  66.555  1.00  0.00    -0.383 OA 
ENDBRANCH  14  15
ENDBRANCH  13  14
ENDBRANCH  12  13
BRANCH  12  29
HETATM   29  C   UNL     1     -11.597   7.542  71.011  1.00  0.00    -0.283 C  
HETATM   30  O   UNL     1     -12.198   6.801  69.947  1.00  0.00    -0.634 OA 
HETATM   31  H   UNL     1     -12.886   6.248  70.298  1.00  0.00     0.000 HD 
ENDBRANCH  12  29
ENDBRANCH  11  12
ENDBRANCH  10  11
ENDBRANCH   8  10
ENDBRANCH   4   8
TORSDOF 8
ENDMDL
MODEL      222
REMARK 921   NORMALIZED FREE ENERGY PREDICTED BY IDOCK:   -4.29 KCAL/MOL
REMARK 922        TOTAL FREE ENERGY PREDICTED BY IDOCK:   -7.51 KCAL/MOL
REMARK 923 INTER-LIGAND FREE ENERGY PREDICTED BY IDOCK:   -7.59 KCAL/MOL
REMARK 924 INTRA-LIGAND FREE ENERGY PREDICTED BY IDOCK:    0.07 KCAL/MOL
REMARK 927      BINDING AFFINITY PREDICTED BY RF-SCORE:    0.00 PKD
ROOT
HETATM    1  C   UNL     1     -11.602   5.830  72.354  1.00  0.00    -0.320 C  
HETATM    2  C   UNL     1     -11.130   6.383  71.004  1.00  0.00    -0.349 C  
HETATM    3  C   UNL     1     -10.324   5.315  70.259  1.00  0.00    -0.350 C  
HETATM    4  C   UNL     1     -10.344   7.713  71.134  1.00  0.00    -0.200 C  
HETATM    5  N   UNL     1      -9.138   7.561  71.979  1.00  0.00    -0.127 NA 
HETATM    6  H1  UNL     1      -8.621   8.436  72.064  1.00  0.00     0.000 HD 
HETATM    7  H2  UNL     1      -8.539   6.810  71.638  1.00  0.00     0.000 HD 
ENDROOT
BRANCH   4   8
HETATM    8  C   UNL     1     -11.254   8.844  71.656  1.00  0.00    -0.345 C  
HETATM    9  O   UNL     1     -12.133   8.696  72.496  1.00  0.00    -0.374 OA 
BRANCH   8  10
HETATM   10  O   UNL     1     -11.009  10.024  71.011  1.00  0.00    -0.322 OA 
BRANCH  10  11
HETATM   11  C   UNL     1     -11.729  10.238  69.783  1.00  0.00    -0.191 C  
BRANCH  11  12
HETATM   12  C   UNL     1     -10.776  10.775  68.704  1.00  0.00    -0.208 C  
BRANCH  12  13
HETATM   13  O   UNL     1     -10.980  12.176  68.412  1.00  0.00    -0.209 OA 
BRANCH  13  14
HETATM   14  C   UNL     1     -11.649  12.397  67.172  1.00  0.00    -0.365 C  
BRANCH  14  15
HETATM   15  N   UNL     1     -11.193  13.646  66.604  1.00  0.00    -0.306 NA 
HETATM   16  C   UNL     1     -11.009  13.883  65.263  1.00  0.00    -0.331 A  
HETATM   17  N   UNL     1     -10.714  15.146  65.017  1.00  0.00    -0.416 NA 
HETATM   18  C   UNL     1     -10.712  15.755  66.253  1.00  0.00    -0.282 A  
HETATM   19  C   UNL     1     -11.002  14.832  67.227  1.00  0.00    -0.318 A  
HETATM   20  N   UNL     1     -11.084  15.161  68.521  1.00  0.00    -0.263 NA 
HETATM   21  C   UNL     1     -10.888  16.483  68.835  1.00  0.00    -0.336 C  
HETATM   22  N   UNL     1     -11.049  16.755  70.153  1.00  0.00    -0.398 NA 
HETATM   23  N   UNL     1     -10.609  17.439  67.996  1.00  0.00    -0.386 N  
HETATM   24  H2  UNL     1     -11.293  16.046  70.845  1.00  0.00     0.000 HD 
HETATM   25  H1  UNL     1     -10.904  17.737  70.387  1.00  0.00     0.000 HD 
HETATM   26  H   UNL     1     -10.483  18.392  68.335  1.00  0.00     0.000 HD 
HETATM   27  C   UNL     1     -10.482  17.159  66.630  1.00  0.00    -0.259 C  
HETATM   28  O   UNL     1     -10.207  18.022  65.804  1.00  0.00    -0.574 OA 
ENDBRANCH  14  15
ENDBRANCH  13  14
ENDBRANCH  12  13
BRANCH  12  29
HETATM   29  C   UNL     1     -10.967   9.998  67.392  1.00  0.00    -0.191 C  
HETATM   30  O   UNL     1      -9.688   9.690  66.832  1.00  0.00    -0.167 OA 
HETATM   31  H   UNL     1      -9.806   9.210  66.021  1.00  0.00     0.000 HD 
ENDBRANCH  12  29
ENDBRANCH  11  12
ENDBRANCH  10  11
ENDBRANCH   8  10
ENDBRANCH   4   8
TORSDOF 8
ENDMDL
MODEL      223
REMARK 921   NORMALIZED FREE ENERGY PREDICTED BY IDOCK:   -4.29 KCAL/MOL
REMARK 922        TOTAL FREE ENERGY PREDICTED BY IDOCK:   -7.51 KCAL/MOL
REMARK 923 INTER-LIGAND FREE ENERGY PREDICTED BY IDOCK:   -6.27 KCAL/MOL
REMARK 924 INTRA-LIGAND FREE ENERGY PREDICTED BY IDOCK:   -1.24 KCAL/MOL
REMARK 927      BINDING AFFINITY PREDICTED BY RF-SCORE:    0.00 PKD
ROOT
HETATM    1  C   UNL     1      -9.654  18.688  66.260  1.00  0.00    -0.295 C  
HETATM    2  C   UNL     1     -10.513  18.544  67.522  1.00  0.00    -0.453 C  
HETATM    3  C   UNL     1     -10.387  19.806  68.382  1.00  0.00    -0.513 C  
HETATM    4  C   UNL     1     -10.195  17.261  68.331  1.00  0.00    -0.358 C  
HETATM    5  N   UNL     1      -8.782  17.220  68.771  1.00  0.00    -0.264 NA 
HETATM    6  H1  UNL     1      -8.574  16.376  69.303  1.00  0.00     0.000 HD 
HETATM    7  H2  UNL     1      -8.533  18.059  69.294  1.00  0.00     0.000 HD 
ENDROOT
BRANCH   4   8
HETATM    8  C   UNL     1     -10.569  15.996  67.531  1.00  0.00    -0.313 C  
HETATM    9  O   UNL     1     -11.700  15.530  67.459  1.00  0.00    -0.194 OA 
BRANCH   8  10
HETATM   10  O   UNL     1      -9.469  15.414  66.967  1.00  0.00    -0.210 OA 
BRANCH  10  11
HETATM   11  C   UNL     1      -9.642  14.072  66.477  1.00  0.00    -0.293 C  
BRANCH  11  12
HETATM   12  C   UNL     1      -8.995  13.072  67.449  1.00  0.00    -0.204 C  
BRANCH  12  13
HETATM   13  O   UNL     1      -9.872  12.683  68.530  1.00  0.00    -0.216 OA 
BRANCH  13  14
HETATM   14  C   UNL     1     -11.034  11.986  68.084  1.00  0.00    -0.230 C  
BRANCH  14  15
HETATM   15  N   UNL     1     -10.697  10.597  67.865  1.00  0.00    -0.227 NA 
HETATM   16  C   UNL     1     -10.648   9.982  66.637  1.00  0.00    -0.125 A  
HETATM   17  N   UNL     1     -10.187   8.748  66.717  1.00  0.00    -0.285 NA 
HETATM   18  C   UNL     1      -9.921   8.557  68.055  1.00  0.00    -0.183 A  
HETATM   19  C   UNL     1     -10.238   9.692  68.760  1.00  0.00    -0.196 A  
HETATM   20  N   UNL     1     -10.060   9.786  70.082  1.00  0.00    -0.253 NA 
HETATM   21  C   UNL     1      -9.513   8.694  70.710  1.00  0.00    -0.190 C  
HETATM   22  N   UNL     1      -9.301   8.883  72.035  1.00  0.00    -0.370 NA 
HETATM   23  N   UNL     1      -9.175   7.572  70.143  1.00  0.00    -0.154 N  
HETATM   24  H2  UNL     1      -9.525   9.752  72.519  1.00  0.00     0.000 HD 
HETATM   25  H1  UNL     1      -8.896   8.072  72.502  1.00  0.00     0.000 HD 
HETATM   26  H   UNL     1      -8.775   6.819  70.703  1.00  0.00     0.000 HD 
HETATM   27  C   UNL     1      -9.361   7.396  68.766  1.00  0.00    -0.144 C  
HETATM   28  O   UNL     1      -9.072   6.354  68.191  1.00  0.00    -0.116 OA 
ENDBRANCH  14  15
ENDBRANCH  13  14
ENDBRANCH  12  13
BRANCH  12  29
HETATM   29  C   UNL     1      -7.732  13.682  68.077  1.00  0.00    -0.143 C  
HETATM   30  O   UNL     1      -8.016  14.082  69.419  1.00  0.00    -0.338 OA 
HETATM   31  H   UNL     1      -7.235  14.459  69.807  1.00  0.00     0.000 HD 
ENDBRANCH  12  29
ENDBRANCH  11  12
ENDBRANCH  10  11
ENDBRANCH   8  10
ENDBRANCH   4   8
TORSDOF 8
ENDMDL
MODEL      224
REMARK 921   NORMALIZED FREE ENERGY PREDICTED BY IDOCK:   -4.28 KCAL/MOL
REMARK 922        TOTAL FREE ENERGY PREDICTED BY IDOCK:   -7.50 KCAL/MOL
REMARK 923 INTER-LIGAND FREE ENERGY PREDICTED BY IDOCK:   -6.93 KCAL/MOL
REMARK 924 INTRA-LIGAND FREE ENERGY PREDICTED BY IDOCK:   -0.57 KCAL/MOL
REMARK 927      BINDING AFFINITY PREDICTED BY RF-SCORE:    0.00 PKD
ROOT
HETATM    1  C   UNL     1      -7.618  13.953  67.272  1.00  0.00    -0.079 C  
HETATM    2  C   UNL     1      -6.317  14.506  67.865  1.00  0.00    -0.173 C  
HETATM    3  C   UNL     1      -5.284  13.381  67.991  1.00  0.00    -0.111 C  
HETATM    4  C   UNL     1      -6.529  15.247  69.210  1.00  0.00    -0.131 C  
HETATM    5  N   UNL     1      -7.125  14.366  70.239  1.00  0.00    -0.380 NA 
HETATM    6  H1  UNL     1      -7.265  14.854  71.123  1.00  0.00     0.000 HD 
HETATM    7  H2  UNL     1      -6.573  13.518  70.366  1.00  0.00     0.000 HD 
ENDROOT
BRANCH   4   8
HETATM    8  C   UNL     1      -7.371  16.525  69.010  1.00  0.00    -0.228 C  
HETATM    9  O   UNL     1      -6.977  17.660  69.252  1.00  0.00    -0.243 OA 
BRANCH   8  10
HETATM   10  O   UNL     1      -8.640  16.232  68.598  1.00  0.00    -0.199 OA 
BRANCH  10  11
HETATM   11  C   UNL     1      -9.697  17.004  69.197  1.00  0.00    -0.165 C  
BRANCH  11  12
HETATM   12  C   UNL     1     -10.764  17.338  68.142  1.00  0.00    -0.363 C  
BRANCH  12  13
HETATM   13  O   UNL     1     -10.761  16.424  67.021  1.00  0.00    -0.302 OA 
BRANCH  13  14
HETATM   14  C   UNL     1     -11.646  15.320  67.199  1.00  0.00    -0.126 C  
BRANCH  14  15
HETATM   15  N   UNL     1     -11.274  14.264  66.284  1.00  0.00    -0.330 NA 
HETATM   16  C   UNL     1     -10.800  14.455  65.008  1.00  0.00    -0.407 A  
HETATM   17  N   UNL     1     -10.416  13.325  64.445  1.00  0.00    -0.426 NA 
HETATM   18  C   UNL     1     -10.647  12.359  65.400  1.00  0.00    -0.284 A  
HETATM   19  C   UNL     1     -11.177  12.936  66.528  1.00  0.00    -0.302 A  
HETATM   20  N   UNL     1     -11.479  12.225  67.620  1.00  0.00    -0.314 NA 
HETATM   21  C   UNL     1     -11.208  10.880  67.574  1.00  0.00    -0.293 C  
HETATM   22  N   UNL     1     -11.478  10.235  68.735  1.00  0.00    -0.478 NA 
HETATM   23  N   UNL     1     -10.707  10.231  66.563  1.00  0.00    -0.133 N  
HETATM   24  H2  UNL     1     -11.846  10.704  69.563  1.00  0.00     0.000 HD 
HETATM   25  H1  UNL     1     -11.277   9.236  68.702  1.00  0.00     0.000 HD 
HETATM   26  H   UNL     1     -10.543   9.227  66.634  1.00  0.00     0.000 HD 
HETATM   27  C   UNL     1     -10.394  10.909  65.379  1.00  0.00    -0.261 C  
HETATM   28  O   UNL     1      -9.934  10.340  64.396  1.00  0.00    -0.335 OA 
ENDBRANCH  14  15
ENDBRANCH  13  14
ENDBRANCH  12  13
BRANCH  12  29
HETATM   29  C   UNL     1     -10.536  18.751  67.584  1.00  0.00    -0.435 C  
HETATM   30  O   UNL     1     -10.264  19.649  68.662  1.00  0.00    -0.433 OA 
HETATM   31  H   UNL     1     -10.123  20.522  68.317  1.00  0.00     0.000 HD 
ENDBRANCH  12  29
ENDBRANCH  11  12
ENDBRANCH  10  11
ENDBRANCH   8  10
ENDBRANCH   4   8
TORSDOF 8
ENDMDL
MODEL      225
REMARK 921   NORMALIZED FREE ENERGY PREDICTED BY IDOCK:   -4.28 KCAL/MOL
REMARK 922        TOTAL FREE ENERGY PREDICTED BY IDOCK:   -7.50 KCAL/MOL
REMARK 923 INTER-LIGAND FREE ENERGY PREDICTED BY IDOCK:   -6.84 KCAL/MOL
REMARK 924 INTRA-LIGAND FREE ENERGY PREDICTED BY IDOCK:   -0.66 KCAL/MOL
REMARK 927      BINDING AFFINITY PREDICTED BY RF-SCORE:    0.00 PKD
ROOT
HETATM    1  C   UNL     1     -13.920  15.355  71.682  1.00  0.00    -0.617 C  
HETATM    2  C   UNL     1     -12.500  14.942  72.091  1.00  0.00    -0.416 C  
HETATM    3  C   UNL     1     -12.119  15.628  73.407  1.00  0.00    -0.603 C  
HETATM    4  C   UNL     1     -11.450  15.199  70.981  1.00  0.00    -0.330 C  
HETATM    5  N   UNL     1     -11.385  16.628  70.601  1.00  0.00    -0.451 NA 
HETATM    6  H1  UNL     1     -10.694  16.796  69.870  1.00  0.00     0.000 HD 
HETATM    7  H2  UNL     1     -11.217  17.221  71.413  1.00  0.00     0.000 HD 
ENDROOT
BRANCH   4   8
HETATM    8  C   UNL     1     -11.714  14.304  69.752  1.00  0.00    -0.309 C  
HETATM    9  O   UNL     1     -12.513  13.376  69.728  1.00  0.00    -0.202 OA 
BRANCH   8  10
HETATM   10  O   UNL     1     -10.891  14.626  68.710  1.00  0.00    -0.238 OA 
BRANCH  10  11
HETATM   11  C   UNL     1     -11.513  15.279  67.588  1.00  0.00    -0.280 C  
BRANCH  11  12
HETATM   12  C   UNL     1     -11.761  14.262  66.462  1.00  0.00    -0.394 C  
BRANCH  12  13
HETATM   13  O   UNL     1     -11.219  12.953  66.749  1.00  0.00    -0.276 OA 
BRANCH  13  14
HETATM   14  C   UNL     1     -10.080  12.633  65.953  1.00  0.00    -0.264 C  
BRANCH  14  15
HETATM   15  N   UNL     1      -9.040  12.104  66.807  1.00  0.00    -0.202 NA 
HETATM   16  C   UNL     1      -8.801  10.768  67.025  1.00  0.00    -0.135 A  
HETATM   17  N   UNL     1      -7.711  10.569  67.743  1.00  0.00    -0.092 NA 
HETATM   18  C   UNL     1      -7.221  11.831  67.997  1.00  0.00    -0.084 A  
HETATM   19  C   UNL     1      -8.039  12.773  67.425  1.00  0.00    -0.185 A  
HETATM   20  N   UNL     1      -7.784  14.084  67.503  1.00  0.00    -0.176 NA 
HETATM   21  C   UNL     1      -6.639  14.450  68.166  1.00  0.00    -0.130 C  
HETATM   22  N   UNL     1      -6.410  15.786  68.149  1.00  0.00    -0.115 NA 
HETATM   23  N   UNL     1      -5.793  13.646  68.742  1.00  0.00    -0.080 N  
HETATM   24  H2  UNL     1      -7.029  16.454  67.689  1.00  0.00     0.000 HD 
HETATM   25  H1  UNL     1      -5.559  16.059  68.642  1.00  0.00     0.000 HD 
HETATM   26  H   UNL     1      -4.969  14.023  69.209  1.00  0.00     0.000 HD 
HETATM   27  C   UNL     1      -6.015  12.263  68.722  1.00  0.00    -0.065 C  
HETATM   28  O   UNL     1      -5.255  11.467  69.262  1.00  0.00    -0.048 OA 
ENDBRANCH  14  15
ENDBRANCH  13  14
ENDBRANCH  12  13
BRANCH  12  29
HETATM   29  C   UNL     1     -11.119  14.750  65.154  1.00  0.00    -0.384 C  
HETATM   30  O   UNL     1     -12.143  15.040  64.201  1.00  0.00    -0.759 OA 
HETATM   31  H   UNL     1     -11.746  15.342  63.393  1.00  0.00     0.000 HD 
ENDBRANCH  12  29
ENDBRANCH  11  12
ENDBRANCH  10  11
ENDBRANCH   8  10
ENDBRANCH   4   8
TORSDOF 8
ENDMDL
MODEL      226
REMARK 921   NORMALIZED FREE ENERGY PREDICTED BY IDOCK:   -4.28 KCAL/MOL
REMARK 922        TOTAL FREE ENERGY PREDICTED BY IDOCK:   -7.49 KCAL/MOL
REMARK 923 INTER-LIGAND FREE ENERGY PREDICTED BY IDOCK:   -7.04 KCAL/MOL
REMARK 924 INTRA-LIGAND FREE ENERGY PREDICTED BY IDOCK:   -0.45 KCAL/MOL
REMARK 927      BINDING AFFINITY PREDICTED BY RF-SCORE:    0.00 PKD
ROOT
HETATM    1  C   UNL     1     -10.887  15.456  64.876  1.00  0.00    -0.445 C  
HETATM    2  C   UNL     1     -10.775  15.398  66.404  1.00  0.00    -0.311 C  
HETATM    3  C   UNL     1      -9.730  16.409  66.887  1.00  0.00    -0.260 C  
HETATM    4  C   UNL     1     -10.487  13.971  66.938  1.00  0.00    -0.276 C  
HETATM    5  N   UNL     1      -9.223  13.423  66.397  1.00  0.00    -0.445 NA 
HETATM    6  H1  UNL     1      -9.034  12.485  66.749  1.00  0.00     0.000 HD 
HETATM    7  H2  UNL     1      -8.439  14.051  66.577  1.00  0.00     0.000 HD 
ENDROOT
BRANCH   4   8
HETATM    8  C   UNL     1     -11.673  13.026  66.657  1.00  0.00    -0.381 C  
HETATM    9  O   UNL     1     -12.088  12.746  65.538  1.00  0.00    -0.423 OA 
BRANCH   8  10
HETATM   10  O   UNL     1     -12.256  12.592  67.814  1.00  0.00    -0.372 OA 
BRANCH  10  11
HETATM   11  C   UNL     1     -11.560  12.909  69.033  1.00  0.00    -0.322 C  
BRANCH  11  12
HETATM   12  C   UNL     1     -11.330  11.630  69.854  1.00  0.00    -0.150 C  
BRANCH  12  13
HETATM   13  O   UNL     1     -11.363  10.427  69.052  1.00  0.00    -0.242 OA 
BRANCH  13  14
HETATM   14  C   UNL     1     -10.064   9.965  68.684  1.00  0.00    -0.175 C  
BRANCH  14  15
HETATM   15  N   UNL     1      -9.385   9.478  69.864  1.00  0.00    -0.207 NA 
HETATM   16  C   UNL     1      -8.133   9.872  70.274  1.00  0.00    -0.085 A  
HETATM   17  N   UNL     1      -7.813   9.368  71.451  1.00  0.00    -0.283 NA 
HETATM   18  C   UNL     1      -8.908   8.618  71.823  1.00  0.00    -0.211 A  
HETATM   19  C   UNL     1      -9.871   8.683  70.846  1.00  0.00    -0.205 A  
HETATM   20  N   UNL     1     -11.048   8.059  70.961  1.00  0.00    -0.249 NA 
HETATM   21  C   UNL     1     -11.266   7.363  72.125  1.00  0.00    -0.262 C  
HETATM   22  N   UNL     1     -12.502   6.812  72.200  1.00  0.00    -0.529 NA 
HETATM   23  N   UNL     1     -10.428   7.236  73.112  1.00  0.00    -0.302 N  
HETATM   24  H2  UNL     1     -13.202   6.905  71.464  1.00  0.00     0.000 HD 
HETATM   25  H1  UNL     1     -12.664   6.294  73.064  1.00  0.00     0.000 HD 
HETATM   26  H   UNL     1     -10.691   6.695  73.936  1.00  0.00     0.000 HD 
HETATM   27  C   UNL     1      -9.167   7.841  73.045  1.00  0.00    -0.226 C  
HETATM   28  O   UNL     1      -8.340   7.738  73.943  1.00  0.00    -0.178 OA 
ENDBRANCH  14  15
ENDBRANCH  13  14
ENDBRANCH  12  13
BRANCH  12  29
HETATM   29  C   UNL     1     -12.411  11.491  70.937  1.00  0.00    -0.359 C  
HETATM   30  O   UNL     1     -13.111  12.730  71.070  1.00  0.00    -0.146 OA 
HETATM   31  H   UNL     1     -13.779  12.645  71.739  1.00  0.00     0.000 HD 
ENDBRANCH  12  29
ENDBRANCH  11  12
ENDBRANCH  10  11
ENDBRANCH   8  10
ENDBRANCH   4   8
TORSDOF 8
ENDMDL
MODEL      227
REMARK 921   NORMALIZED FREE ENERGY PREDICTED BY IDOCK:   -4.27 KCAL/MOL
REMARK 922        TOTAL FREE ENERGY PREDICTED BY IDOCK:   -7.48 KCAL/MOL
REMARK 923 INTER-LIGAND FREE ENERGY PREDICTED BY IDOCK:   -6.72 KCAL/MOL
REMARK 924 INTRA-LIGAND FREE ENERGY PREDICTED BY IDOCK:   -0.76 KCAL/MOL
REMARK 927      BINDING AFFINITY PREDICTED BY RF-SCORE:    0.00 PKD
ROOT
HETATM    1  C   UNL     1      -5.627  11.328  69.721  1.00  0.00    -0.064 C  
HETATM    2  C   UNL     1      -6.427  12.134  68.691  1.00  0.00    -0.072 C  
HETATM    3  C   UNL     1      -6.819  13.491  69.285  1.00  0.00    -0.051 C  
HETATM    4  C   UNL     1      -7.656  11.368  68.140  1.00  0.00    -0.114 C  
HETATM    5  N   UNL     1      -8.602  10.995  69.215  1.00  0.00    -0.379 NA 
HETATM    6  H1  UNL     1      -9.411  10.491  68.853  1.00  0.00     0.000 HD 
HETATM    7  H2  UNL     1      -8.887  11.810  69.758  1.00  0.00     0.000 HD 
ENDROOT
BRANCH   4   8
HETATM    8  C   UNL     1      -7.218  10.133  67.326  1.00  0.00    -0.089 C  
HETATM    9  O   UNL     1      -6.796   9.092  67.816  1.00  0.00    -0.074 OA 
BRANCH   8  10
HETATM   10  O   UNL     1      -7.290  10.365  65.981  1.00  0.00    -0.122 OA 
BRANCH  10  11
HETATM   11  C   UNL     1      -8.525   9.999  65.339  1.00  0.00    -0.151 C  
BRANCH  11  12
HETATM   12  C   UNL     1      -9.426  11.235  65.192  1.00  0.00    -0.215 C  
BRANCH  12  13
HETATM   13  O   UNL     1     -10.485  11.286  66.176  1.00  0.00    -0.241 OA 
BRANCH  13  14
HETATM   14  C   UNL     1     -11.364  12.394  65.994  1.00  0.00    -0.353 C  
BRANCH  14  15
HETATM   15  N   UNL     1     -11.562  13.054  67.265  1.00  0.00    -0.335 NA 
HETATM   16  C   UNL     1     -11.631  14.416  67.445  1.00  0.00    -0.375 A  
HETATM   17  N   UNL     1     -11.947  14.738  68.685  1.00  0.00    -0.291 NA 
HETATM   18  C   UNL     1     -12.095  13.532  69.336  1.00  0.00    -0.289 A  
HETATM   19  C   UNL     1     -11.854  12.500  68.464  1.00  0.00    -0.295 A  
HETATM   20  N   UNL     1     -11.947  11.217  68.832  1.00  0.00    -0.462 NA 
HETATM   21  C   UNL     1     -12.325  10.974  70.130  1.00  0.00    -0.311 C  
HETATM   22  N   UNL     1     -12.462   9.656  70.414  1.00  0.00    -0.484 NA 
HETATM   23  N   UNL     1     -12.578  11.872  71.037  1.00  0.00    -0.340 N  
HETATM   24  H2  UNL     1     -12.301   8.916  69.730  1.00  0.00     0.000 HD 
HETATM   25  H1  UNL     1     -12.742   9.475  71.378  1.00  0.00     0.000 HD 
HETATM   26  H   UNL     1     -12.853  11.584  71.976  1.00  0.00     0.000 HD 
HETATM   27  C   UNL     1     -12.472  13.234  70.727  1.00  0.00    -0.324 C  
HETATM   28  O   UNL     1     -12.686  14.115  71.551  1.00  0.00    -0.324 OA 
ENDBRANCH  14  15
ENDBRANCH  13  14
ENDBRANCH  12  13
BRANCH  12  29
HETATM   29  C   UNL     1     -10.085  11.251  63.805  1.00  0.00    -0.361 C  
HETATM   30  O   UNL     1      -9.174  11.805  62.853  1.00  0.00    -0.604 OA 
HETATM   31  H   UNL     1      -9.582  11.815  61.995  1.00  0.00     0.000 HD 
ENDBRANCH  12  29
ENDBRANCH  11  12
ENDBRANCH  10  11
ENDBRANCH   8  10
ENDBRANCH   4   8
TORSDOF 8
ENDMDL
MODEL      228
REMARK 921   NORMALIZED FREE ENERGY PREDICTED BY IDOCK:   -4.26 KCAL/MOL
REMARK 922        TOTAL FREE ENERGY PREDICTED BY IDOCK:   -7.47 KCAL/MOL
REMARK 923 INTER-LIGAND FREE ENERGY PREDICTED BY IDOCK:   -6.77 KCAL/MOL
REMARK 924 INTRA-LIGAND FREE ENERGY PREDICTED BY IDOCK:   -0.70 KCAL/MOL
REMARK 927      BINDING AFFINITY PREDICTED BY RF-SCORE:    0.00 PKD
ROOT
HETATM    1  C   UNL     1      -8.448   5.634  69.319  1.00  0.00    -0.106 C  
HETATM    2  C   UNL     1      -9.771   4.985  68.894  1.00  0.00    -0.234 C  
HETATM    3  C   UNL     1      -9.638   4.417  67.477  1.00  0.00    -0.213 C  
HETATM    4  C   UNL     1     -10.985   5.940  69.021  1.00  0.00    -0.289 C  
HETATM    5  N   UNL     1     -10.821   7.155  68.192  1.00  0.00    -0.422 NA 
HETATM    6  H1  UNL     1     -11.620   7.783  68.276  1.00  0.00     0.000 HD 
HETATM    7  H2  UNL     1     -10.638   6.918  67.218  1.00  0.00     0.000 HD 
ENDROOT
BRANCH   4   8
HETATM    8  C   UNL     1     -11.253   6.300  70.497  1.00  0.00    -0.354 C  
HETATM    9  O   UNL     1     -10.950   5.592  71.450  1.00  0.00    -0.250 OA 
BRANCH   8  10
HETATM   10  O   UNL     1     -11.939   7.477  70.611  1.00  0.00    -0.241 OA 
BRANCH  10  11
HETATM   11  C   UNL     1     -11.589   8.309  71.731  1.00  0.00    -0.299 C  
BRANCH  11  12
HETATM   12  C   UNL     1     -10.587   9.388  71.289  1.00  0.00    -0.330 C  
BRANCH  12  13
HETATM   13  O   UNL     1     -10.787   9.825  69.926  1.00  0.00    -0.239 OA 
BRANCH  13  14
HETATM   14  C   UNL     1     -11.973  10.600  69.756  1.00  0.00    -0.291 C  
BRANCH  14  15
HETATM   15  N   UNL     1     -11.699  11.688  68.844  1.00  0.00    -0.309 NA 
HETATM   16  C   UNL     1     -12.126  12.985  69.013  1.00  0.00    -0.177 A  
HETATM   17  N   UNL     1     -11.624  13.796  68.100  1.00  0.00    -0.314 NA 
HETATM   18  C   UNL     1     -10.833  12.991  67.310  1.00  0.00    -0.252 A  
HETATM   19  C   UNL     1     -10.883  11.697  67.765  1.00  0.00    -0.217 A  
HETATM   20  N   UNL     1     -10.190  10.709  67.188  1.00  0.00    -0.206 NA 
HETATM   21  C   UNL     1      -9.395  11.054  66.123  1.00  0.00    -0.191 C  
HETATM   22  N   UNL     1      -8.673  10.017  65.631  1.00  0.00    -0.149 NA 
HETATM   23  N   UNL     1      -9.271  12.244  65.611  1.00  0.00    -0.438 N  
HETATM   24  H2  UNL     1      -8.716   9.073  66.014  1.00  0.00     0.000 HD 
HETATM   25  H1  UNL     1      -8.082  10.273  64.839  1.00  0.00     0.000 HD 
HETATM   26  H   UNL     1      -8.649  12.393  64.816  1.00  0.00     0.000 HD 
HETATM   27  C   UNL     1      -9.990  13.318  66.148  1.00  0.00    -0.293 C  
HETATM   28  O   UNL     1      -9.916  14.453  65.692  1.00  0.00    -0.332 OA 
ENDBRANCH  14  15
ENDBRANCH  13  14
ENDBRANCH  12  13
BRANCH  12  29
HETATM   29  C   UNL     1      -9.150   8.854  71.396  1.00  0.00    -0.248 C  
HETATM   30  O   UNL     1      -8.808   8.682  72.773  1.00  0.00    -0.374 OA 
HETATM   31  H   UNL     1      -7.920   8.352  72.838  1.00  0.00     0.000 HD 
ENDBRANCH  12  29
ENDBRANCH  11  12
ENDBRANCH  10  11
ENDBRANCH   8  10
ENDBRANCH   4   8
TORSDOF 8
ENDMDL
MODEL      229
REMARK 921   NORMALIZED FREE ENERGY PREDICTED BY IDOCK:   -4.25 KCAL/MOL
REMARK 922        TOTAL FREE ENERGY PREDICTED BY IDOCK:   -7.46 KCAL/MOL
REMARK 923 INTER-LIGAND FREE ENERGY PREDICTED BY IDOCK:   -7.18 KCAL/MOL
REMARK 924 INTRA-LIGAND FREE ENERGY PREDICTED BY IDOCK:   -0.28 KCAL/MOL
REMARK 927      BINDING AFFINITY PREDICTED BY RF-SCORE:    0.00 PKD
ROOT
HETATM    1  C   UNL     1      -9.447   5.112  68.024  1.00  0.00    -0.156 C  
HETATM    2  C   UNL     1      -8.513   5.945  68.911  1.00  0.00    -0.105 C  
HETATM    3  C   UNL     1      -7.111   5.325  68.913  1.00  0.00    -0.061 C  
HETATM    4  C   UNL     1      -9.057   6.145  70.348  1.00  0.00    -0.153 C  
HETATM    5  N   UNL     1      -9.268   4.855  71.044  1.00  0.00    -0.139 NA 
HETATM    6  H1  UNL     1      -9.626   4.987  71.989  1.00  0.00     0.000 HD 
HETATM    7  H2  UNL     1      -8.418   4.291  71.045  1.00  0.00     0.000 HD 
ENDROOT
BRANCH   4   8
HETATM    8  C   UNL     1     -10.346   6.993  70.338  1.00  0.00    -0.202 C  
HETATM    9  O   UNL     1     -11.417   6.622  69.873  1.00  0.00    -0.358 OA 
BRANCH   8  10
HETATM   10  O   UNL     1     -10.130   8.242  70.848  1.00  0.00    -0.186 OA 
BRANCH  10  11
HETATM   11  C   UNL     1      -9.911   9.290  69.887  1.00  0.00    -0.205 C  
BRANCH  11  12
HETATM   12  C   UNL     1     -11.254   9.918  69.480  1.00  0.00    -0.177 C  
BRANCH  12  13
HETATM   13  O   UNL     1     -11.191  10.631  68.224  1.00  0.00    -0.267 OA 
BRANCH  13  14
HETATM   14  C   UNL     1      -9.872  11.060  67.891  1.00  0.00    -0.171 C  
BRANCH  14  15
HETATM   15  N   UNL     1      -9.922  12.435  67.445  1.00  0.00    -0.201 NA 
HETATM   16  C   UNL     1      -9.289  13.488  68.061  1.00  0.00    -0.213 A  
HETATM   17  N   UNL     1      -9.396  14.607  67.368  1.00  0.00    -0.191 NA 
HETATM   18  C   UNL     1     -10.127  14.262  66.253  1.00  0.00    -0.298 A  
HETATM   19  C   UNL     1     -10.453  12.929  66.302  1.00  0.00    -0.270 A  
HETATM   20  N   UNL     1     -11.148  12.326  65.331  1.00  0.00    -0.302 NA 
HETATM   21  C   UNL     1     -11.503  13.102  64.255  1.00  0.00    -0.384 C  
HETATM   22  N   UNL     1     -12.146  12.412  63.281  1.00  0.00    -0.725 NA 
HETATM   23  N   UNL     1     -11.247  14.369  64.103  1.00  0.00    -0.579 N  
HETATM   24  H2  UNL     1     -12.346  11.413  63.343  1.00  0.00     0.000 HD 
HETATM   25  H1  UNL     1     -12.410  12.987  62.482  1.00  0.00     0.000 HD 
HETATM   26  H   UNL     1     -11.556  14.853  63.261  1.00  0.00     0.000 HD 
HETATM   27  C   UNL     1     -10.548  15.068  65.095  1.00  0.00    -0.418 C  
HETATM   28  O   UNL     1     -10.296  16.263  65.003  1.00  0.00    -0.593 OA 
ENDBRANCH  14  15
ENDBRANCH  13  14
ENDBRANCH  12  13
BRANCH  12  29
HETATM   29  C   UNL     1     -11.722  10.914  70.552  1.00  0.00    -0.342 C  
HETATM   30  O   UNL     1     -11.622  12.244  70.040  1.00  0.00    -0.481 OA 
HETATM   31  H   UNL     1     -11.911  12.860  70.702  1.00  0.00     0.000 HD 
ENDBRANCH  12  29
ENDBRANCH  11  12
ENDBRANCH  10  11
ENDBRANCH   8  10
ENDBRANCH   4   8
TORSDOF 8
ENDMDL
MODEL      230
REMARK 921   NORMALIZED FREE ENERGY PREDICTED BY IDOCK:   -4.24 KCAL/MOL
REMARK 922        TOTAL FREE ENERGY PREDICTED BY IDOCK:   -7.44 KCAL/MOL
REMARK 923 INTER-LIGAND FREE ENERGY PREDICTED BY IDOCK:   -6.49 KCAL/MOL
REMARK 924 INTRA-LIGAND FREE ENERGY PREDICTED BY IDOCK:   -0.95 KCAL/MOL
REMARK 927      BINDING AFFINITY PREDICTED BY RF-SCORE:    0.00 PKD
ROOT
HETATM    1  C   UNL     1      -7.754   5.230  69.889  1.00  0.00    -0.069 C  
HETATM    2  C   UNL     1      -7.866   6.705  70.294  1.00  0.00    -0.107 C  
HETATM    3  C   UNL     1      -7.147   6.932  71.628  1.00  0.00    -0.074 C  
HETATM    4  C   UNL     1      -9.329   7.215  70.333  1.00  0.00    -0.159 C  
HETATM    5  N   UNL     1     -10.157   6.446  71.290  1.00  0.00    -0.186 NA 
HETATM    6  H1  UNL     1     -11.119   6.782  71.316  1.00  0.00     0.000 HD 
HETATM    7  H2  UNL     1      -9.741   6.443  72.221  1.00  0.00     0.000 HD 
ENDROOT
BRANCH   4   8
HETATM    8  C   UNL     1      -9.954   7.211  68.923  1.00  0.00    -0.163 C  
HETATM    9  O   UNL     1     -10.968   6.596  68.615  1.00  0.00    -0.260 OA 
BRANCH   8  10
HETATM   10  O   UNL     1      -9.196   7.921  68.035  1.00  0.00    -0.132 OA 
BRANCH  10  11
HETATM   11  C   UNL     1      -9.290   9.354  68.124  1.00  0.00    -0.133 C  
BRANCH  11  12
HETATM   12  C   UNL     1      -8.327  10.006  67.119  1.00  0.00    -0.121 C  
BRANCH  12  13
HETATM   13  O   UNL     1      -8.510  11.436  67.002  1.00  0.00    -0.147 OA 
BRANCH  13  14
HETATM   14  C   UNL     1      -9.852  11.850  67.254  1.00  0.00    -0.187 C  
BRANCH  14  15
HETATM   15  N   UNL     1     -10.271  12.755  66.208  1.00  0.00    -0.249 NA 
HETATM   16  C   UNL     1     -10.889  12.379  65.039  1.00  0.00    -0.295 A  
HETATM   17  N   UNL     1     -11.278  13.419  64.325  1.00  0.00    -0.383 NA 
HETATM   18  C   UNL     1     -10.900  14.517  65.066  1.00  0.00    -0.412 A  
HETATM   19  C   UNL     1     -10.278  14.109  66.220  1.00  0.00    -0.295 A  
HETATM   20  N   UNL     1      -9.826  14.975  67.133  1.00  0.00    -0.231 NA 
HETATM   21  C   UNL     1     -10.037  16.307  66.877  1.00  0.00    -0.278 C  
HETATM   22  N   UNL     1      -9.612  17.122  67.873  1.00  0.00    -0.260 NA 
HETATM   23  N   UNL     1     -10.613  16.805  65.821  1.00  0.00    -0.309 N  
HETATM   24  H2  UNL     1      -9.178  16.779  68.730  1.00  0.00     0.000 HD 
HETATM   25  H1  UNL     1      -9.768  18.112  67.683  1.00  0.00     0.000 HD 
HETATM   26  H   UNL     1     -10.721  17.814  65.729  1.00  0.00     0.000 HD 
HETATM   27  C   UNL     1     -11.085  15.955  64.813  1.00  0.00    -0.384 C  
HETATM   28  O   UNL     1     -11.621  16.377  63.795  1.00  0.00    -1.055 OA 
ENDBRANCH  14  15
ENDBRANCH  13  14
ENDBRANCH  12  13
BRANCH  12  29
HETATM   29  C   UNL     1      -8.525   9.400  65.721  1.00  0.00    -0.132 C  
HETATM   30  O   UNL     1      -9.860   8.904  65.605  1.00  0.00    -0.469 OA 
HETATM   31  H   UNL     1      -9.983   8.529  64.741  1.00  0.00     0.000 HD 
ENDBRANCH  12  29
ENDBRANCH  11  12
ENDBRANCH  10  11
ENDBRANCH   8  10
ENDBRANCH   4   8
TORSDOF 8
ENDMDL
MODEL      231
REMARK 921   NORMALIZED FREE ENERGY PREDICTED BY IDOCK:   -4.23 KCAL/MOL
REMARK 922        TOTAL FREE ENERGY PREDICTED BY IDOCK:   -7.42 KCAL/MOL
REMARK 923 INTER-LIGAND FREE ENERGY PREDICTED BY IDOCK:   -6.87 KCAL/MOL
REMARK 924 INTRA-LIGAND FREE ENERGY PREDICTED BY IDOCK:   -0.55 KCAL/MOL
REMARK 927      BINDING AFFINITY PREDICTED BY RF-SCORE:    0.00 PKD
ROOT
HETATM    1  C   UNL     1      -9.417  14.062  67.918  1.00  0.00    -0.210 C  
HETATM    2  C   UNL     1     -10.353  12.942  67.446  1.00  0.00    -0.233 C  
HETATM    3  C   UNL     1     -10.303  12.833  65.919  1.00  0.00    -0.298 C  
HETATM    4  C   UNL     1     -11.804  13.105  67.966  1.00  0.00    -0.358 C  
HETATM    5  N   UNL     1     -12.410  14.381  67.524  1.00  0.00    -0.600 NA 
HETATM    6  H1  UNL     1     -13.365  14.488  67.866  1.00  0.00     0.000 HD 
HETATM    7  H2  UNL     1     -12.367  14.481  66.510  1.00  0.00     0.000 HD 
ENDROOT
BRANCH   4   8
HETATM    8  C   UNL     1     -11.861  12.959  69.501  1.00  0.00    -0.320 C  
HETATM    9  O   UNL     1     -12.278  13.822  70.264  1.00  0.00    -0.326 OA 
BRANCH   8  10
HETATM   10  O   UNL     1     -11.321  11.774  69.914  1.00  0.00    -0.226 OA 
BRANCH  10  11
HETATM   11  C   UNL     1     -12.202  10.637  69.904  1.00  0.00    -0.275 C  
BRANCH  11  12
HETATM   12  C   UNL     1     -12.124   9.901  71.251  1.00  0.00    -0.394 C  
BRANCH  12  13
HETATM   13  O   UNL     1     -11.233   8.762  71.226  1.00  0.00    -0.249 OA 
BRANCH  13  14
HETATM   14  C   UNL     1      -9.901   9.085  71.621  1.00  0.00    -0.296 C  
BRANCH  14  15
HETATM   15  N   UNL     1      -9.016   8.902  70.493  1.00  0.00    -0.174 NA 
HETATM   16  C   UNL     1      -7.671   9.186  70.490  1.00  0.00    -0.134 A  
HETATM   17  N   UNL     1      -7.083   8.801  69.373  1.00  0.00    -0.056 NA 
HETATM   18  C   UNL     1      -8.091   8.238  68.621  1.00  0.00    -0.120 A  
HETATM   19  C   UNL     1      -9.277   8.304  69.307  1.00  0.00    -0.151 A  
HETATM   20  N   UNL     1     -10.418   7.810  68.813  1.00  0.00    -0.202 NA 
HETATM   21  C   UNL     1     -10.344   7.203  67.583  1.00  0.00    -0.215 C  
HETATM   22  N   UNL     1     -11.522   6.669  67.174  1.00  0.00    -0.746 NA 
HETATM   23  N   UNL     1      -9.277   7.083  66.848  1.00  0.00    -0.144 N  
HETATM   24  H2  UNL     1     -12.378   6.714  67.725  1.00  0.00     0.000 HD 
HETATM   25  H1  UNL     1     -11.468   6.219  66.260  1.00  0.00     0.000 HD 
HETATM   26  H   UNL     1      -9.331   6.611  65.945  1.00  0.00     0.000 HD 
HETATM   27  C   UNL     1      -8.055   7.602  67.293  1.00  0.00    -0.119 C  
HETATM   28  O   UNL     1      -7.028   7.527  66.631  1.00  0.00    -0.070 OA 
ENDBRANCH  14  15
ENDBRANCH  13  14
ENDBRANCH  12  13
BRANCH  12  29
HETATM   29  C   UNL     1     -13.514   9.390  71.660  1.00  0.00    -0.394 C  
HETATM   30  O   UNL     1     -13.767   8.140  71.016  1.00  0.00    -0.556 OA 
HETATM   31  H   UNL     1     -14.627   7.824  71.268  1.00  0.00     0.000 HD 
ENDBRANCH  12  29
ENDBRANCH  11  12
ENDBRANCH  10  11
ENDBRANCH   8  10
ENDBRANCH   4   8
TORSDOF 8
ENDMDL
MODEL      232
REMARK 921   NORMALIZED FREE ENERGY PREDICTED BY IDOCK:   -4.22 KCAL/MOL
REMARK 922        TOTAL FREE ENERGY PREDICTED BY IDOCK:   -7.41 KCAL/MOL
REMARK 923 INTER-LIGAND FREE ENERGY PREDICTED BY IDOCK:   -6.20 KCAL/MOL
REMARK 924 INTRA-LIGAND FREE ENERGY PREDICTED BY IDOCK:   -1.21 KCAL/MOL
REMARK 927      BINDING AFFINITY PREDICTED BY RF-SCORE:    0.00 PKD
ROOT
HETATM    1  C   UNL     1      -6.946   8.628  67.841  1.00  0.00    -0.078 C  
HETATM    2  C   UNL     1      -7.757   7.390  67.439  1.00  0.00    -0.114 C  
HETATM    3  C   UNL     1      -6.808   6.255  67.041  1.00  0.00    -0.062 C  
HETATM    4  C   UNL     1      -8.803   7.682  66.334  1.00  0.00    -0.156 C  
HETATM    5  N   UNL     1      -8.173   8.198  65.098  1.00  0.00    -0.149 NA 
HETATM    6  H1  UNL     1      -8.862   8.389  64.371  1.00  0.00     0.000 HD 
HETATM    7  H2  UNL     1      -7.446   7.567  64.762  1.00  0.00     0.000 HD 
ENDROOT
BRANCH   4   8
HETATM    8  C   UNL     1      -9.897   8.641  66.847  1.00  0.00    -0.238 C  
HETATM    9  O   UNL     1     -10.762   8.336  67.659  1.00  0.00    -0.219 OA 
BRANCH   8  10
HETATM   10  O   UNL     1      -9.830   9.858  66.228  1.00  0.00    -0.212 OA 
BRANCH  10  11
HETATM   11  C   UNL     1     -11.084  10.529  66.009  1.00  0.00     0.311 C  
BRANCH  11  12
HETATM   12  C   UNL     1     -10.831  11.980  65.567  1.00  0.00    -0.292 C  
BRANCH  12  13
HETATM   13  O   UNL     1     -11.344  12.956  66.504  1.00  0.00    -0.291 OA 
BRANCH  13  14
HETATM   14  C   UNL     1     -10.439  13.236  67.570  1.00  0.00    -0.235 C  
BRANCH  14  15
HETATM   15  N   UNL     1     -11.183  13.351  68.804  1.00  0.00    -0.261 NA 
HETATM   16  C   UNL     1     -11.856  14.476  69.218  1.00  0.00    -0.323 A  
HETATM   17  N   UNL     1     -12.556  14.260  70.316  1.00  0.00    -0.350 NA 
HETATM   18  C   UNL     1     -12.331  12.936  70.624  1.00  0.00    -0.302 A  
HETATM   19  C   UNL     1     -11.485  12.380  69.697  1.00  0.00    -0.194 A  
HETATM   20  N   UNL     1     -11.114  11.096  69.748  1.00  0.00    -0.236 NA 
HETATM   21  C   UNL     1     -11.644  10.341  70.765  1.00  0.00    -0.355 C  
HETATM   22  N   UNL     1     -11.277   9.037  70.717  1.00  0.00    -0.263 NA 
HETATM   23  N   UNL     1     -12.452  10.762  71.694  1.00  0.00    -0.330 N  
HETATM   24  H2  UNL     1     -10.667   8.653  69.994  1.00  0.00     0.000 HD 
HETATM   25  H1  UNL     1     -11.670   8.476  71.472  1.00  0.00     0.000 HD 
HETATM   26  H   UNL     1     -12.790  10.116  72.406  1.00  0.00     0.000 HD 
HETATM   27  C   UNL     1     -12.859  12.102  71.716  1.00  0.00    -0.262 C  
HETATM   28  O   UNL     1     -13.607  12.549  72.578  1.00  0.00    -0.453 OA 
ENDBRANCH  14  15
ENDBRANCH  13  14
ENDBRANCH  12  13
BRANCH  12  29
HETATM   29  C   UNL     1     -11.501  12.247  64.211  1.00  0.00    -0.362 C  
HETATM   30  O   UNL     1     -11.215  11.167  63.319  1.00  0.00    -0.775 OA 
HETATM   31  H   UNL     1     -11.629  11.333  62.481  1.00  0.00     0.000 HD 
ENDBRANCH  12  29
ENDBRANCH  11  12
ENDBRANCH  10  11
ENDBRANCH   8  10
ENDBRANCH   4   8
TORSDOF 8
ENDMDL
MODEL      233
REMARK 921   NORMALIZED FREE ENERGY PREDICTED BY IDOCK:   -4.22 KCAL/MOL
REMARK 922        TOTAL FREE ENERGY PREDICTED BY IDOCK:   -7.40 KCAL/MOL
REMARK 923 INTER-LIGAND FREE ENERGY PREDICTED BY IDOCK:   -6.71 KCAL/MOL
REMARK 924 INTRA-LIGAND FREE ENERGY PREDICTED BY IDOCK:   -0.70 KCAL/MOL
REMARK 927      BINDING AFFINITY PREDICTED BY RF-SCORE:    0.00 PKD
ROOT
HETATM    1  C   UNL     1      -6.375   5.399  65.073  1.00  0.00    -0.034 C  
HETATM    2  C   UNL     1      -7.788   5.355  65.669  1.00  0.00    -0.100 C  
HETATM    3  C   UNL     1      -8.659   4.384  64.865  1.00  0.00    -0.130 C  
HETATM    4  C   UNL     1      -8.441   6.755  65.787  1.00  0.00    -0.147 C  
HETATM    5  N   UNL     1      -8.554   7.425  64.472  1.00  0.00    -0.353 NA 
HETATM    6  H1  UNL     1      -8.984   8.346  64.550  1.00  0.00     0.000 HD 
HETATM    7  H2  UNL     1      -9.050   6.841  63.799  1.00  0.00     0.000 HD 
ENDROOT
BRANCH   4   8
HETATM    8  C   UNL     1      -7.682   7.636  66.801  1.00  0.00    -0.102 C  
HETATM    9  O   UNL     1      -7.251   7.240  67.878  1.00  0.00    -0.085 OA 
BRANCH   8  10
HETATM   10  O   UNL     1      -7.611   8.935  66.384  1.00  0.00    -0.090 OA 
BRANCH  10  11
HETATM   11  C   UNL     1      -8.288   9.903  67.206  1.00  0.00    -0.121 C  
BRANCH  11  12
HETATM   12  C   UNL     1      -9.796   9.609  67.226  1.00  0.00    -0.175 C  
BRANCH  12  13
HETATM   13  O   UNL     1     -10.571  10.565  66.466  1.00  0.00    -0.231 OA 
BRANCH  13  14
HETATM   14  C   UNL     1      -9.986  10.881  65.204  1.00  0.00    -0.284 C  
BRANCH  14  15
HETATM   15  N   UNL     1     -10.675  12.018  64.636  1.00  0.00    -0.294 NA 
HETATM   16  C   UNL     1     -11.704  11.944  63.726  1.00  0.00    -0.457 A  
HETATM   17  N   UNL     1     -12.233  13.127  63.477  1.00  0.00    -0.701 NA 
HETATM   18  C   UNL     1     -11.519  14.005  64.262  1.00  0.00    -0.297 A  
HETATM   19  C   UNL     1     -10.561  13.324  64.970  1.00  0.00    -0.346 A  
HETATM   20  N   UNL     1      -9.736  13.935  65.828  1.00  0.00    -0.217 NA 
HETATM   21  C   UNL     1      -9.910  15.287  65.992  1.00  0.00    -0.328 C  
HETATM   22  N   UNL     1      -9.085  15.828  66.923  1.00  0.00    -0.220 NA 
HETATM   23  N   UNL     1     -10.783  16.030  65.377  1.00  0.00    -0.393 N  
HETATM   24  H2  UNL     1      -8.403  15.283  67.450  1.00  0.00     0.000 HD 
HETATM   25  H1  UNL     1      -9.213  16.833  67.045  1.00  0.00     0.000 HD 
HETATM   26  H   UNL     1     -10.829  17.030  65.573  1.00  0.00     0.000 HD 
HETATM   27  C   UNL     1     -11.658  15.459  64.445  1.00  0.00    -0.264 C  
HETATM   28  O   UNL     1     -12.488  16.120  63.830  1.00  0.00    -0.824 OA 
ENDBRANCH  14  15
ENDBRANCH  13  14
ENDBRANCH  12  13
BRANCH  12  29
HETATM   29  C   UNL     1     -10.323   9.633  68.669  1.00  0.00    -0.203 C  
HETATM   30  O   UNL     1      -9.892  10.834  69.313  1.00  0.00    -0.307 OA 
HETATM   31  H   UNL     1     -10.217  10.848  70.205  1.00  0.00     0.000 HD 
ENDBRANCH  12  29
ENDBRANCH  11  12
ENDBRANCH  10  11
ENDBRANCH   8  10
ENDBRANCH   4   8
TORSDOF 8
ENDMDL
MODEL      234
REMARK 921   NORMALIZED FREE ENERGY PREDICTED BY IDOCK:   -4.21 KCAL/MOL
REMARK 922        TOTAL FREE ENERGY PREDICTED BY IDOCK:   -7.40 KCAL/MOL
REMARK 923 INTER-LIGAND FREE ENERGY PREDICTED BY IDOCK:   -6.62 KCAL/MOL
REMARK 924 INTRA-LIGAND FREE ENERGY PREDICTED BY IDOCK:   -0.78 KCAL/MOL
REMARK 927      BINDING AFFINITY PREDICTED BY RF-SCORE:    0.00 PKD
ROOT
HETATM    1  C   UNL     1     -10.304  10.899  63.986  1.00  0.00    -0.417 C  
HETATM    2  C   UNL     1     -11.428  11.739  64.605  1.00  0.00    -0.303 C  
HETATM    3  C   UNL     1     -12.419  12.161  63.516  1.00  0.00    -0.666 C  
HETATM    4  C   UNL     1     -10.904  12.955  65.411  1.00  0.00    -0.283 C  
HETATM    5  N   UNL     1     -10.101  13.871  64.571  1.00  0.00    -0.718 NA 
HETATM    6  H1  UNL     1      -9.757  14.671  65.102  1.00  0.00     0.000 HD 
HETATM    7  H2  UNL     1     -10.621  14.170  63.746  1.00  0.00     0.000 HD 
ENDROOT
BRANCH   4   8
HETATM    8  C   UNL     1     -10.113  12.496  66.653  1.00  0.00    -0.230 C  
HETATM    9  O   UNL     1      -8.901  12.611  66.786  1.00  0.00    -0.211 OA 
BRANCH   8  10
HETATM   10  O   UNL     1     -10.922  11.875  67.564  1.00  0.00    -0.222 OA 
BRANCH  10  11
HETATM   11  C   UNL     1     -10.564  10.526  67.915  1.00  0.00    -0.232 C  
BRANCH  11  12
HETATM   12  C   UNL     1     -10.383  10.411  69.437  1.00  0.00    -0.237 C  
BRANCH  12  13
HETATM   13  O   UNL     1     -10.027   9.077  69.868  1.00  0.00    -0.179 OA 
BRANCH  13  14
HETATM   14  C   UNL     1     -10.813   8.062  69.248  1.00  0.00    -0.059 C  
BRANCH  14  15
HETATM   15  N   UNL     1     -10.126   6.795  69.365  1.00  0.00    -0.167 NA 
HETATM   16  C   UNL     1      -9.157   6.340  68.503  1.00  0.00    -0.125 A  
HETATM   17  N   UNL     1      -8.608   5.215  68.920  1.00  0.00    -0.090 NA 
HETATM   18  C   UNL     1      -9.246   4.930  70.107  1.00  0.00    -0.130 A  
HETATM   19  C   UNL     1     -10.181   5.899  70.378  1.00  0.00    -0.213 A  
HETATM   20  N   UNL     1     -10.933   5.877  71.483  1.00  0.00    -0.267 NA 
HETATM   21  C   UNL     1     -10.710   4.845  72.361  1.00  0.00    -0.175 C  
HETATM   22  N   UNL     1     -11.460   4.923  73.488  1.00  0.00    -0.436 NA 
HETATM   23  N   UNL     1      -9.853   3.878  72.207  1.00  0.00    -0.154 N  
HETATM   24  H2  UNL     1     -12.126   5.675  73.666  1.00  0.00     0.000 HD 
HETATM   25  H1  UNL     1     -11.295   4.156  74.140  1.00  0.00     0.000 HD 
HETATM   26  H   UNL     1      -9.765   3.157  72.924  1.00  0.00     0.000 HD 
HETATM   27  C   UNL     1      -9.053   3.824  71.060  1.00  0.00    -0.112 C  
HETATM   28  O   UNL     1      -8.242   2.926  70.864  1.00  0.00    -0.052 OA 
ENDBRANCH  14  15
ENDBRANCH  13  14
ENDBRANCH  12  13
BRANCH  12  29
HETATM   29  C   UNL     1     -11.684  10.796  70.158  1.00  0.00    -0.339 C  
HETATM   30  O   UNL     1     -12.736  10.927  69.199  1.00  0.00    -0.605 OA 
HETATM   31  H   UNL     1     -13.541  11.165  69.645  1.00  0.00     0.000 HD 
ENDBRANCH  12  29
ENDBRANCH  11  12
ENDBRANCH  10  11
ENDBRANCH   8  10
ENDBRANCH   4   8
TORSDOF 8
ENDMDL
MODEL      235
REMARK 921   NORMALIZED FREE ENERGY PREDICTED BY IDOCK:   -4.19 KCAL/MOL
REMARK 922        TOTAL FREE ENERGY PREDICTED BY IDOCK:   -7.36 KCAL/MOL
REMARK 923 INTER-LIGAND FREE ENERGY PREDICTED BY IDOCK:   -6.87 KCAL/MOL
REMARK 924 INTRA-LIGAND FREE ENERGY PREDICTED BY IDOCK:   -0.49 KCAL/MOL
REMARK 927      BINDING AFFINITY PREDICTED BY RF-SCORE:    0.00 PKD
ROOT
HETATM    1  C   UNL     1     -11.177   6.779  72.033  1.00  0.00    -0.297 C  
HETATM    2  C   UNL     1     -10.289   6.380  70.847  1.00  0.00    -0.246 C  
HETATM    3  C   UNL     1     -10.114   4.859  70.819  1.00  0.00    -0.303 C  
HETATM    4  C   UNL     1      -8.927   7.119  70.833  1.00  0.00    -0.151 C  
HETATM    5  N   UNL     1      -8.143   6.854  72.061  1.00  0.00    -0.099 NA 
HETATM    6  H1  UNL     1      -7.246   7.340  72.051  1.00  0.00     0.000 HD 
HETATM    7  H2  UNL     1      -8.019   5.854  72.214  1.00  0.00     0.000 HD 
ENDROOT
BRANCH   4   8
HETATM    8  C   UNL     1      -9.120   8.633  70.608  1.00  0.00    -0.171 C  
HETATM    9  O   UNL     1      -9.312   9.449  71.501  1.00  0.00    -0.271 OA 
BRANCH   8  10
HETATM   10  O   UNL     1      -9.125   8.946  69.277  1.00  0.00    -0.142 OA 
BRANCH  10  11
HETATM   11  C   UNL     1     -10.124   9.891  68.852  1.00  0.00    -0.184 C  
BRANCH  11  12
HETATM   12  C   UNL     1      -9.800  10.394  67.436  1.00  0.00    -0.178 C  
BRANCH  12  13
HETATM   13  O   UNL     1     -10.114  11.792  67.244  1.00  0.00    -0.191 OA 
BRANCH  13  14
HETATM   14  C   UNL     1      -8.964  12.592  66.977  1.00  0.00    -0.211 C  
BRANCH  14  15
HETATM   15  N   UNL     1      -9.208  13.940  67.441  1.00  0.00    -0.214 NA 
HETATM   16  C   UNL     1      -8.756  14.459  68.631  1.00  0.00    -0.164 A  
HETATM   17  N   UNL     1      -9.013  15.749  68.739  1.00  0.00    -0.199 NA 
HETATM   18  C   UNL     1      -9.655  16.081  67.566  1.00  0.00    -0.222 A  
HETATM   19  C   UNL     1      -9.778  14.969  66.772  1.00  0.00    -0.241 A  
HETATM   20  N   UNL     1     -10.349  15.013  65.563  1.00  0.00    -0.343 NA 
HETATM   21  C   UNL     1     -10.788  16.242  65.134  1.00  0.00    -0.318 C  
HETATM   22  N   UNL     1     -11.295  16.224  63.877  1.00  0.00    -1.442 NA 
HETATM   23  N   UNL     1     -10.722  17.357  65.801  1.00  0.00    -0.226 N  
HETATM   24  H2  UNL     1     -11.345  15.381  63.305  1.00  0.00     0.000 HD 
HETATM   25  H1  UNL     1     -11.623  17.136  63.558  1.00  0.00     0.000 HD 
HETATM   26  H   UNL     1     -11.079  18.219  65.388  1.00  0.00     0.000 HD 
HETATM   27  C   UNL     1     -10.162  17.376  67.084  1.00  0.00    -0.323 C  
HETATM   28  O   UNL     1     -10.090  18.399  67.755  1.00  0.00    -0.322 OA 
ENDBRANCH  14  15
ENDBRANCH  13  14
ENDBRANCH  12  13
BRANCH  12  29
HETATM   29  C   UNL     1     -10.596   9.595  66.392  1.00  0.00    -0.027 C  
HETATM   30  O   UNL     1     -10.029   9.808  65.098  1.00  0.00    -0.379 OA 
HETATM   31  H   UNL     1     -10.521   9.314  64.453  1.00  0.00     0.000 HD 
ENDBRANCH  12  29
ENDBRANCH  11  12
ENDBRANCH  10  11
ENDBRANCH   8  10
ENDBRANCH   4   8
TORSDOF 8
ENDMDL
MODEL      236
REMARK 921   NORMALIZED FREE ENERGY PREDICTED BY IDOCK:   -4.18 KCAL/MOL
REMARK 922        TOTAL FREE ENERGY PREDICTED BY IDOCK:   -7.36 KCAL/MOL
REMARK 923 INTER-LIGAND FREE ENERGY PREDICTED BY IDOCK:   -6.56 KCAL/MOL
REMARK 924 INTRA-LIGAND FREE ENERGY PREDICTED BY IDOCK:   -0.80 KCAL/MOL
REMARK 927      BINDING AFFINITY PREDICTED BY RF-SCORE:    0.00 PKD
ROOT
HETATM    1  C   UNL     1     -10.868   8.823  71.894  1.00  0.00    -0.431 C  
HETATM    2  C   UNL     1     -11.944   8.026  71.147  1.00  0.00    -0.297 C  
HETATM    3  C   UNL     1     -13.335   8.482  71.598  1.00  0.00    -0.372 C  
HETATM    4  C   UNL     1     -11.767   6.492  71.283  1.00  0.00    -0.331 C  
HETATM    5  N   UNL     1     -11.816   6.054  72.696  1.00  0.00    -0.520 NA 
HETATM    6  H1  UNL     1     -11.700   5.044  72.785  1.00  0.00     0.000 HD 
HETATM    7  H2  UNL     1     -12.671   6.369  73.153  1.00  0.00     0.000 HD 
ENDROOT
BRANCH   4   8
HETATM    8  C   UNL     1     -10.469   6.022  70.595  1.00  0.00    -0.246 C  
HETATM    9  O   UNL     1      -9.344   6.175  71.057  1.00  0.00    -0.162 OA 
BRANCH   8  10
HETATM   10  O   UNL     1     -10.719   5.474  69.369  1.00  0.00    -0.295 OA 
BRANCH  10  11
HETATM   11  C   UNL     1     -11.116   6.392  68.333  1.00  0.00    -0.285 C  
BRANCH  11  12
HETATM   12  C   UNL     1     -10.008   7.431  68.102  1.00  0.00    -0.166 C  
BRANCH  12  13
HETATM   13  O   UNL     1     -10.458   8.584  67.353  1.00  0.00    -0.262 OA 
BRANCH  13  14
HETATM   14  C   UNL     1      -9.540   9.674  67.399  1.00  0.00    -0.148 C  
BRANCH  14  15
HETATM   15  N   UNL     1     -10.281  10.914  67.462  1.00  0.00    -0.184 NA 
HETATM   16  C   UNL     1     -11.626  11.017  67.727  1.00  0.00    -0.194 A  
HETATM   17  N   UNL     1     -12.014  12.272  67.853  1.00  0.00    -0.480 NA 
HETATM   18  C   UNL     1     -10.869  13.015  67.667  1.00  0.00    -0.239 A  
HETATM   19  C   UNL     1      -9.806  12.180  67.423  1.00  0.00    -0.189 A  
HETATM   20  N   UNL     1      -8.566  12.641  67.225  1.00  0.00    -0.188 NA 
HETATM   21  C   UNL     1      -8.394  14.001  67.303  1.00  0.00    -0.194 C  
HETATM   22  N   UNL     1      -7.104  14.391  67.157  1.00  0.00    -0.373 NA 
HETATM   23  N   UNL     1      -9.326  14.882  67.529  1.00  0.00    -0.190 N  
HETATM   24  H2  UNL     1      -6.336  13.737  67.005  1.00  0.00     0.000 HD 
HETATM   25  H1  UNL     1      -6.976  15.401  67.215  1.00  0.00     0.000 HD 
HETATM   26  H   UNL     1      -9.090  15.873  67.568  1.00  0.00     0.000 HD 
HETATM   27  C   UNL     1     -10.651  14.470  67.717  1.00  0.00    -0.250 C  
HETATM   28  O   UNL     1     -11.564  15.262  67.918  1.00  0.00    -0.339 OA 
ENDBRANCH  14  15
ENDBRANCH  13  14
ENDBRANCH  12  13
BRANCH  12  29
HETATM   29  C   UNL     1      -8.843   6.803  67.323  1.00  0.00    -0.118 C  
HETATM   30  O   UNL     1      -7.938   6.184  68.240  1.00  0.00    -0.105 OA 
HETATM   31  H   UNL     1      -7.218   5.795  67.758  1.00  0.00     0.000 HD 
ENDBRANCH  12  29
ENDBRANCH  11  12
ENDBRANCH  10  11
ENDBRANCH   8  10
ENDBRANCH   4   8
TORSDOF 8
ENDMDL
MODEL      237
REMARK 921   NORMALIZED FREE ENERGY PREDICTED BY IDOCK:   -4.17 KCAL/MOL
REMARK 922        TOTAL FREE ENERGY PREDICTED BY IDOCK:   -7.34 KCAL/MOL
REMARK 923 INTER-LIGAND FREE ENERGY PREDICTED BY IDOCK:   -7.16 KCAL/MOL
REMARK 924 INTRA-LIGAND FREE ENERGY PREDICTED BY IDOCK:   -0.18 KCAL/MOL
REMARK 927      BINDING AFFINITY PREDICTED BY RF-SCORE:    0.00 PKD
ROOT
HETATM    1  C   UNL     1     -11.592  15.457  72.891  1.00  0.00    -0.419 C  
HETATM    2  C   UNL     1     -11.743  15.036  71.424  1.00  0.00    -0.409 C  
HETATM    3  C   UNL     1     -11.381  16.210  70.508  1.00  0.00    -0.392 C  
HETATM    4  C   UNL     1     -13.145  14.461  71.098  1.00  0.00    -0.352 C  
HETATM    5  N   UNL     1     -14.221  15.439  71.374  1.00  0.00    -0.647 NA 
HETATM    6  H1  UNL     1     -15.144  15.060  71.160  1.00  0.00     0.000 HD 
HETATM    7  H2  UNL     1     -14.059  16.318  70.883  1.00  0.00     0.000 HD 
ENDROOT
BRANCH   4   8
HETATM    8  C   UNL     1     -13.387  13.135  71.849  1.00  0.00    -0.455 C  
HETATM    9  O   UNL     1     -14.346  12.917  72.580  1.00  0.00    -0.471 OA 
BRANCH   8  10
HETATM   10  O   UNL     1     -12.361  12.254  71.656  1.00  0.00    -0.022 OA 
BRANCH  10  11
HETATM   11  C   UNL     1     -12.706  11.003  71.035  1.00  0.00    -0.386 C  
BRANCH  11  12
HETATM   12  C   UNL     1     -11.788   9.886  71.559  1.00  0.00    -0.365 C  
BRANCH  12  13
HETATM   13  O   UNL     1     -11.112   9.166  70.503  1.00  0.00    -0.242 OA 
BRANCH  13  14
HETATM   14  C   UNL     1     -10.429   8.003  70.969  1.00  0.00    -0.203 C  
BRANCH  14  15
HETATM   15  N   UNL     1      -9.810   7.337  69.845  1.00  0.00    -0.177 NA 
HETATM   16  C   UNL     1      -9.302   6.060  69.866  1.00  0.00    -0.148 A  
HETATM   17  N   UNL     1      -8.915   5.659  68.670  1.00  0.00    -0.111 NA 
HETATM   18  C   UNL     1      -9.189   6.720  67.836  1.00  0.00    -0.112 A  
HETATM   19  C   UNL     1      -9.734   7.752  68.559  1.00  0.00    -0.160 A  
HETATM   20  N   UNL     1     -10.113   8.902  67.990  1.00  0.00    -0.186 NA 
HETATM   21  C   UNL     1      -9.954   8.998  66.629  1.00  0.00    -0.278 C  
HETATM   22  N   UNL     1     -10.417  10.162  66.113  1.00  0.00    -0.154 NA 
HETATM   23  N   UNL     1      -9.451   8.086  65.848  1.00  0.00    -0.425 N  
HETATM   24  H2  UNL     1     -10.843  10.896  66.680  1.00  0.00     0.000 HD 
HETATM   25  H1  UNL     1     -10.300  10.234  65.102  1.00  0.00     0.000 HD 
HETATM   26  H   UNL     1      -9.379   8.259  64.846  1.00  0.00     0.000 HD 
HETATM   27  C   UNL     1      -9.010   6.869  66.382  1.00  0.00    -0.153 C  
HETATM   28  O   UNL     1      -8.517   5.987  65.690  1.00  0.00    -0.142 OA 
ENDBRANCH  14  15
ENDBRANCH  13  14
ENDBRANCH  12  13
BRANCH  12  29
HETATM   29  C   UNL     1     -12.601   8.864  72.367  1.00  0.00    -0.353 C  
HETATM   30  O   UNL     1     -13.925   8.783  71.835  1.00  0.00    -0.403 OA 
HETATM   31  H   UNL     1     -14.428   8.151  72.335  1.00  0.00     0.000 HD 
ENDBRANCH  12  29
ENDBRANCH  11  12
ENDBRANCH  10  11
ENDBRANCH   8  10
ENDBRANCH   4   8
TORSDOF 8
ENDMDL
MODEL      238
REMARK 921   NORMALIZED FREE ENERGY PREDICTED BY IDOCK:   -4.17 KCAL/MOL
REMARK 922        TOTAL FREE ENERGY PREDICTED BY IDOCK:   -7.33 KCAL/MOL
REMARK 923 INTER-LIGAND FREE ENERGY PREDICTED BY IDOCK:   -7.14 KCAL/MOL
REMARK 924 INTRA-LIGAND FREE ENERGY PREDICTED BY IDOCK:   -0.19 KCAL/MOL
REMARK 927      BINDING AFFINITY PREDICTED BY RF-SCORE:    0.00 PKD
ROOT
HETATM    1  C   UNL     1     -11.255   5.263  72.922  1.00  0.00    -0.375 C  
HETATM    2  C   UNL     1     -10.724   5.678  71.545  1.00  0.00    -0.306 C  
HETATM    3  C   UNL     1      -9.972   4.507  70.904  1.00  0.00    -0.263 C  
HETATM    4  C   UNL     1      -9.860   6.964  71.590  1.00  0.00    -0.168 C  
HETATM    5  N   UNL     1      -8.681   6.807  72.471  1.00  0.00    -0.123 NA 
HETATM    6  H1  UNL     1      -8.113   7.653  72.501  1.00  0.00     0.000 HD 
HETATM    7  H2  UNL     1      -8.124   5.996  72.205  1.00  0.00     0.000 HD 
ENDROOT
BRANCH   4   8
HETATM    8  C   UNL     1     -10.707   8.186  71.999  1.00  0.00    -0.278 C  
HETATM    9  O   UNL     1     -11.548   8.180  72.890  1.00  0.00    -0.386 OA 
BRANCH   8  10
HETATM   10  O   UNL     1     -10.457   9.263  71.196  1.00  0.00    -0.282 OA 
BRANCH  10  11
HETATM   11  C   UNL     1     -11.246   9.357  69.996  1.00  0.00    -0.190 C  
BRANCH  11  12
HETATM   12  C   UNL     1     -10.371   9.846  68.831  1.00  0.00    -0.205 C  
BRANCH  12  13
HETATM   13  O   UNL     1     -10.742  11.160  68.354  1.00  0.00    -0.176 OA 
BRANCH  13  14
HETATM   14  C   UNL     1     -11.273  11.145  67.031  1.00  0.00    -0.219 C  
BRANCH  14  15
HETATM   15  N   UNL     1     -11.243  12.488  66.495  1.00  0.00    -0.291 NA 
HETATM   16  C   UNL     1     -12.332  13.164  65.998  1.00  0.00    -0.359 A  
HETATM   17  N   UNL     1     -12.045  14.416  65.696  1.00  0.00    -0.374 NA 
HETATM   18  C   UNL     1     -10.713  14.559  66.016  1.00  0.00    -0.305 A  
HETATM   19  C   UNL     1     -10.220  13.374  66.502  1.00  0.00    -0.282 A  
HETATM   20  N   UNL     1      -8.953  13.239  66.907  1.00  0.00    -0.225 NA 
HETATM   21  C   UNL     1      -8.161  14.359  66.840  1.00  0.00    -0.016 C  
HETATM   22  N   UNL     1      -6.911  14.166  67.326  1.00  0.00    -0.406 NA 
HETATM   23  N   UNL     1      -8.523  15.529  66.399  1.00  0.00    -0.383 N  
HETATM   24  H2  UNL     1      -6.589  13.276  67.705  1.00  0.00     0.000 HD 
HETATM   25  H1  UNL     1      -6.323  14.998  67.276  1.00  0.00     0.000 HD 
HETATM   26  H   UNL     1      -7.854  16.299  66.393  1.00  0.00     0.000 HD 
HETATM   27  C   UNL     1      -9.828  15.733  65.934  1.00  0.00    -0.349 C  
HETATM   28  O   UNL     1     -10.210  16.812  65.497  1.00  0.00    -0.567 OA 
ENDBRANCH  14  15
ENDBRANCH  13  14
ENDBRANCH  12  13
BRANCH  12  29
HETATM   29  C   UNL     1     -10.478   8.878  67.643  1.00  0.00    -0.255 C  
HETATM   30  O   UNL     1     -10.697   7.552  68.129  1.00  0.00    -0.353 OA 
HETATM   31  H   UNL     1     -10.763   6.954  67.395  1.00  0.00     0.000 HD 
ENDBRANCH  12  29
ENDBRANCH  11  12
ENDBRANCH  10  11
ENDBRANCH   8  10
ENDBRANCH   4   8
TORSDOF 8
ENDMDL
MODEL      239
REMARK 921   NORMALIZED FREE ENERGY PREDICTED BY IDOCK:   -4.16 KCAL/MOL
REMARK 922        TOTAL FREE ENERGY PREDICTED BY IDOCK:   -7.32 KCAL/MOL
REMARK 923 INTER-LIGAND FREE ENERGY PREDICTED BY IDOCK:   -6.31 KCAL/MOL
REMARK 924 INTRA-LIGAND FREE ENERGY PREDICTED BY IDOCK:   -1.02 KCAL/MOL
REMARK 927      BINDING AFFINITY PREDICTED BY RF-SCORE:    0.00 PKD
ROOT
HETATM    1  C   UNL     1     -11.829  12.291  66.521  1.00  0.00    -0.378 C  
HETATM    2  C   UNL     1     -11.303  11.526  67.741  1.00  0.00    -0.364 C  
HETATM    3  C   UNL     1     -11.365  12.423  68.982  1.00  0.00    -0.336 C  
HETATM    4  C   UNL     1      -9.887  10.937  67.525  1.00  0.00    -0.168 C  
HETATM    5  N   UNL     1      -8.891  11.989  67.221  1.00  0.00    -0.175 NA 
HETATM    6  H1  UNL     1      -7.959  11.601  67.078  1.00  0.00     0.000 HD 
HETATM    7  H2  UNL     1      -8.885  12.713  67.939  1.00  0.00     0.000 HD 
ENDROOT
BRANCH   4   8
HETATM    8  C   UNL     1      -9.901   9.847  66.433  1.00  0.00    -0.227 C  
HETATM    9  O   UNL     1      -9.422   9.980  65.313  1.00  0.00    -0.219 OA 
BRANCH   8  10
HETATM   10  O   UNL     1     -10.581   8.734  66.842  1.00  0.00    -0.276 OA 
BRANCH  10  11
HETATM   11  C   UNL     1      -9.795   7.545  67.035  1.00  0.00    -0.214 C  
BRANCH  11  12
HETATM   12  C   UNL     1     -10.718   6.325  67.183  1.00  0.00    -0.359 C  
BRANCH  12  13
HETATM   13  O   UNL     1     -10.648   5.715  68.493  1.00  0.00    -0.213 OA 
BRANCH  13  14
HETATM   14  C   UNL     1     -11.496   6.349  69.449  1.00  0.00    -0.305 C  
BRANCH  14  15
HETATM   15  N   UNL     1     -10.809   6.414  70.720  1.00  0.00    -0.252 NA 
HETATM   16  C   UNL     1     -10.918   5.483  71.725  1.00  0.00    -0.182 A  
HETATM   17  N   UNL     1     -10.082   5.723  72.718  1.00  0.00    -0.176 NA 
HETATM   18  C   UNL     1      -9.399   6.857  72.337  1.00  0.00    -0.136 A  
HETATM   19  C   UNL     1      -9.848   7.283  71.112  1.00  0.00    -0.182 A  
HETATM   20  N   UNL     1      -9.339   8.356  70.498  1.00  0.00    -0.158 NA 
HETATM   21  C   UNL     1      -8.316   9.008  71.141  1.00  0.00    -0.159 C  
HETATM   22  N   UNL     1      -7.806  10.044  70.432  1.00  0.00    -0.399 NA 
HETATM   23  N   UNL     1      -7.813   8.692  72.299  1.00  0.00    -0.058 N  
HETATM   24  H2  UNL     1      -8.149  10.314  69.510  1.00  0.00     0.000 HD 
HETATM   25  H1  UNL     1      -7.046  10.529  70.910  1.00  0.00     0.000 HD 
HETATM   26  H   UNL     1      -7.049   9.244  72.690  1.00  0.00     0.000 HD 
HETATM   27  C   UNL     1      -8.318   7.596  73.010  1.00  0.00    -0.133 C  
HETATM   28  O   UNL     1      -7.886   7.269  74.109  1.00  0.00    -0.111 OA 
ENDBRANCH  14  15
ENDBRANCH  13  14
ENDBRANCH  12  13
BRANCH  12  29
HETATM   29  C   UNL     1     -10.344   5.247  66.154  1.00  0.00    -0.190 C  
HETATM   30  O   UNL     1     -11.535   4.722  65.563  1.00  0.00    -0.935 OA 
HETATM   31  H   UNL     1     -11.304   4.055  64.927  1.00  0.00     0.000 HD 
ENDBRANCH  12  29
ENDBRANCH  11  12
ENDBRANCH  10  11
ENDBRANCH   8  10
ENDBRANCH   4   8
TORSDOF 8
ENDMDL
MODEL      240
REMARK 921   NORMALIZED FREE ENERGY PREDICTED BY IDOCK:   -4.15 KCAL/MOL
REMARK 922        TOTAL FREE ENERGY PREDICTED BY IDOCK:   -7.31 KCAL/MOL
REMARK 923 INTER-LIGAND FREE ENERGY PREDICTED BY IDOCK:   -6.88 KCAL/MOL
REMARK 924 INTRA-LIGAND FREE ENERGY PREDICTED BY IDOCK:   -0.43 KCAL/MOL
REMARK 927      BINDING AFFINITY PREDICTED BY RF-SCORE:    0.00 PKD
ROOT
HETATM    1  C   UNL     1     -12.217  14.632  67.985  1.00  0.00    -0.089 C  
HETATM    2  C   UNL     1     -11.313  14.311  69.182  1.00  0.00    -0.312 C  
HETATM    3  C   UNL     1     -12.171  14.071  70.429  1.00  0.00    -0.433 C  
HETATM    4  C   UNL     1     -10.226  15.387  69.427  1.00  0.00    -0.262 C  
HETATM    5  N   UNL     1     -10.815  16.721  69.684  1.00  0.00    -0.376 NA 
HETATM    6  H1  UNL     1     -10.099  17.428  69.846  1.00  0.00     0.000 HD 
HETATM    7  H2  UNL     1     -11.484  16.689  70.453  1.00  0.00     0.000 HD 
ENDROOT
BRANCH   4   8
HETATM    8  C   UNL     1      -9.220  15.435  68.258  1.00  0.00    -0.188 C  
HETATM    9  O   UNL     1      -8.476  16.378  68.021  1.00  0.00    -0.177 OA 
BRANCH   8  10
HETATM   10  O   UNL     1      -9.312  14.322  67.470  1.00  0.00    -0.190 OA 
BRANCH  10  11
HETATM   11  C   UNL     1      -8.333  13.294  67.707  1.00  0.00    -0.171 C  
BRANCH  11  12
HETATM   12  C   UNL     1      -8.976  11.909  67.539  1.00  0.00    -0.171 C  
BRANCH  12  13
HETATM   13  O   UNL     1      -9.086  11.180  68.784  1.00  0.00    -0.177 OA 
BRANCH  13  14
HETATM   14  C   UNL     1     -10.410  10.716  69.044  1.00  0.00    -0.218 C  
BRANCH  14  15
HETATM   15  N   UNL     1     -10.348   9.349  69.510  1.00  0.00    -0.204 NA 
HETATM   16  C   UNL     1      -9.425   8.416  69.099  1.00  0.00    -0.155 A  
HETATM   17  N   UNL     1      -9.519   7.290  69.782  1.00  0.00    -0.150 NA 
HETATM   18  C   UNL     1     -10.544   7.504  70.677  1.00  0.00    -0.224 A  
HETATM   19  C   UNL     1     -11.055   8.767  70.507  1.00  0.00    -0.246 A  
HETATM   20  N   UNL     1     -12.051   9.243  71.262  1.00  0.00    -0.319 NA 
HETATM   21  C   UNL     1     -12.529   8.413  72.246  1.00  0.00    -0.361 C  
HETATM   22  N   UNL     1     -13.490   8.984  73.013  1.00  0.00    -0.936 NA 
HETATM   23  N   UNL     1     -12.120   7.203  72.496  1.00  0.00    -0.503 N  
HETATM   24  H2  UNL     1     -13.825   9.937  72.873  1.00  0.00     0.000 HD 
HETATM   25  H1  UNL     1     -13.846   8.367  73.744  1.00  0.00     0.000 HD 
HETATM   26  H   UNL     1     -12.544   6.669  73.255  1.00  0.00     0.000 HD 
HETATM   27  C   UNL     1     -11.100   6.633  71.725  1.00  0.00    -0.249 C  
HETATM   28  O   UNL     1     -10.692   5.493  71.913  1.00  0.00    -0.228 OA 
ENDBRANCH  14  15
ENDBRANCH  13  14
ENDBRANCH  12  13
BRANCH  12  29
HETATM   29  C   UNL     1      -8.145  11.049  66.574  1.00  0.00    -0.161 C  
HETATM   30  O   UNL     1      -8.543  11.326  65.230  1.00  0.00    -0.379 OA 
HETATM   31  H   UNL     1      -8.029  10.795  64.633  1.00  0.00     0.000 HD 
ENDBRANCH  12  29
ENDBRANCH  11  12
ENDBRANCH  10  11
ENDBRANCH   8  10
ENDBRANCH   4   8
TORSDOF 8
ENDMDL
MODEL      241
REMARK 921   NORMALIZED FREE ENERGY PREDICTED BY IDOCK:   -4.15 KCAL/MOL
REMARK 922        TOTAL FREE ENERGY PREDICTED BY IDOCK:   -7.30 KCAL/MOL
REMARK 923 INTER-LIGAND FREE ENERGY PREDICTED BY IDOCK:   -6.16 KCAL/MOL
REMARK 924 INTRA-LIGAND FREE ENERGY PREDICTED BY IDOCK:   -1.14 KCAL/MOL
REMARK 927      BINDING AFFINITY PREDICTED BY RF-SCORE:    0.00 PKD
ROOT
HETATM    1  C   UNL     1      -8.083   4.660  72.209  1.00  0.00    -0.102 C  
HETATM    2  C   UNL     1      -9.333   4.036  71.576  1.00  0.00    -0.207 C  
HETATM    3  C   UNL     1      -9.040   2.590  71.164  1.00  0.00    -0.179 C  
HETATM    4  C   UNL     1      -9.897   4.869  70.398  1.00  0.00    -0.232 C  
HETATM    5  N   UNL     1      -8.905   5.031  69.311  1.00  0.00    -0.091 NA 
HETATM    6  H1  UNL     1      -9.277   5.579  68.535  1.00  0.00     0.000 HD 
HETATM    7  H2  UNL     1      -8.555   4.128  68.991  1.00  0.00     0.000 HD 
ENDROOT
BRANCH   4   8
HETATM    8  C   UNL     1     -10.420   6.236  70.886  1.00  0.00    -0.223 C  
HETATM    9  O   UNL     1     -11.389   6.385  71.621  1.00  0.00    -0.264 OA 
BRANCH   8  10
HETATM   10  O   UNL     1      -9.714   7.270  70.339  1.00  0.00    -0.173 OA 
BRANCH  10  11
HETATM   11  C   UNL     1     -10.484   8.404  69.902  1.00  0.00    -0.222 C  
BRANCH  11  12
HETATM   12  C   UNL     1     -10.010   8.856  68.512  1.00  0.00    -0.177 C  
BRANCH  12  13
HETATM   13  O   UNL     1     -10.267  10.254  68.250  1.00  0.00    -0.149 OA 
BRANCH  13  14
HETATM   14  C   UNL     1     -11.635  10.615  68.437  1.00  0.00    -0.194 C  
BRANCH  14  15
HETATM   15  N   UNL     1     -11.723  12.044  68.637  1.00  0.00    -0.309 NA 
HETATM   16  C   UNL     1     -11.891  12.662  69.853  1.00  0.00    -0.294 A  
HETATM   17  N   UNL     1     -11.807  13.976  69.759  1.00  0.00    -0.305 NA 
HETATM   18  C   UNL     1     -11.570  14.219  68.424  1.00  0.00    -0.320 A  
HETATM   19  C   UNL     1     -11.522  13.033  67.735  1.00  0.00    -0.316 A  
HETATM   20  N   UNL     1     -11.286  12.979  66.420  1.00  0.00    -0.304 NA 
HETATM   21  C   UNL     1     -11.063  14.176  65.784  1.00  0.00    -0.309 C  
HETATM   22  N   UNL     1     -10.767  14.041  64.468  1.00  0.00    -0.578 NA 
HETATM   23  N   UNL     1     -11.083  15.354  66.336  1.00  0.00    -0.281 N  
HETATM   24  H2  UNL     1     -10.714  13.138  63.997  1.00  0.00     0.000 HD 
HETATM   25  H1  UNL     1     -10.602  14.929  63.995  1.00  0.00     0.000 HD 
HETATM   26  H   UNL     1     -10.903  16.184  65.771  1.00  0.00     0.000 HD 
HETATM   27  C   UNL     1     -11.352  15.485  67.704  1.00  0.00    -0.260 C  
HETATM   28  O   UNL     1     -11.395  16.573  68.265  1.00  0.00    -0.331 OA 
ENDBRANCH  14  15
ENDBRANCH  13  14
ENDBRANCH  12  13
BRANCH  12  29
HETATM   29  C   UNL     1     -10.720   8.044  67.418  1.00  0.00    -0.190 C  
HETATM   30  O   UNL     1     -10.099   6.762  67.300  1.00  0.00    -0.151 OA 
HETATM   31  H   UNL     1     -10.539   6.260  66.624  1.00  0.00     0.000 HD 
ENDBRANCH  12  29
ENDBRANCH  11  12
ENDBRANCH  10  11
ENDBRANCH   8  10
ENDBRANCH   4   8
TORSDOF 8
ENDMDL
MODEL      242
REMARK 921   NORMALIZED FREE ENERGY PREDICTED BY IDOCK:   -4.14 KCAL/MOL
REMARK 922        TOTAL FREE ENERGY PREDICTED BY IDOCK:   -7.29 KCAL/MOL
REMARK 923 INTER-LIGAND FREE ENERGY PREDICTED BY IDOCK:   -6.11 KCAL/MOL
REMARK 924 INTRA-LIGAND FREE ENERGY PREDICTED BY IDOCK:   -1.19 KCAL/MOL
REMARK 927      BINDING AFFINITY PREDICTED BY RF-SCORE:    0.00 PKD
ROOT
HETATM    1  C   UNL     1      -7.420   4.788  71.092  1.00  0.00    -0.072 C  
HETATM    2  C   UNL     1      -8.793   4.600  70.434  1.00  0.00    -0.137 C  
HETATM    3  C   UNL     1      -8.771   3.361  69.533  1.00  0.00    -0.129 C  
HETATM    4  C   UNL     1      -9.280   5.859  69.673  1.00  0.00    -0.136 C  
HETATM    5  N   UNL     1      -8.342   6.251  68.597  1.00  0.00    -0.112 NA 
HETATM    6  H1  UNL     1      -8.663   7.079  68.096  1.00  0.00     0.000 HD 
HETATM    7  H2  UNL     1      -8.167   5.476  67.957  1.00  0.00     0.000 HD 
ENDROOT
BRANCH   4   8
HETATM    8  C   UNL     1      -9.537   7.028  70.645  1.00  0.00    -0.165 C  
HETATM    9  O   UNL     1     -10.499   7.105  71.400  1.00  0.00    -0.205 OA 
BRANCH   8  10
HETATM   10  O   UNL     1      -8.596   8.010  70.511  1.00  0.00    -0.129 OA 
BRANCH  10  11
HETATM   11  C   UNL     1      -9.072   9.364  70.614  1.00  0.00    -0.233 C  
BRANCH  11  12
HETATM   12  C   UNL     1      -8.723  10.141  69.334  1.00  0.00    -0.176 C  
BRANCH  12  13
HETATM   13  O   UNL     1      -8.864   9.348  68.132  1.00  0.00    -0.124 OA 
BRANCH  13  14
HETATM   14  C   UNL     1     -10.206   9.300  67.649  1.00  0.00    -0.230 C  
BRANCH  14  15
HETATM   15  N   UNL     1     -10.395  10.353  66.676  1.00  0.00    -0.236 NA 
HETATM   16  C   UNL     1     -10.184  10.225  65.324  1.00  0.00    -0.238 A  
HETATM   17  N   UNL     1     -10.558  11.301  64.658  1.00  0.00    -0.326 NA 
HETATM   18  C   UNL     1     -11.038  12.162  65.621  1.00  0.00    -0.316 A  
HETATM   19  C   UNL     1     -10.933  11.580  66.860  1.00  0.00    -0.296 A  
HETATM   20  N   UNL     1     -11.346  12.194  67.974  1.00  0.00    -0.272 NA 
HETATM   21  C   UNL     1     -11.910  13.437  67.821  1.00  0.00    -0.358 C  
HETATM   22  N   UNL     1     -12.364  13.970  68.982  1.00  0.00    -0.501 NA 
HETATM   23  N   UNL     1     -12.060  14.079  66.700  1.00  0.00    -0.450 N  
HETATM   24  H2  UNL     1     -12.293  13.494  69.882  1.00  0.00     0.000 HD 
HETATM   25  H1  UNL     1     -12.782  14.893  68.869  1.00  0.00     0.000 HD 
HETATM   26  H   UNL     1     -12.495  15.002  66.696  1.00  0.00     0.000 HD 
HETATM   27  C   UNL     1     -11.625  13.507  65.498  1.00  0.00    -0.320 C  
HETATM   28  O   UNL     1     -11.731  14.078  64.420  1.00  0.00    -0.392 OA 
ENDBRANCH  14  15
ENDBRANCH  13  14
ENDBRANCH  12  13
BRANCH  12  29
HETATM   29  C   UNL     1      -7.270  10.635  69.391  1.00  0.00    -0.126 C  
HETATM   30  O   UNL     1      -6.909  10.892  70.750  1.00  0.00    -0.427 OA 
HETATM   31  H   UNL     1      -6.011  11.198  70.785  1.00  0.00     0.000 HD 
ENDBRANCH  12  29
ENDBRANCH  11  12
ENDBRANCH  10  11
ENDBRANCH   8  10
ENDBRANCH   4   8
TORSDOF 8
ENDMDL
MODEL      243
REMARK 921   NORMALIZED FREE ENERGY PREDICTED BY IDOCK:   -4.13 KCAL/MOL
REMARK 922        TOTAL FREE ENERGY PREDICTED BY IDOCK:   -7.28 KCAL/MOL
REMARK 923 INTER-LIGAND FREE ENERGY PREDICTED BY IDOCK:   -6.61 KCAL/MOL
REMARK 924 INTRA-LIGAND FREE ENERGY PREDICTED BY IDOCK:   -0.67 KCAL/MOL
REMARK 927      BINDING AFFINITY PREDICTED BY RF-SCORE:    0.00 PKD
ROOT
HETATM    1  C   UNL     1      -8.851   7.102  68.315  1.00  0.00    -0.127 C  
HETATM    2  C   UNL     1      -8.450   7.340  69.776  1.00  0.00    -0.136 C  
HETATM    3  C   UNL     1      -6.924   7.300  69.908  1.00  0.00    -0.057 C  
HETATM    4  C   UNL     1      -9.141   6.366  70.763  1.00  0.00    -0.151 C  
HETATM    5  N   UNL     1      -8.821   4.953  70.459  1.00  0.00    -0.113 NA 
HETATM    6  H1  UNL     1      -9.276   4.312  71.108  1.00  0.00     0.000 HD 
HETATM    7  H2  UNL     1      -7.814   4.798  70.431  1.00  0.00     0.000 HD 
ENDROOT
BRANCH   4   8
HETATM    8  C   UNL     1     -10.665   6.600  70.796  1.00  0.00    -0.238 C  
HETATM    9  O   UNL     1     -11.442   6.239  69.920  1.00  0.00    -0.422 OA 
BRANCH   8  10
HETATM   10  O   UNL     1     -11.039   7.328  71.891  1.00  0.00    -0.231 OA 
BRANCH  10  11
HETATM   11  C   UNL     1     -10.966   8.759  71.757  1.00  0.00    -0.345 C  
BRANCH  11  12
HETATM   12  C   UNL     1     -12.153   9.269  70.924  1.00  0.00    -0.233 C  
BRANCH  12  13
HETATM   13  O   UNL     1     -12.043  10.668  70.575  1.00  0.00    -0.294 OA 
BRANCH  13  14
HETATM   14  C   UNL     1     -11.773  10.878  69.190  1.00  0.00    -0.326 C  
BRANCH  14  15
HETATM   15  N   UNL     1     -11.330  12.241  68.997  1.00  0.00    -0.261 NA 
HETATM   16  C   UNL     1     -11.868  13.342  69.621  1.00  0.00    -0.327 A  
HETATM   17  N   UNL     1     -11.188  14.442  69.361  1.00  0.00    -0.273 NA 
HETATM   18  C   UNL     1     -10.162  14.036  68.535  1.00  0.00    -0.237 A  
HETATM   19  C   UNL     1     -10.253  12.685  68.309  1.00  0.00    -0.239 A  
HETATM   20  N   UNL     1      -9.367  12.026  67.554  1.00  0.00    -0.175 NA 
HETATM   21  C   UNL     1      -8.335  12.763  67.029  1.00  0.00    -0.120 C  
HETATM   22  N   UNL     1      -7.442  12.020  66.330  1.00  0.00    -0.347 NA 
HETATM   23  N   UNL     1      -8.151  14.043  67.179  1.00  0.00    -0.343 N  
HETATM   24  H2  UNL     1      -7.529  11.011  66.207  1.00  0.00     0.000 HD 
HETATM   25  H1  UNL     1      -6.675  12.567  65.940  1.00  0.00     0.000 HD 
HETATM   26  H   UNL     1      -7.346  14.495  66.745  1.00  0.00     0.000 HD 
HETATM   27  C   UNL     1      -9.055  14.799  67.934  1.00  0.00    -0.183 C  
HETATM   28  O   UNL     1      -8.932  16.008  68.092  1.00  0.00    -0.179 OA 
ENDBRANCH  14  15
ENDBRANCH  13  14
ENDBRANCH  12  13
BRANCH  12  29
HETATM   29  C   UNL     1     -13.465   9.091  71.705  1.00  0.00    -0.386 C  
HETATM   30  O   UNL     1     -13.170   8.901  73.090  1.00  0.00    -0.867 OA 
HETATM   31  H   UNL     1     -13.981   8.791  73.572  1.00  0.00     0.000 HD 
ENDBRANCH  12  29
ENDBRANCH  11  12
ENDBRANCH  10  11
ENDBRANCH   8  10
ENDBRANCH   4   8
TORSDOF 8
ENDMDL
MODEL      244
REMARK 921   NORMALIZED FREE ENERGY PREDICTED BY IDOCK:   -4.11 KCAL/MOL
REMARK 922        TOTAL FREE ENERGY PREDICTED BY IDOCK:   -7.25 KCAL/MOL
REMARK 923 INTER-LIGAND FREE ENERGY PREDICTED BY IDOCK:   -5.48 KCAL/MOL
REMARK 924 INTRA-LIGAND FREE ENERGY PREDICTED BY IDOCK:   -1.78 KCAL/MOL
REMARK 927      BINDING AFFINITY PREDICTED BY RF-SCORE:    0.00 PKD
ROOT
HETATM    1  C   UNL     1      -9.099   8.189  72.395  1.00  0.00    -0.281 C  
HETATM    2  C   UNL     1     -10.361   7.920  71.566  1.00  0.00    -0.243 C  
HETATM    3  C   UNL     1     -11.404   9.008  71.842  1.00  0.00    -0.438 C  
HETATM    4  C   UNL     1     -10.938   6.498  71.784  1.00  0.00    -0.247 C  
HETATM    5  N   UNL     1     -11.299   6.259  73.200  1.00  0.00    -0.468 NA 
HETATM    6  H1  UNL     1     -11.679   5.323  73.342  1.00  0.00     0.000 HD 
HETATM    7  H2  UNL     1     -11.937   6.975  73.546  1.00  0.00     0.000 HD 
ENDROOT
BRANCH   4   8
HETATM    8  C   UNL     1      -9.965   5.420  71.264  1.00  0.00    -0.193 C  
HETATM    9  O   UNL     1      -9.513   4.507  71.944  1.00  0.00    -0.135 OA 
BRANCH   8  10
HETATM   10  O   UNL     1      -9.608   5.649  69.965  1.00  0.00    -0.155 OA 
BRANCH  10  11
HETATM   11  C   UNL     1     -10.607   5.355  68.971  1.00  0.00    -0.146 C  
BRANCH  11  12
HETATM   12  C   UNL     1      -9.933   4.873  67.677  1.00  0.00    -0.141 C  
BRANCH  12  13
HETATM   13  O   UNL     1      -8.509   5.127  67.649  1.00  0.00    -0.106 OA 
BRANCH  13  14
HETATM   14  C   UNL     1      -8.161   6.269  66.870  1.00  0.00    -0.109 C  
BRANCH  14  15
HETATM   15  N   UNL     1      -7.697   7.318  67.750  1.00  0.00    -0.110 NA 
HETATM   16  C   UNL     1      -6.403   7.462  68.193  1.00  0.00    -0.048 A  
HETATM   17  N   UNL     1      -6.234   8.578  68.878  1.00  0.00    -0.044 NA 
HETATM   18  C   UNL     1      -7.470   9.186  68.873  1.00  0.00    -0.075 A  
HETATM   19  C   UNL     1      -8.369   8.410  68.184  1.00  0.00    -0.128 A  
HETATM   20  N   UNL     1      -9.643   8.775  68.010  1.00  0.00    -0.140 NA 
HETATM   21  C   UNL     1     -10.013   9.989  68.535  1.00  0.00    -0.162 C  
HETATM   22  N   UNL     1     -11.299  10.324  68.265  1.00  0.00    -0.506 NA 
HETATM   23  N   UNL     1      -9.248  10.803  69.202  1.00  0.00    -0.349 N  
HETATM   24  H2  UNL     1     -11.930   9.732  67.725  1.00  0.00     0.000 HD 
HETATM   25  H1  UNL     1     -11.575  11.226  68.655  1.00  0.00     0.000 HD 
HETATM   26  H   UNL     1      -9.624  11.685  69.550  1.00  0.00     0.000 HD 
HETATM   27  C   UNL     1      -7.910  10.469  69.445  1.00  0.00    -0.147 C  
HETATM   28  O   UNL     1      -7.155  11.196  70.079  1.00  0.00    -0.063 OA 
ENDBRANCH  14  15
ENDBRANCH  13  14
ENDBRANCH  12  13
BRANCH  12  29
HETATM   29  C   UNL     1     -10.550   5.578  66.460  1.00  0.00    -0.279 C  
HETATM   30  O   UNL     1     -11.477   6.570  66.907  1.00  0.00    -0.762 OA 
HETATM   31  H   UNL     1     -11.859   7.007  66.154  1.00  0.00     0.000 HD 
ENDBRANCH  12  29
ENDBRANCH  11  12
ENDBRANCH  10  11
ENDBRANCH   8  10
ENDBRANCH   4   8
TORSDOF 8
ENDMDL
MODEL      245
REMARK 921   NORMALIZED FREE ENERGY PREDICTED BY IDOCK:   -4.11 KCAL/MOL
REMARK 922        TOTAL FREE ENERGY PREDICTED BY IDOCK:   -7.24 KCAL/MOL
REMARK 923 INTER-LIGAND FREE ENERGY PREDICTED BY IDOCK:   -7.23 KCAL/MOL
REMARK 924 INTRA-LIGAND FREE ENERGY PREDICTED BY IDOCK:   -0.01 KCAL/MOL
REMARK 927      BINDING AFFINITY PREDICTED BY RF-SCORE:    0.00 PKD
ROOT
HETATM    1  C   UNL     1      -7.473  15.349  68.805  1.00  0.00    -0.136 C  
HETATM    2  C   UNL     1      -5.995  15.592  68.477  1.00  0.00    -0.100 C  
HETATM    3  C   UNL     1      -5.144  14.446  69.034  1.00  0.00    -0.082 C  
HETATM    4  C   UNL     1      -5.485  16.975  68.955  1.00  0.00    -0.144 C  
HETATM    5  N   UNL     1      -5.629  17.141  70.419  1.00  0.00    -0.221 NA 
HETATM    6  H1  UNL     1      -5.293  18.051  70.734  1.00  0.00     0.000 HD 
HETATM    7  H2  UNL     1      -5.171  16.382  70.925  1.00  0.00     0.000 HD 
ENDROOT
BRANCH   4   8
HETATM    8  C   UNL     1      -6.186  18.118  68.191  1.00  0.00    -0.178 C  
HETATM    9  O   UNL     1      -5.610  19.087  67.711  1.00  0.00    -0.178 OA 
BRANCH   8  10
HETATM   10  O   UNL     1      -7.543  17.955  68.177  1.00  0.00    -0.242 OA 
BRANCH  10  11
HETATM   11  C   UNL     1      -8.312  18.981  68.829  1.00  0.00    -0.329 C  
BRANCH  11  12
HETATM   12  C   UNL     1      -9.378  19.529  67.867  1.00  0.00    -0.333 C  
BRANCH  12  13
HETATM   13  O   UNL     1     -10.367  18.543  67.493  1.00  0.00    -0.367 OA 
BRANCH  13  14
HETATM   14  C   UNL     1     -10.289  17.350  68.272  1.00  0.00    -0.374 C  
BRANCH  14  15
HETATM   15  N   UNL     1     -10.752  16.235  67.477  1.00  0.00    -0.316 NA 
HETATM   16  C   UNL     1     -10.704  16.171  66.104  1.00  0.00    -0.221 A  
HETATM   17  N   UNL     1     -11.071  14.988  65.649  1.00  0.00    -0.344 NA 
HETATM   18  C   UNL     1     -11.365  14.252  66.776  1.00  0.00    -0.348 A  
HETATM   19  C   UNL     1     -11.173  15.020  67.897  1.00  0.00    -0.323 A  
HETATM   20  N   UNL     1     -11.369  14.544  69.132  1.00  0.00    -0.262 NA 
HETATM   21  C   UNL     1     -11.749  13.228  69.232  1.00  0.00    -0.326 C  
HETATM   22  N   UNL     1     -11.866  12.796  70.511  1.00  0.00    -0.531 NA 
HETATM   23  N   UNL     1     -11.959  12.411  68.240  1.00  0.00    -0.300 N  
HETATM   24  H2  UNL     1     -11.687  13.390  71.321  1.00  0.00     0.000 HD 
HETATM   25  H1  UNL     1     -12.149  11.819  70.586  1.00  0.00     0.000 HD 
HETATM   26  H   UNL     1     -12.240  11.448  68.425  1.00  0.00     0.000 HD 
HETATM   27  C   UNL     1     -11.799  12.853  66.921  1.00  0.00    -0.379 C  
HETATM   28  O   UNL     1     -11.998  12.125  65.955  1.00  0.00    -0.578 OA 
ENDBRANCH  14  15
ENDBRANCH  13  14
ENDBRANCH  12  13
BRANCH  12  29
HETATM   29  C   UNL     1      -8.718  20.032  66.573  1.00  0.00    -0.317 C  
HETATM   30  O   UNL     1      -8.733  18.989  65.596  1.00  0.00    -0.302 OA 
HETATM   31  H   UNL     1      -8.325  19.300  64.797  1.00  0.00     0.000 HD 
ENDBRANCH  12  29
ENDBRANCH  11  12
ENDBRANCH  10  11
ENDBRANCH   8  10
ENDBRANCH   4   8
TORSDOF 8
ENDMDL
MODEL      246
REMARK 921   NORMALIZED FREE ENERGY PREDICTED BY IDOCK:   -4.09 KCAL/MOL
REMARK 922        TOTAL FREE ENERGY PREDICTED BY IDOCK:   -7.23 KCAL/MOL
REMARK 923 INTER-LIGAND FREE ENERGY PREDICTED BY IDOCK:   -6.33 KCAL/MOL
REMARK 924 INTRA-LIGAND FREE ENERGY PREDICTED BY IDOCK:   -0.90 KCAL/MOL
REMARK 927      BINDING AFFINITY PREDICTED BY RF-SCORE:    0.00 PKD
ROOT
HETATM    1  C   UNL     1     -11.475   6.985  70.577  1.00  0.00    -0.363 C  
HETATM    2  C   UNL     1     -10.732   5.895  69.794  1.00  0.00    -0.411 C  
HETATM    3  C   UNL     1     -10.106   4.892  70.768  1.00  0.00    -0.303 C  
HETATM    4  C   UNL     1      -9.688   6.466  68.802  1.00  0.00    -0.128 C  
HETATM    5  N   UNL     1      -8.656   7.274  69.489  1.00  0.00    -0.134 NA 
HETATM    6  H1  UNL     1      -7.969   7.649  68.836  1.00  0.00     0.000 HD 
HETATM    7  H2  UNL     1      -8.206   6.744  70.236  1.00  0.00     0.000 HD 
ENDROOT
BRANCH   4   8
HETATM    8  C   UNL     1     -10.374   7.271  67.678  1.00  0.00    -0.227 C  
HETATM    9  O   UNL     1     -11.184   6.805  66.886  1.00  0.00    -0.375 OA 
BRANCH   8  10
HETATM   10  O   UNL     1      -9.911   8.556  67.627  1.00  0.00    -0.173 OA 
BRANCH  10  11
HETATM   11  C   UNL     1     -10.687   9.478  66.840  1.00  0.00    -0.114 C  
BRANCH  11  12
HETATM   12  C   UNL     1     -10.005  10.856  66.825  1.00  0.00    -0.205 C  
BRANCH  12  13
HETATM   13  O   UNL     1     -10.821  11.887  66.223  1.00  0.00    -0.260 OA 
BRANCH  13  14
HETATM   14  C   UNL     1     -10.307  12.350  64.975  1.00  0.00    -0.293 C  
BRANCH  14  15
HETATM   15  N   UNL     1     -10.524  13.776  64.875  1.00  0.00    -0.402 NA 
HETATM   16  C   UNL     1     -11.461  14.377  64.069  1.00  0.00     0.072 A  
HETATM   17  N   UNL     1     -11.530  15.679  64.273  1.00  0.00    -0.292 NA 
HETATM   18  C   UNL     1     -10.599  15.932  65.256  1.00  0.00    -0.419 A  
HETATM   19  C   UNL     1      -9.979  14.763  65.623  1.00  0.00    -0.360 A  
HETATM   20  N   UNL     1      -9.042  14.720  66.576  1.00  0.00    -0.272 NA 
HETATM   21  C   UNL     1      -8.742  15.906  67.200  1.00  0.00    -0.200 C  
HETATM   22  N   UNL     1      -7.833  15.776  68.197  1.00  0.00    -0.129 NA 
HETATM   23  N   UNL     1      -9.266  17.067  66.935  1.00  0.00    -0.232 N  
HETATM   24  H2  UNL     1      -7.414  14.884  68.459  1.00  0.00     0.000 HD 
HETATM   25  H1  UNL     1      -7.609  16.657  68.661  1.00  0.00     0.000 HD 
HETATM   26  H   UNL     1      -8.971  17.890  67.461  1.00  0.00     0.000 HD 
HETATM   27  C   UNL     1     -10.233  17.189  65.929  1.00  0.00    -0.276 C  
HETATM   28  O   UNL     1     -10.744  18.263  65.635  1.00  0.00    -0.546 OA 
ENDBRANCH  14  15
ENDBRANCH  13  14
ENDBRANCH  12  13
BRANCH  12  29
HETATM   29  C   UNL     1      -8.689  10.790  66.034  1.00  0.00    -0.183 C  
HETATM   30  O   UNL     1      -7.729  10.033  66.774  1.00  0.00    -0.101 OA 
HETATM   31  H   UNL     1      -6.915   9.993  66.285  1.00  0.00     0.000 HD 
ENDBRANCH  12  29
ENDBRANCH  11  12
ENDBRANCH  10  11
ENDBRANCH   8  10
ENDBRANCH   4   8
TORSDOF 8
ENDMDL
MODEL      247
REMARK 921   NORMALIZED FREE ENERGY PREDICTED BY IDOCK:   -4.09 KCAL/MOL
REMARK 922        TOTAL FREE ENERGY PREDICTED BY IDOCK:   -7.22 KCAL/MOL
REMARK 923 INTER-LIGAND FREE ENERGY PREDICTED BY IDOCK:   -6.39 KCAL/MOL
REMARK 924 INTRA-LIGAND FREE ENERGY PREDICTED BY IDOCK:   -0.83 KCAL/MOL
REMARK 927      BINDING AFFINITY PREDICTED BY RF-SCORE:    0.00 PKD
ROOT
HETATM    1  C   UNL     1      -7.817   7.168  62.930  1.00  0.00    -0.119 C  
HETATM    2  C   UNL     1      -8.215   8.349  63.823  1.00  0.00    -0.106 C  
HETATM    3  C   UNL     1      -7.728   9.660  63.198  1.00  0.00    -0.128 C  
HETATM    4  C   UNL     1      -7.732   8.194  65.287  1.00  0.00    -0.101 C  
HETATM    5  N   UNL     1      -6.259   8.073  65.374  1.00  0.00    -0.045 NA 
HETATM    6  H1  UNL     1      -5.942   7.971  66.337  1.00  0.00     0.000 HD 
HETATM    7  H2  UNL     1      -5.795   8.855  64.912  1.00  0.00     0.000 HD 
ENDROOT
BRANCH   4   8
HETATM    8  C   UNL     1      -8.433   7.006  65.978  1.00  0.00    -0.139 C  
HETATM    9  O   UNL     1      -8.488   5.871  65.520  1.00  0.00    -0.146 OA 
BRANCH   8  10
HETATM   10  O   UNL     1      -9.051   7.390  67.135  1.00  0.00    -0.125 OA 
BRANCH  10  11
HETATM   11  C   UNL     1      -9.825   8.601  67.070  1.00  0.00    -0.220 C  
BRANCH  11  12
HETATM   12  C   UNL     1     -10.093   9.130  68.488  1.00  0.00    -0.191 C  
BRANCH  12  13
HETATM   13  O   UNL     1     -10.979  10.272  68.510  1.00  0.00    -0.228 OA 
BRANCH  13  14
HETATM   14  C   UNL     1     -11.239  10.803  67.212  1.00  0.00    -0.197 C  
BRANCH  14  15
HETATM   15  N   UNL     1     -11.035  12.235  67.238  1.00  0.00    -0.244 NA 
HETATM   16  C   UNL     1     -10.391  12.922  68.240  1.00  0.00    -0.244 A  
HETATM   17  N   UNL     1     -10.234  14.199  67.944  1.00  0.00    -0.232 NA 
HETATM   18  C   UNL     1     -10.796  14.344  66.694  1.00  0.00    -0.304 A  
HETATM   19  C   UNL     1     -11.291  13.138  66.264  1.00  0.00    -0.315 A  
HETATM   20  N   UNL     1     -11.875  12.991  65.070  1.00  0.00    -0.342 NA 
HETATM   21  C   UNL     1     -11.935  14.106  64.271  1.00  0.00    -0.435 C  
HETATM   22  N   UNL     1     -12.480  13.869  63.052  1.00  0.00    -1.009 NA 
HETATM   23  N   UNL     1     -11.498  15.294  64.576  1.00  0.00    -0.640 N  
HETATM   24  H2  UNL     1     -12.812  12.951  62.758  1.00  0.00     0.000 HD 
HETATM   25  H1  UNL     1     -12.525  14.697  62.459  1.00  0.00     0.000 HD 
HETATM   26  H   UNL     1     -11.592  16.058  63.907  1.00  0.00     0.000 HD 
HETATM   27  C   UNL     1     -10.901  15.524  65.821  1.00  0.00    -0.331 C  
HETATM   28  O   UNL     1     -10.488  16.627  66.159  1.00  0.00    -0.319 OA 
ENDBRANCH  14  15
ENDBRANCH  13  14
ENDBRANCH  12  13
BRANCH  12  29
HETATM   29  C   UNL     1      -8.776   9.555  69.155  1.00  0.00    -0.146 C  
HETATM   30  O   UNL     1      -7.863  10.011  68.154  1.00  0.00    -0.088 OA 
HETATM   31  H   UNL     1      -7.049  10.273  68.566  1.00  0.00     0.000 HD 
ENDBRANCH  12  29
ENDBRANCH  11  12
ENDBRANCH  10  11
ENDBRANCH   8  10
ENDBRANCH   4   8
TORSDOF 8
ENDMDL
MODEL      248
REMARK 921   NORMALIZED FREE ENERGY PREDICTED BY IDOCK:   -4.06 KCAL/MOL
REMARK 922        TOTAL FREE ENERGY PREDICTED BY IDOCK:   -7.17 KCAL/MOL
REMARK 923 INTER-LIGAND FREE ENERGY PREDICTED BY IDOCK:   -6.34 KCAL/MOL
REMARK 924 INTRA-LIGAND FREE ENERGY PREDICTED BY IDOCK:   -0.83 KCAL/MOL
REMARK 927      BINDING AFFINITY PREDICTED BY RF-SCORE:    0.00 PKD
ROOT
HETATM    1  C   UNL     1      -9.573   8.994  66.075  1.00  0.00    -0.342 C  
HETATM    2  C   UNL     1      -8.539   9.578  67.046  1.00  0.00    -0.131 C  
HETATM    3  C   UNL     1      -8.037  10.926  66.520  1.00  0.00    -0.154 C  
HETATM    4  C   UNL     1      -7.372   8.605  67.348  1.00  0.00    -0.089 C  
HETATM    5  N   UNL     1      -6.636   8.227  66.121  1.00  0.00    -0.050 NA 
HETATM    6  H1  UNL     1      -5.867   7.587  66.320  1.00  0.00     0.000 HD 
HETATM    7  H2  UNL     1      -6.310   9.050  65.615  1.00  0.00     0.000 HD 
ENDROOT
BRANCH   4   8
HETATM    8  C   UNL     1      -7.872   7.359  68.108  1.00  0.00    -0.122 C  
HETATM    9  O   UNL     1      -7.838   6.217  67.666  1.00  0.00    -0.102 OA 
BRANCH   8  10
HETATM   10  O   UNL     1      -8.428   7.693  69.310  1.00  0.00    -0.135 OA 
BRANCH  10  11
HETATM   11  C   UNL     1      -8.572   6.623  70.262  1.00  0.00    -0.140 C  
BRANCH  11  12
HETATM   12  C   UNL     1      -9.202   7.156  71.559  1.00  0.00    -0.145 C  
BRANCH  12  13
HETATM   13  O   UNL     1     -10.637   6.978  71.607  1.00  0.00    -0.205 OA 
BRANCH  13  14
HETATM   14  C   UNL     1     -11.316   7.622  70.531  1.00  0.00    -0.250 C  
BRANCH  14  15
HETATM   15  N   UNL     1     -12.078   8.735  71.052  1.00  0.00    -0.265 NA 
HETATM   16  C   UNL     1     -12.963   8.664  72.102  1.00  0.00    -0.387 A  
HETATM   17  N   UNL     1     -13.419   9.852  72.450  1.00  0.00    -0.323 NA 
HETATM   18  C   UNL     1     -12.798  10.733  71.591  1.00  0.00    -0.457 A  
HETATM   19  C   UNL     1     -11.978  10.046  70.731  1.00  0.00    -0.335 A  
HETATM   20  N   UNL     1     -11.239  10.662  69.802  1.00  0.00    -0.275 NA 
HETATM   21  C   UNL     1     -11.316  12.033  69.763  1.00  0.00    -0.126 C  
HETATM   22  N   UNL     1     -10.493  12.593  68.843  1.00  0.00    -0.415 NA 
HETATM   23  N   UNL     1     -12.055  12.783  70.527  1.00  0.00    -0.508 N  
HETATM   24  H2  UNL     1      -9.877  12.050  68.239  1.00  0.00     0.000 HD 
HETATM   25  H1  UNL     1     -10.550  13.611  68.813  1.00  0.00     0.000 HD 
HETATM   26  H   UNL     1     -12.038  13.797  70.416  1.00  0.00     0.000 HD 
HETATM   27  C   UNL     1     -12.875  12.201  71.502  1.00  0.00    -0.289 C  
HETATM   28  O   UNL     1     -13.598  12.864  72.236  1.00  0.00    -0.560 OA 
ENDBRANCH  14  15
ENDBRANCH  13  14
ENDBRANCH  12  13
BRANCH  12  29
HETATM   29  C   UNL     1      -8.919   8.658  71.709  1.00  0.00    -0.237 C  
HETATM   30  O   UNL     1      -7.516   8.861  71.888  1.00  0.00    -0.294 OA 
HETATM   31  H   UNL     1      -7.340   9.789  71.982  1.00  0.00     0.000 HD 
ENDBRANCH  12  29
ENDBRANCH  11  12
ENDBRANCH  10  11
ENDBRANCH   8  10
ENDBRANCH   4   8
TORSDOF 8
ENDMDL
MODEL      249
REMARK 921   NORMALIZED FREE ENERGY PREDICTED BY IDOCK:   -4.05 KCAL/MOL
REMARK 922        TOTAL FREE ENERGY PREDICTED BY IDOCK:   -7.17 KCAL/MOL
REMARK 923 INTER-LIGAND FREE ENERGY PREDICTED BY IDOCK:   -6.37 KCAL/MOL
REMARK 924 INTRA-LIGAND FREE ENERGY PREDICTED BY IDOCK:   -0.80 KCAL/MOL
REMARK 927      BINDING AFFINITY PREDICTED BY RF-SCORE:    0.00 PKD
ROOT
HETATM    1  C   UNL     1     -12.125  14.438  67.131  1.00  0.00    -0.367 C  
HETATM    2  C   UNL     1     -11.377  14.291  65.800  1.00  0.00    -0.326 C  
HETATM    3  C   UNL     1     -12.334  14.557  64.634  1.00  0.00    -0.419 C  
HETATM    4  C   UNL     1     -10.656  12.927  65.656  1.00  0.00    -0.277 C  
HETATM    5  N   UNL     1     -11.601  11.791  65.740  1.00  0.00    -0.332 NA 
HETATM    6  H1  UNL     1     -11.127  10.894  65.645  1.00  0.00     0.000 HD 
HETATM    7  H2  UNL     1     -12.356  11.885  65.060  1.00  0.00     0.000 HD 
ENDROOT
BRANCH   4   8
HETATM    8  C   UNL     1      -9.521  12.789  66.691  1.00  0.00    -0.249 C  
HETATM    9  O   UNL     1      -8.740  13.685  66.989  1.00  0.00    -0.220 OA 
BRANCH   8  10
HETATM   10  O   UNL     1      -9.443  11.517  67.186  1.00  0.00    -0.175 OA 
BRANCH  10  11
HETATM   11  C   UNL     1      -8.783  11.370  68.456  1.00  0.00    -0.149 C  
BRANCH  11  12
HETATM   12  C   UNL     1      -9.642  10.509  69.396  1.00  0.00    -0.148 C  
BRANCH  12  13
HETATM   13  O   UNL     1      -9.748   9.132  68.966  1.00  0.00    -0.161 OA 
BRANCH  13  14
HETATM   14  C   UNL     1      -8.626   8.339  69.348  1.00  0.00    -0.134 C  
BRANCH  14  15
HETATM   15  N   UNL     1      -9.086   7.215  70.132  1.00  0.00    -0.152 NA 
HETATM   16  C   UNL     1      -8.437   6.007  70.236  1.00  0.00    -0.124 A  
HETATM   17  N   UNL     1      -9.010   5.210  71.118  1.00  0.00    -0.136 NA 
HETATM   18  C   UNL     1     -10.073   5.935  71.611  1.00  0.00    -0.190 A  
HETATM   19  C   UNL     1     -10.121   7.164  71.002  1.00  0.00    -0.192 A  
HETATM   20  N   UNL     1     -11.048   8.078  71.309  1.00  0.00    -0.242 NA 
HETATM   21  C   UNL     1     -11.945   7.740  72.292  1.00  0.00    -0.309 C  
HETATM   22  N   UNL     1     -12.813   8.736  72.596  1.00  0.00    -0.543 NA 
HETATM   23  N   UNL     1     -11.992   6.609  72.934  1.00  0.00    -0.376 N  
HETATM   24  H2  UNL     1     -12.800   9.648  72.139  1.00  0.00     0.000 HD 
HETATM   25  H1  UNL     1     -13.480   8.485  73.326  1.00  0.00     0.000 HD 
HETATM   26  H   UNL     1     -12.702   6.459  73.650  1.00  0.00     0.000 HD 
HETATM   27  C   UNL     1     -11.068   5.597  72.642  1.00  0.00    -0.282 C  
HETATM   28  O   UNL     1     -11.080   4.511  73.209  1.00  0.00    -0.263 OA 
ENDBRANCH  14  15
ENDBRANCH  13  14
ENDBRANCH  12  13
BRANCH  12  29
HETATM   29  C   UNL     1     -11.068  11.075  69.483  1.00  0.00    -0.263 C  
HETATM   30  O   UNL     1     -11.503  11.057  70.844  1.00  0.00    -0.341 OA 
HETATM   31  H   UNL     1     -12.384  11.407  70.898  1.00  0.00     0.000 HD 
ENDBRANCH  12  29
ENDBRANCH  11  12
ENDBRANCH  10  11
ENDBRANCH   8  10
ENDBRANCH   4   8
TORSDOF 8
ENDMDL
MODEL      250
REMARK 921   NORMALIZED FREE ENERGY PREDICTED BY IDOCK:   -4.04 KCAL/MOL
REMARK 922        TOTAL FREE ENERGY PREDICTED BY IDOCK:   -7.15 KCAL/MOL
REMARK 923 INTER-LIGAND FREE ENERGY PREDICTED BY IDOCK:   -6.28 KCAL/MOL
REMARK 924 INTRA-LIGAND FREE ENERGY PREDICTED BY IDOCK:   -0.86 KCAL/MOL
REMARK 927      BINDING AFFINITY PREDICTED BY RF-SCORE:    0.00 PKD
ROOT
HETATM    1  C   UNL     1     -10.098  15.111  69.616  1.00  0.00    -0.202 C  
HETATM    2  C   UNL     1     -11.534  14.659  69.323  1.00  0.00    -0.322 C  
HETATM    3  C   UNL     1     -12.319  14.545  70.634  1.00  0.00    -0.407 C  
HETATM    4  C   UNL     1     -11.603  13.352  68.494  1.00  0.00    -0.333 C  
HETATM    5  N   UNL     1     -10.933  12.225  69.182  1.00  0.00    -0.394 NA 
HETATM    6  H1  UNL     1     -10.979  11.365  68.636  1.00  0.00     0.000 HD 
HETATM    7  H2  UNL     1     -11.308  12.088  70.120  1.00  0.00     0.000 HD 
ENDROOT
BRANCH   4   8
HETATM    8  C   UNL     1     -11.028  13.565  67.078  1.00  0.00    -0.288 C  
HETATM    9  O   UNL     1     -10.985  14.645  66.502  1.00  0.00    -0.307 OA 
BRANCH   8  10
HETATM   10  O   UNL     1     -10.638  12.384  66.511  1.00  0.00    -0.231 OA 
BRANCH  10  11
HETATM   11  C   UNL     1      -9.946  12.482  65.253  1.00  0.00    -0.207 C  
BRANCH  11  12
HETATM   12  C   UNL     1      -9.408  11.102  64.842  1.00  0.00    -0.194 C  
BRANCH  12  13
HETATM   13  O   UNL     1      -8.075  10.841  65.339  1.00  0.00    -0.138 OA 
BRANCH  13  14
HETATM   14  C   UNL     1      -8.056  10.455  66.712  1.00  0.00    -0.120 C  
BRANCH  14  15
HETATM   15  N   UNL     1      -8.817   9.236  66.870  1.00  0.00    -0.126 NA 
HETATM   16  C   UNL     1      -8.746   8.147  66.034  1.00  0.00    -0.156 A  
HETATM   17  N   UNL     1      -9.449   7.126  66.487  1.00  0.00    -0.172 NA 
HETATM   18  C   UNL     1      -9.995   7.571  67.671  1.00  0.00    -0.171 A  
HETATM   19  C   UNL     1      -9.609   8.868  67.904  1.00  0.00    -0.148 A  
HETATM   20  N   UNL     1      -9.984   9.540  68.998  1.00  0.00    -0.174 NA 
HETATM   21  C   UNL     1     -10.759   8.859  69.904  1.00  0.00    -0.227 C  
HETATM   22  N   UNL     1     -11.046   9.578  71.017  1.00  0.00    -0.333 NA 
HETATM   23  N   UNL     1     -11.180   7.633  69.787  1.00  0.00    -0.448 N  
HETATM   24  H2  UNL     1     -10.718  10.532  71.166  1.00  0.00     0.000 HD 
HETATM   25  H1  UNL     1     -11.622   9.073  71.690  1.00  0.00     0.000 HD 
HETATM   26  H   UNL     1     -11.754   7.219  70.522  1.00  0.00     0.000 HD 
HETATM   27  C   UNL     1     -10.848   6.882  68.653  1.00  0.00    -0.187 C  
HETATM   28  O   UNL     1     -11.233   5.729  68.491  1.00  0.00    -0.122 OA 
ENDBRANCH  14  15
ENDBRANCH  13  14
ENDBRANCH  12  13
BRANCH  12  29
HETATM   29  C   UNL     1      -9.360  10.984  63.311  1.00  0.00    -0.308 C  
HETATM   30  O   UNL     1     -10.635  10.557  62.828  1.00  0.00    -0.570 OA 
HETATM   31  H   UNL     1     -10.606  10.484  61.882  1.00  0.00     0.000 HD 
ENDBRANCH  12  29
ENDBRANCH  11  12
ENDBRANCH  10  11
ENDBRANCH   8  10
ENDBRANCH   4   8
TORSDOF 8
ENDMDL
MODEL      251
REMARK 921   NORMALIZED FREE ENERGY PREDICTED BY IDOCK:   -4.04 KCAL/MOL
REMARK 922        TOTAL FREE ENERGY PREDICTED BY IDOCK:   -7.14 KCAL/MOL
REMARK 923 INTER-LIGAND FREE ENERGY PREDICTED BY IDOCK:   -6.60 KCAL/MOL
REMARK 924 INTRA-LIGAND FREE ENERGY PREDICTED BY IDOCK:   -0.54 KCAL/MOL
REMARK 927      BINDING AFFINITY PREDICTED BY RF-SCORE:    0.00 PKD
ROOT
HETATM    1  C   UNL     1      -8.457   9.527  63.288  1.00  0.00    -0.200 C  
HETATM    2  C   UNL     1      -9.766  10.093  63.851  1.00  0.00    -0.236 C  
HETATM    3  C   UNL     1     -10.212  11.298  63.016  1.00  0.00    -0.293 C  
HETATM    4  C   UNL     1      -9.680  10.437  65.359  1.00  0.00    -0.265 C  
HETATM    5  N   UNL     1      -8.627  11.440  65.639  1.00  0.00    -0.382 NA 
HETATM    6  H1  UNL     1      -8.571  11.666  66.631  1.00  0.00     0.000 HD 
HETATM    7  H2  UNL     1      -8.756  12.280  65.075  1.00  0.00     0.000 HD 
ENDROOT
BRANCH   4   8
HETATM    8  C   UNL     1      -9.479   9.163  66.206  1.00  0.00    -0.237 C  
HETATM    9  O   UNL     1     -10.203   8.177  66.158  1.00  0.00    -0.062 OA 
BRANCH   8  10
HETATM   10  O   UNL     1      -8.432   9.297  67.075  1.00  0.00    -0.122 OA 
BRANCH  10  11
HETATM   11  C   UNL     1      -8.772   9.635  68.432  1.00  0.00    -0.120 C  
BRANCH  11  12
HETATM   12  C   UNL     1     -10.139   9.033  68.795  1.00  0.00    -0.199 C  
BRANCH  12  13
HETATM   13  O   UNL     1     -11.014   9.971  69.462  1.00  0.00    -0.232 OA 
BRANCH  13  14
HETATM   14  C   UNL     1     -11.632  10.893  68.566  1.00  0.00    -0.290 C  
BRANCH  14  15
HETATM   15  N   UNL     1     -11.317  12.241  68.984  1.00  0.00    -0.261 NA 
HETATM   16  C   UNL     1     -10.506  13.111  68.295  1.00  0.00    -0.250 A  
HETATM   17  N   UNL     1     -10.498  14.316  68.835  1.00  0.00    -0.246 NA 
HETATM   18  C   UNL     1     -11.345  14.223  69.918  1.00  0.00    -0.198 A  
HETATM   19  C   UNL     1     -11.844  12.947  70.010  1.00  0.00    -0.286 A  
HETATM   20  N   UNL     1     -12.709  12.586  70.964  1.00  0.00    -0.291 NA 
HETATM   21  C   UNL     1     -13.102  13.565  71.843  1.00  0.00    -0.384 C  
HETATM   22  N   UNL     1     -14.027  13.145  72.741  1.00  0.00    -0.688 NA 
HETATM   23  N   UNL     1     -12.696  14.801  71.848  1.00  0.00    -0.315 N  
HETATM   24  H2  UNL     1     -14.396  12.195  72.761  1.00  0.00     0.000 HD 
HETATM   25  H1  UNL     1     -14.319  13.872  73.394  1.00  0.00     0.000 HD 
HETATM   26  H   UNL     1     -13.052  15.452  72.548  1.00  0.00     0.000 HD 
HETATM   27  C   UNL     1     -11.769  15.240  70.894  1.00  0.00    -0.344 C  
HETATM   28  O   UNL     1     -11.346  16.389  70.867  1.00  0.00    -0.373 OA 
ENDBRANCH  14  15
ENDBRANCH  13  14
ENDBRANCH  12  13
BRANCH  12  29
HETATM   29  C   UNL     1      -9.957   7.827  69.730  1.00  0.00    -0.189 C  
HETATM   30  O   UNL     1      -8.597   7.392  69.685  1.00  0.00    -0.135 OA 
HETATM   31  H   UNL     1      -8.485   6.647  70.263  1.00  0.00     0.000 HD 
ENDBRANCH  12  29
ENDBRANCH  11  12
ENDBRANCH  10  11
ENDBRANCH   8  10
ENDBRANCH   4   8
TORSDOF 8
ENDMDL
MODEL      252
REMARK 921   NORMALIZED FREE ENERGY PREDICTED BY IDOCK:   -4.02 KCAL/MOL
REMARK 922        TOTAL FREE ENERGY PREDICTED BY IDOCK:   -7.12 KCAL/MOL
REMARK 923 INTER-LIGAND FREE ENERGY PREDICTED BY IDOCK:   -6.35 KCAL/MOL
REMARK 924 INTRA-LIGAND FREE ENERGY PREDICTED BY IDOCK:   -0.78 KCAL/MOL
REMARK 927      BINDING AFFINITY PREDICTED BY RF-SCORE:    0.00 PKD
ROOT
HETATM    1  C   UNL     1     -10.570   4.007  64.409  1.00  0.00    -0.206 C  
HETATM    2  C   UNL     1      -9.186   4.437  64.908  1.00  0.00    -0.157 C  
HETATM    3  C   UNL     1      -8.157   3.349  64.585  1.00  0.00    -0.090 C  
HETATM    4  C   UNL     1      -9.173   4.816  66.411  1.00  0.00    -0.135 C  
HETATM    5  N   UNL     1      -9.604   3.690  67.269  1.00  0.00    -0.262 NA 
HETATM    6  H1  UNL     1      -9.595   3.940  68.257  1.00  0.00     0.000 HD 
HETATM    7  H2  UNL     1      -9.046   2.855  67.093  1.00  0.00     0.000 HD 
ENDROOT
BRANCH   4   8
HETATM    8  C   UNL     1     -10.024   6.077  66.670  1.00  0.00    -0.166 C  
HETATM    9  O   UNL     1     -11.095   6.080  67.266  1.00  0.00    -0.303 OA 
BRANCH   8  10
HETATM   10  O   UNL     1      -9.473   7.184  66.090  1.00  0.00    -0.117 OA 
BRANCH  10  11
HETATM   11  C   UNL     1      -8.449   7.855  66.847  1.00  0.00    -0.128 C  
BRANCH  11  12
HETATM   12  C   UNL     1      -9.068   8.530  68.081  1.00  0.00    -0.138 C  
BRANCH  12  13
HETATM   13  O   UNL     1      -9.375   9.927  67.871  1.00  0.00    -0.137 OA 
BRANCH  13  14
HETATM   14  C   UNL     1      -8.610  10.515  66.820  1.00  0.00    -0.126 C  
BRANCH  14  15
HETATM   15  N   UNL     1      -9.501  10.923  65.758  1.00  0.00    -0.201 NA 
HETATM   16  C   UNL     1      -9.630  10.285  64.547  1.00  0.00    -0.316 A  
HETATM   17  N   UNL     1     -10.608  10.792  63.819  1.00  0.00    -0.193 NA 
HETATM   18  C   UNL     1     -11.139  11.799  64.595  1.00  0.00    -0.303 A  
HETATM   19  C   UNL     1     -10.456  11.881  65.783  1.00  0.00    -0.256 A  
HETATM   20  N   UNL     1     -10.779  12.766  66.733  1.00  0.00    -0.258 NA 
HETATM   21  C   UNL     1     -11.854  13.582  66.476  1.00  0.00    -0.399 C  
HETATM   22  N   UNL     1     -12.163  14.406  67.506  1.00  0.00    -0.619 NA 
HETATM   23  N   UNL     1     -12.570  13.589  65.389  1.00  0.00    -0.536 N  
HETATM   24  H2  UNL     1     -11.649  14.420  68.386  1.00  0.00     0.000 HD 
HETATM   25  H1  UNL     1     -12.961  15.013  67.316  1.00  0.00     0.000 HD 
HETATM   26  H   UNL     1     -13.352  14.238  65.300  1.00  0.00     0.000 HD 
HETATM   27  C   UNL     1     -12.269  12.708  64.344  1.00  0.00    -0.443 C  
HETATM   28  O   UNL     1     -12.906  12.687  63.297  1.00  0.00    -0.643 OA 
ENDBRANCH  14  15
ENDBRANCH  13  14
ENDBRANCH  12  13
BRANCH  12  29
HETATM   29  C   UNL     1      -8.102   8.445  69.274  1.00  0.00    -0.115 C  
HETATM   30  O   UNL     1      -7.729   7.082  69.485  1.00  0.00    -0.102 OA 
HETATM   31  H   UNL     1      -7.132   7.029  70.222  1.00  0.00     0.000 HD 
ENDBRANCH  12  29
ENDBRANCH  11  12
ENDBRANCH  10  11
ENDBRANCH   8  10
ENDBRANCH   4   8
TORSDOF 8
ENDMDL
MODEL      253
REMARK 921   NORMALIZED FREE ENERGY PREDICTED BY IDOCK:   -4.00 KCAL/MOL
REMARK 922        TOTAL FREE ENERGY PREDICTED BY IDOCK:   -7.09 KCAL/MOL
REMARK 923 INTER-LIGAND FREE ENERGY PREDICTED BY IDOCK:   -6.19 KCAL/MOL
REMARK 924 INTRA-LIGAND FREE ENERGY PREDICTED BY IDOCK:   -0.90 KCAL/MOL
REMARK 927      BINDING AFFINITY PREDICTED BY RF-SCORE:    0.00 PKD
ROOT
HETATM    1  C   UNL     1      -5.675  11.543  68.645  1.00  0.00    -0.042 C  
HETATM    2  C   UNL     1      -5.960  12.688  67.665  1.00  0.00    -0.142 C  
HETATM    3  C   UNL     1      -5.146  13.924  68.060  1.00  0.00    -0.097 C  
HETATM    4  C   UNL     1      -7.470  13.010  67.531  1.00  0.00    -0.156 C  
HETATM    5  N   UNL     1      -8.070  13.399  68.827  1.00  0.00    -0.334 NA 
HETATM    6  H1  UNL     1      -9.063  13.611  68.738  1.00  0.00     0.000 HD 
HETATM    7  H2  UNL     1      -7.562  14.175  69.252  1.00  0.00     0.000 HD 
ENDROOT
BRANCH   4   8
HETATM    8  C   UNL     1      -8.233  11.831  66.893  1.00  0.00    -0.166 C  
HETATM    9  O   UNL     1      -7.727  10.997  66.151  1.00  0.00    -0.155 OA 
BRANCH   8  10
HETATM   10  O   UNL     1      -9.565  11.869  67.198  1.00  0.00    -0.183 OA 
BRANCH  10  11
HETATM   11  C   UNL     1     -10.426  12.454  66.205  1.00  0.00    -0.245 C  
BRANCH  11  12
HETATM   12  C   UNL     1     -11.825  12.690  66.798  1.00  0.00    -0.370 C  
BRANCH  12  13
HETATM   13  O   UNL     1     -12.188  14.088  66.857  1.00  0.00    -0.436 OA 
BRANCH  13  14
HETATM   14  C   UNL     1     -12.387  14.559  68.189  1.00  0.00     0.065 C  
BRANCH  14  15
HETATM   15  N   UNL     1     -11.259  15.377  68.574  1.00  0.00    -0.299 NA 
HETATM   16  C   UNL     1     -10.438  15.134  69.650  1.00  0.00    -0.250 A  
HETATM   17  N   UNL     1      -9.413  15.963  69.691  1.00  0.00    -0.222 NA 
HETATM   18  C   UNL     1      -9.573  16.776  68.590  1.00  0.00    -0.255 A  
HETATM   19  C   UNL     1     -10.708  16.418  67.907  1.00  0.00    -0.332 A  
HETATM   20  N   UNL     1     -11.092  17.034  66.784  1.00  0.00     0.177 NA 
HETATM   21  C   UNL     1     -10.275  18.037  66.322  1.00  0.00    -0.381 C  
HETATM   22  N   UNL     1     -10.689  18.572  65.147  1.00  0.00    -0.440 NA 
HETATM   23  N   UNL     1      -9.180  18.457  66.886  1.00  0.00    -0.278 N  
HETATM   24  H2  UNL     1     -11.526  18.260  64.655  1.00  0.00     0.000 HD 
HETATM   25  H1  UNL     1     -10.084  19.318  64.804  1.00  0.00     0.000 HD 
HETATM   26  H   UNL     1      -8.644  19.212  66.457  1.00  0.00     0.000 HD 
HETATM   27  C   UNL     1      -8.736  17.874  68.079  1.00  0.00    -0.256 C  
HETATM   28  O   UNL     1      -7.719  18.244  68.653  1.00  0.00    -0.299 OA 
ENDBRANCH  14  15
ENDBRANCH  13  14
ENDBRANCH  12  13
BRANCH  12  29
HETATM   29  C   UNL     1     -11.896  12.135  68.230  1.00  0.00    -0.301 C  
HETATM   30  O   UNL     1     -12.012  10.712  68.181  1.00  0.00    -0.791 OA 
HETATM   31  H   UNL     1     -12.056  10.369  69.066  1.00  0.00     0.000 HD 
ENDBRANCH  12  29
ENDBRANCH  11  12
ENDBRANCH  10  11
ENDBRANCH   8  10
ENDBRANCH   4   8
TORSDOF 8
ENDMDL
MODEL      254
REMARK 921   NORMALIZED FREE ENERGY PREDICTED BY IDOCK:   -3.99 KCAL/MOL
REMARK 922        TOTAL FREE ENERGY PREDICTED BY IDOCK:   -7.08 KCAL/MOL
REMARK 923 INTER-LIGAND FREE ENERGY PREDICTED BY IDOCK:   -5.82 KCAL/MOL
REMARK 924 INTRA-LIGAND FREE ENERGY PREDICTED BY IDOCK:   -1.26 KCAL/MOL
REMARK 927      BINDING AFFINITY PREDICTED BY RF-SCORE:    0.00 PKD
ROOT
HETATM    1  C   UNL     1     -11.929  15.692  64.259  1.00  0.00    -0.121 C  
HETATM    2  C   UNL     1     -10.965  14.654  64.847  1.00  0.00    -0.419 C  
HETATM    3  C   UNL     1     -11.354  13.253  64.366  1.00  0.00    -0.415 C  
HETATM    4  C   UNL     1     -10.863  14.727  66.392  1.00  0.00    -0.322 C  
HETATM    5  N   UNL     1     -12.174  14.507  67.042  1.00  0.00    -0.531 NA 
HETATM    6  H1  UNL     1     -12.107  14.555  68.059  1.00  0.00     0.000 HD 
HETATM    7  H2  UNL     1     -12.596  13.629  66.740  1.00  0.00     0.000 HD 
ENDROOT
BRANCH   4   8
HETATM    8  C   UNL     1     -10.230  16.059  66.843  1.00  0.00    -0.280 C  
HETATM    9  O   UNL     1     -10.744  16.838  67.636  1.00  0.00    -0.339 OA 
BRANCH   8  10
HETATM   10  O   UNL     1      -9.053  16.302  66.192  1.00  0.00    -0.302 OA 
BRANCH  10  11
HETATM   11  C   UNL     1      -8.153  17.226  66.831  1.00  0.00    -0.228 C  
BRANCH  11  12
HETATM   12  C   UNL     1      -7.040  16.454  67.558  1.00  0.00    -0.143 C  
BRANCH  12  13
HETATM   13  O   UNL     1      -6.969  15.062  67.174  1.00  0.00    -0.234 OA 
BRANCH  13  14
HETATM   14  C   UNL     1      -7.103  14.170  68.279  1.00  0.00    -0.112 C  
BRANCH  14  15
HETATM   15  N   UNL     1      -7.663  12.922  67.813  1.00  0.00    -0.136 NA 
HETATM   16  C   UNL     1      -6.983  11.972  67.089  1.00  0.00    -0.134 A  
HETATM   17  N   UNL     1      -7.697  10.876  66.910  1.00  0.00    -0.128 NA 
HETATM   18  C   UNL     1      -8.891  11.125  67.551  1.00  0.00    -0.139 A  
HETATM   19  C   UNL     1      -8.871  12.383  68.102  1.00  0.00    -0.191 A  
HETATM   20  N   UNL     1      -9.901  12.874  68.800  1.00  0.00    -0.047 NA 
HETATM   21  C   UNL     1     -10.983  12.045  68.967  1.00  0.00    -0.210 C  
HETATM   22  N   UNL     1     -11.960  12.583  69.738  1.00  0.00    -0.311 NA 
HETATM   23  N   UNL     1     -11.108  10.840  68.492  1.00  0.00    -0.241 N  
HETATM   24  H2  UNL     1     -11.897  13.512  70.153  1.00  0.00     0.000 HD 
HETATM   25  H1  UNL     1     -12.764  11.968  69.862  1.00  0.00     0.000 HD 
HETATM   26  H   UNL     1     -11.958  10.306  68.676  1.00  0.00     0.000 HD 
HETATM   27  C   UNL     1     -10.079  10.275  67.729  1.00  0.00    -0.180 C  
HETATM   28  O   UNL     1     -10.157   9.150  67.250  1.00  0.00    -0.198 OA 
ENDBRANCH  14  15
ENDBRANCH  13  14
ENDBRANCH  12  13
BRANCH  12  29
HETATM   29  C   UNL     1      -7.263  16.502  69.077  1.00  0.00    -0.219 C  
HETATM   30  O   UNL     1      -6.520  17.590  69.632  1.00  0.00    -0.236 OA 
HETATM   31  H   UNL     1      -6.659  17.619  70.571  1.00  0.00     0.000 HD 
ENDBRANCH  12  29
ENDBRANCH  11  12
ENDBRANCH  10  11
ENDBRANCH   8  10
ENDBRANCH   4   8
TORSDOF 8
ENDMDL
MODEL      255
REMARK 921   NORMALIZED FREE ENERGY PREDICTED BY IDOCK:   -3.99 KCAL/MOL
REMARK 922        TOTAL FREE ENERGY PREDICTED BY IDOCK:   -7.07 KCAL/MOL
REMARK 923 INTER-LIGAND FREE ENERGY PREDICTED BY IDOCK:   -7.29 KCAL/MOL
REMARK 924 INTRA-LIGAND FREE ENERGY PREDICTED BY IDOCK:    0.22 KCAL/MOL
REMARK 927      BINDING AFFINITY PREDICTED BY RF-SCORE:    0.00 PKD
ROOT
HETATM    1  C   UNL     1      -7.460  20.021  67.182  1.00  0.00    -0.306 C  
HETATM    2  C   UNL     1      -8.402  18.963  67.770  1.00  0.00    -0.305 C  
HETATM    3  C   UNL     1      -9.167  19.553  68.959  1.00  0.00    -0.298 C  
HETATM    4  C   UNL     1      -7.676  17.646  68.146  1.00  0.00    -0.244 C  
HETATM    5  N   UNL     1      -6.609  17.870  69.147  1.00  0.00    -0.239 NA 
HETATM    6  H1  UNL     1      -6.132  17.003  69.394  1.00  0.00     0.000 HD 
HETATM    7  H2  UNL     1      -6.970  18.343  69.975  1.00  0.00     0.000 HD 
ENDROOT
BRANCH   4   8
HETATM    8  C   UNL     1      -7.127  16.939  66.890  1.00  0.00    -0.216 C  
HETATM    9  O   UNL     1      -6.589  17.512  65.950  1.00  0.00    -0.224 OA 
BRANCH   8  10
HETATM   10  O   UNL     1      -7.378  15.596  66.919  1.00  0.00    -0.198 OA 
BRANCH  10  11
HETATM   11  C   UNL     1      -8.496  15.176  67.722  1.00  0.00    -0.150 C  
BRANCH  11  12
HETATM   12  C   UNL     1      -9.771  15.903  67.266  1.00  0.00    -0.224 C  
BRANCH  12  13
HETATM   13  O   UNL     1     -10.822  15.885  68.259  1.00  0.00    -0.287 OA 
BRANCH  13  14
HETATM   14  C   UNL     1     -11.876  14.978  67.940  1.00  0.00    -0.218 C  
BRANCH  14  15
HETATM   15  N   UNL     1     -12.025  14.029  69.021  1.00  0.00    -0.350 NA 
HETATM   16  C   UNL     1     -12.652  14.287  70.217  1.00  0.00    -0.319 A  
HETATM   17  N   UNL     1     -12.759  13.206  70.966  1.00  0.00    -0.316 NA 
HETATM   18  C   UNL     1     -12.180  12.202  70.221  1.00  0.00    -0.264 A  
HETATM   19  C   UNL     1     -11.726  12.709  69.029  1.00  0.00    -0.318 A  
HETATM   20  N   UNL     1     -11.137  11.943  68.104  1.00  0.00    -0.225 NA 
HETATM   21  C   UNL     1     -11.027  10.605  68.391  1.00  0.00    -0.251 C  
HETATM   22  N   UNL     1     -10.480   9.880  67.384  1.00  0.00    -0.250 NA 
HETATM   23  N   UNL     1     -11.422  10.019  69.484  1.00  0.00    -0.419 N  
HETATM   24  H2  UNL     1     -10.180  10.290  66.500  1.00  0.00     0.000 HD 
HETATM   25  H1  UNL     1     -10.398   8.886  67.597  1.00  0.00     0.000 HD 
HETATM   26  H   UNL     1     -11.293   9.013  69.597  1.00  0.00     0.000 HD 
HETATM   27  C   UNL     1     -12.021  10.766  70.505  1.00  0.00    -0.361 C  
HETATM   28  O   UNL     1     -12.396  10.262  71.557  1.00  0.00    -0.375 OA 
ENDBRANCH  14  15
ENDBRANCH  13  14
ENDBRANCH  12  13
BRANCH  12  29
HETATM   29  C   UNL     1     -10.329  15.250  65.992  1.00  0.00    -0.312 C  
HETATM   30  O   UNL     1     -10.472  16.242  64.973  1.00  0.00    -0.621 OA 
HETATM   31  H   UNL     1     -10.818  15.839  64.186  1.00  0.00     0.000 HD 
ENDBRANCH  12  29
ENDBRANCH  11  12
ENDBRANCH  10  11
ENDBRANCH   8  10
ENDBRANCH   4   8
TORSDOF 8
ENDMDL
MODEL      256
REMARK 921   NORMALIZED FREE ENERGY PREDICTED BY IDOCK:   -3.99 KCAL/MOL
REMARK 922        TOTAL FREE ENERGY PREDICTED BY IDOCK:   -7.07 KCAL/MOL
REMARK 923 INTER-LIGAND FREE ENERGY PREDICTED BY IDOCK:   -6.62 KCAL/MOL
REMARK 924 INTRA-LIGAND FREE ENERGY PREDICTED BY IDOCK:   -0.46 KCAL/MOL
REMARK 927      BINDING AFFINITY PREDICTED BY RF-SCORE:    0.00 PKD
ROOT
HETATM    1  C   UNL     1     -11.689  15.447  72.852  1.00  0.00    -0.508 C  
HETATM    2  C   UNL     1     -11.781  15.042  71.376  1.00  0.00    -0.409 C  
HETATM    3  C   UNL     1     -11.411  16.233  70.486  1.00  0.00    -0.318 C  
HETATM    4  C   UNL     1     -13.159  14.444  70.995  1.00  0.00    -0.353 C  
HETATM    5  N   UNL     1     -14.263  15.397  71.245  1.00  0.00    -0.737 NA 
HETATM    6  H1  UNL     1     -15.170  15.004  70.994  1.00  0.00     0.000 HD 
HETATM    7  H2  UNL     1     -14.101  16.285  70.770  1.00  0.00     0.000 HD 
ENDROOT
BRANCH   4   8
HETATM    8  C   UNL     1     -13.401  13.104  71.722  1.00  0.00    -0.389 C  
HETATM    9  O   UNL     1     -14.397  12.845  72.387  1.00  0.00    -0.379 OA 
BRANCH   8  10
HETATM   10  O   UNL     1     -12.331  12.263  71.594  1.00  0.00    -0.022 OA 
BRANCH  10  11
HETATM   11  C   UNL     1     -12.534  11.100  70.771  1.00  0.00    -0.384 C  
BRANCH  11  12
HETATM   12  C   UNL     1     -11.914   9.866  71.447  1.00  0.00    -0.404 C  
BRANCH  12  13
HETATM   13  O   UNL     1     -10.788   9.325  70.717  1.00  0.00    -0.238 OA 
BRANCH  13  14
HETATM   14  C   UNL     1     -11.020   9.244  69.312  1.00  0.00    -0.085 C  
BRANCH  14  15
HETATM   15  N   UNL     1      -9.793   8.859  68.652  1.00  0.00    -0.163 NA 
HETATM   16  C   UNL     1      -9.718   8.176  67.461  1.00  0.00    -0.161 A  
HETATM   17  N   UNL     1      -8.476   8.072  67.025  1.00  0.00    -0.119 NA 
HETATM   18  C   UNL     1      -7.714   8.719  67.973  1.00  0.00    -0.101 A  
HETATM   19  C   UNL     1      -8.523   9.199  68.973  1.00  0.00    -0.132 A  
HETATM   20  N   UNL     1      -8.041   9.887  70.014  1.00  0.00    -0.185 NA 
HETATM   21  C   UNL     1      -6.688  10.120  70.025  1.00  0.00    -0.127 C  
HETATM   22  N   UNL     1      -6.280  10.877  71.073  1.00  0.00    -0.379 NA 
HETATM   23  N   UNL     1      -5.831   9.715  69.133  1.00  0.00    -0.035 N  
HETATM   24  H2  UNL     1      -6.916  11.239  71.783  1.00  0.00     0.000 HD 
HETATM   25  H1  UNL     1      -5.274  11.050  71.082  1.00  0.00     0.000 HD 
HETATM   26  H   UNL     1      -4.842   9.944  69.237  1.00  0.00     0.000 HD 
HETATM   27  C   UNL     1      -6.264   8.966  68.033  1.00  0.00    -0.051 C  
HETATM   28  O   UNL     1      -5.494   8.551  67.175  1.00  0.00    -0.036 OA 
ENDBRANCH  14  15
ENDBRANCH  13  14
ENDBRANCH  12  13
BRANCH  12  29
HETATM   29  C   UNL     1     -12.960   8.748  71.576  1.00  0.00    -0.319 C  
HETATM   30  O   UNL     1     -13.927   9.116  72.561  1.00  0.00    -0.585 OA 
HETATM   31  H   UNL     1     -14.574   8.425  72.641  1.00  0.00     0.000 HD 
ENDBRANCH  12  29
ENDBRANCH  11  12
ENDBRANCH  10  11
ENDBRANCH   8  10
ENDBRANCH   4   8
TORSDOF 8
ENDMDL
MODEL      257
REMARK 921   NORMALIZED FREE ENERGY PREDICTED BY IDOCK:   -3.99 KCAL/MOL
REMARK 922        TOTAL FREE ENERGY PREDICTED BY IDOCK:   -7.07 KCAL/MOL
REMARK 923 INTER-LIGAND FREE ENERGY PREDICTED BY IDOCK:   -6.60 KCAL/MOL
REMARK 924 INTRA-LIGAND FREE ENERGY PREDICTED BY IDOCK:   -0.47 KCAL/MOL
REMARK 927      BINDING AFFINITY PREDICTED BY RF-SCORE:    0.00 PKD
ROOT
HETATM    1  C   UNL     1     -12.530  12.720  64.955  1.00  0.00    -0.572 C  
HETATM    2  C   UNL     1     -12.508  14.178  65.430  1.00  0.00    -0.488 C  
HETATM    3  C   UNL     1     -12.194  15.104  64.250  1.00  0.00    -0.257 C  
HETATM    4  C   UNL     1     -11.546  14.414  66.621  1.00  0.00    -0.384 C  
HETATM    5  N   UNL     1     -10.150  14.056  66.284  1.00  0.00    -0.291 NA 
HETATM    6  H1  UNL     1      -9.517  14.212  67.068  1.00  0.00     0.000 HD 
HETATM    7  H2  UNL     1      -9.832  14.548  65.448  1.00  0.00     0.000 HD 
ENDROOT
BRANCH   4   8
HETATM    8  C   UNL     1     -12.028  13.664  67.880  1.00  0.00    -0.347 C  
HETATM    9  O   UNL     1     -12.266  14.196  68.957  1.00  0.00    -0.332 OA 
BRANCH   8  10
HETATM   10  O   UNL     1     -12.089  12.315  67.668  1.00  0.00    -0.502 OA 
BRANCH  10  11
HETATM   11  C   UNL     1     -11.378  11.492  68.611  1.00  0.00    -0.269 C  
BRANCH  11  12
HETATM   12  C   UNL     1     -10.816  10.249  67.903  1.00  0.00    -0.284 C  
BRANCH  12  13
HETATM   13  O   UNL     1     -10.842   9.063  68.730  1.00  0.00    -0.153 OA 
BRANCH  13  14
HETATM   14  C   UNL     1     -10.866   9.356  70.126  1.00  0.00    -0.249 C  
BRANCH  14  15
HETATM   15  N   UNL     1     -11.012   8.122  70.865  1.00  0.00    -0.238 NA 
HETATM   16  C   UNL     1     -12.148   7.733  71.535  1.00  0.00    -0.309 A  
HETATM   17  N   UNL     1     -12.049   6.506  72.012  1.00  0.00    -0.331 NA 
HETATM   18  C   UNL     1     -10.796   6.080  71.629  1.00  0.00    -0.260 A  
HETATM   19  C   UNL     1     -10.159   7.074  70.929  1.00  0.00    -0.193 A  
HETATM   20  N   UNL     1      -8.930   6.918  70.423  1.00  0.00    -0.152 NA 
HETATM   21  C   UNL     1      -8.336   5.694  70.614  1.00  0.00    -0.118 C  
HETATM   22  N   UNL     1      -7.123   5.585  70.019  1.00  0.00    -0.064 NA 
HETATM   23  N   UNL     1      -8.846   4.685  71.258  1.00  0.00    -0.120 N  
HETATM   24  H2  UNL     1      -6.693   6.338  69.483  1.00  0.00     0.000 HD 
HETATM   25  H1  UNL     1      -6.681   4.677  70.161  1.00  0.00     0.000 HD 
HETATM   26  H   UNL     1      -8.319   3.816  71.341  1.00  0.00     0.000 HD 
HETATM   27  C   UNL     1     -10.117   4.790  71.837  1.00  0.00    -0.198 C  
HETATM   28  O   UNL     1     -10.633   3.873  72.464  1.00  0.00    -0.147 OA 
ENDBRANCH  14  15
ENDBRANCH  13  14
ENDBRANCH  12  13
BRANCH  12  29
HETATM   29  C   UNL     1      -9.356  10.489  67.487  1.00  0.00    -0.149 C  
HETATM   30  O   UNL     1      -9.321  11.398  66.385  1.00  0.00    -0.192 OA 
HETATM   31  H   UNL     1      -8.418  11.546  66.128  1.00  0.00     0.000 HD 
ENDBRANCH  12  29
ENDBRANCH  11  12
ENDBRANCH  10  11
ENDBRANCH   8  10
ENDBRANCH   4   8
TORSDOF 8
ENDMDL
MODEL      258
REMARK 921   NORMALIZED FREE ENERGY PREDICTED BY IDOCK:   -3.99 KCAL/MOL
REMARK 922        TOTAL FREE ENERGY PREDICTED BY IDOCK:   -7.07 KCAL/MOL
REMARK 923 INTER-LIGAND FREE ENERGY PREDICTED BY IDOCK:   -6.59 KCAL/MOL
REMARK 924 INTRA-LIGAND FREE ENERGY PREDICTED BY IDOCK:   -0.48 KCAL/MOL
REMARK 927      BINDING AFFINITY PREDICTED BY RF-SCORE:    0.00 PKD
ROOT
HETATM    1  C   UNL     1     -12.028  11.600  68.482  1.00  0.00    -0.284 C  
HETATM    2  C   UNL     1     -11.352  12.941  68.791  1.00  0.00    -0.333 C  
HETATM    3  C   UNL     1     -12.108  13.656  69.916  1.00  0.00    -0.406 C  
HETATM    4  C   UNL     1     -11.190  13.842  67.541  1.00  0.00    -0.303 C  
HETATM    5  N   UNL     1     -12.493  14.157  66.914  1.00  0.00    -0.549 NA 
HETATM    6  H1  UNL     1     -12.386  14.750  66.091  1.00  0.00     0.000 HD 
HETATM    7  H2  UNL     1     -13.138  14.570  67.586  1.00  0.00     0.000 HD 
ENDROOT
BRANCH   4   8
HETATM    8  C   UNL     1     -10.217  13.209  66.525  1.00  0.00    -0.277 C  
HETATM    9  O   UNL     1     -10.555  12.464  65.612  1.00  0.00    -0.253 OA 
BRANCH   8  10
HETATM   10  O   UNL     1      -8.918  13.521  66.809  1.00  0.00    -0.233 OA 
BRANCH  10  11
HETATM   11  C   UNL     1      -8.247  12.657  67.744  1.00  0.00    -0.171 C  
BRANCH  11  12
HETATM   12  C   UNL     1      -7.815  11.360  67.042  1.00  0.00    -0.158 C  
BRANCH  12  13
HETATM   13  O   UNL     1      -8.163  10.169  67.785  1.00  0.00    -0.109 OA 
BRANCH  13  14
HETATM   14  C   UNL     1      -8.539  10.442  69.133  1.00  0.00    -0.164 C  
BRANCH  14  15
HETATM   15  N   UNL     1      -8.810   9.193  69.810  1.00  0.00    -0.149 NA 
HETATM   16  C   UNL     1      -8.471   8.910  71.112  1.00  0.00    -0.198 A  
HETATM   17  N   UNL     1      -8.953   7.748  71.510  1.00  0.00    -0.130 NA 
HETATM   18  C   UNL     1      -9.640   7.259  70.421  1.00  0.00    -0.165 A  
HETATM   19  C   UNL     1      -9.548   8.145  69.376  1.00  0.00    -0.167 A  
HETATM   20  N   UNL     1     -10.142   7.924  68.198  1.00  0.00    -0.184 NA 
HETATM   21  C   UNL     1     -10.880   6.772  68.086  1.00  0.00    -0.228 C  
HETATM   22  N   UNL     1     -11.506   6.646  66.890  1.00  0.00    -0.767 NA 
HETATM   23  N   UNL     1     -11.036   5.866  69.008  1.00  0.00    -0.325 N  
HETATM   24  H2  UNL     1     -11.436   7.340  66.146  1.00  0.00     0.000 HD 
HETATM   25  H1  UNL     1     -12.054   5.790  66.806  1.00  0.00     0.000 HD 
HETATM   26  H   UNL     1     -11.608   5.043  68.821  1.00  0.00     0.000 HD 
HETATM   27  C   UNL     1     -10.418   6.020  70.255  1.00  0.00    -0.242 C  
HETATM   28  O   UNL     1     -10.524   5.189  71.149  1.00  0.00    -0.218 OA 
ENDBRANCH  14  15
ENDBRANCH  13  14
ENDBRANCH  12  13
BRANCH  12  29
HETATM   29  C   UNL     1      -6.292  11.347  66.838  1.00  0.00    -0.137 C  
HETATM   30  O   UNL     1      -6.002  11.242  65.443  1.00  0.00    -0.436 OA 
HETATM   31  H   UNL     1      -5.060  11.233  65.317  1.00  0.00     0.000 HD 
ENDBRANCH  12  29
ENDBRANCH  11  12
ENDBRANCH  10  11
ENDBRANCH   8  10
ENDBRANCH   4   8
TORSDOF 8
ENDMDL
MODEL      259
REMARK 921   NORMALIZED FREE ENERGY PREDICTED BY IDOCK:   -3.98 KCAL/MOL
REMARK 922        TOTAL FREE ENERGY PREDICTED BY IDOCK:   -7.06 KCAL/MOL
REMARK 923 INTER-LIGAND FREE ENERGY PREDICTED BY IDOCK:   -5.86 KCAL/MOL
REMARK 924 INTRA-LIGAND FREE ENERGY PREDICTED BY IDOCK:   -1.20 KCAL/MOL
REMARK 927      BINDING AFFINITY PREDICTED BY RF-SCORE:    0.00 PKD
ROOT
HETATM    1  C   UNL     1     -10.926   6.299  69.772  1.00  0.00    -0.444 C  
HETATM    2  C   UNL     1      -9.844   7.343  70.073  1.00  0.00    -0.179 C  
HETATM    3  C   UNL     1      -9.604   7.420  71.585  1.00  0.00    -0.165 C  
HETATM    4  C   UNL     1     -10.156   8.734  69.467  1.00  0.00    -0.202 C  
HETATM    5  N   UNL     1     -11.433   9.285  69.976  1.00  0.00    -0.437 NA 
HETATM    6  H1  UNL     1     -11.638  10.201  69.577  1.00  0.00     0.000 HD 
HETATM    7  H2  UNL     1     -11.444   9.314  70.995  1.00  0.00     0.000 HD 
ENDROOT
BRANCH   4   8
HETATM    8  C   UNL     1     -10.144   8.681  67.925  1.00  0.00    -0.203 C  
HETATM    9  O   UNL     1     -11.147   8.713  67.222  1.00  0.00     0.031 OA 
BRANCH   8  10
HETATM   10  O   UNL     1      -8.878   8.521  67.437  1.00  0.00    -0.132 OA 
BRANCH  10  11
HETATM   11  C   UNL     1      -8.771   7.927  66.131  1.00  0.00    -0.158 C  
BRANCH  11  12
HETATM   12  C   UNL     1      -8.294   8.977  65.115  1.00  0.00    -0.158 C  
BRANCH  12  13
HETATM   13  O   UNL     1      -9.344   9.429  64.230  1.00  0.00    -0.138 OA 
BRANCH  13  14
HETATM   14  C   UNL     1      -9.316  10.837  64.003  1.00  0.00    -0.252 C  
BRANCH  14  15
HETATM   15  N   UNL     1     -10.167  11.489  64.974  1.00  0.00    -0.265 NA 
HETATM   16  C   UNL     1     -11.495  11.789  64.784  1.00  0.00    -0.215 A  
HETATM   17  N   UNL     1     -12.059  12.263  65.879  1.00  0.00    -0.620 NA 
HETATM   18  C   UNL     1     -11.054  12.266  66.821  1.00  0.00    -0.296 A  
HETATM   19  C   UNL     1      -9.891  11.794  66.263  1.00  0.00    -0.221 A  
HETATM   20  N   UNL     1      -8.759  11.673  66.965  1.00  0.00    -0.167 NA 
HETATM   21  C   UNL     1      -8.817  12.020  68.293  1.00  0.00    -0.182 C  
HETATM   22  N   UNL     1      -7.654  11.811  68.956  1.00  0.00    -0.299 NA 
HETATM   23  N   UNL     1      -9.861  12.476  68.923  1.00  0.00    -0.422 N  
HETATM   24  H2  UNL     1      -6.817  11.432  68.513  1.00  0.00     0.000 HD 
HETATM   25  H1  UNL     1      -7.696  12.069  69.942  1.00  0.00     0.000 HD 
HETATM   26  H   UNL     1      -9.797  12.704  69.915  1.00  0.00     0.000 HD 
HETATM   27  C   UNL     1     -11.071  12.653  68.241  1.00  0.00    -0.261 C  
HETATM   28  O   UNL     1     -12.076  13.092  68.788  1.00  0.00    -0.293 OA 
ENDBRANCH  14  15
ENDBRANCH  13  14
ENDBRANCH  12  13
BRANCH  12  29
HETATM   29  C   UNL     1      -7.171   8.398  64.240  1.00  0.00    -0.092 C  
HETATM   30  O   UNL     1      -6.241   9.434  63.917  1.00  0.00    -0.087 OA 
HETATM   31  H   UNL     1      -5.547   9.076  63.376  1.00  0.00     0.000 HD 
ENDBRANCH  12  29
ENDBRANCH  11  12
ENDBRANCH  10  11
ENDBRANCH   8  10
ENDBRANCH   4   8
TORSDOF 8
ENDMDL
MODEL      260
REMARK 921   NORMALIZED FREE ENERGY PREDICTED BY IDOCK:   -3.98 KCAL/MOL
REMARK 922        TOTAL FREE ENERGY PREDICTED BY IDOCK:   -7.06 KCAL/MOL
REMARK 923 INTER-LIGAND FREE ENERGY PREDICTED BY IDOCK:   -6.00 KCAL/MOL
REMARK 924 INTRA-LIGAND FREE ENERGY PREDICTED BY IDOCK:   -1.06 KCAL/MOL
REMARK 927      BINDING AFFINITY PREDICTED BY RF-SCORE:    0.00 PKD
ROOT
HETATM    1  C   UNL     1      -5.719  12.205  70.258  1.00  0.00    -0.163 C  
HETATM    2  C   UNL     1      -5.937  12.401  68.753  1.00  0.00    -0.066 C  
HETATM    3  C   UNL     1      -5.855  13.891  68.406  1.00  0.00    -0.102 C  
HETATM    4  C   UNL     1      -7.253  11.761  68.242  1.00  0.00    -0.084 C  
HETATM    5  N   UNL     1      -8.442  12.324  68.921  1.00  0.00    -0.356 NA 
HETATM    6  H1  UNL     1      -9.307  11.903  68.585  1.00  0.00     0.000 HD 
HETATM    7  H2  UNL     1      -8.468  13.341  68.841  1.00  0.00     0.000 HD 
ENDROOT
BRANCH   4   8
HETATM    8  C   UNL     1      -7.209  10.225  68.373  1.00  0.00    -0.080 C  
HETATM    9  O   UNL     1      -6.609   9.480  67.607  1.00  0.00    -0.062 OA 
BRANCH   8  10
HETATM   10  O   UNL     1      -7.983   9.786  69.409  1.00  0.00    -0.101 OA 
BRANCH  10  11
HETATM   11  C   UNL     1      -8.321   8.387  69.401  1.00  0.00    -0.120 C  
BRANCH  11  12
HETATM   12  C   UNL     1      -9.496   8.126  70.357  1.00  0.00    -0.163 C  
BRANCH  12  13
HETATM   13  O   UNL     1     -10.787   8.309  69.733  1.00  0.00    -0.241 OA 
BRANCH  13  14
HETATM   14  C   UNL     1     -11.533   9.386  70.298  1.00  0.00    -0.180 C  
BRANCH  14  15
HETATM   15  N   UNL     1     -11.441  10.534  69.424  1.00  0.00    -0.260 NA 
HETATM   16  C   UNL     1     -11.104  10.487  68.092  1.00  0.00    -0.287 A  
HETATM   17  N   UNL     1     -11.224  11.665  67.508  1.00  0.00    -0.273 NA 
HETATM   18  C   UNL     1     -11.663  12.510  68.503  1.00  0.00    -0.324 A  
HETATM   19  C   UNL     1     -11.792  11.815  69.680  1.00  0.00    -0.339 A  
HETATM   20  N   UNL     1     -12.222  12.393  70.807  1.00  0.00    -0.333 NA 
HETATM   21  C   UNL     1     -12.558  13.723  70.729  1.00  0.00    -0.340 C  
HETATM   22  N   UNL     1     -13.047  14.225  71.890  1.00  0.00    -0.343 NA 
HETATM   23  N   UNL     1     -12.477  14.475  69.670  1.00  0.00    -0.540 N  
HETATM   24  H2  UNL     1     -13.154  13.669  72.738  1.00  0.00     0.000 HD 
HETATM   25  H1  UNL     1     -13.296  15.212  71.832  1.00  0.00     0.000 HD 
HETATM   26  H   UNL     1     -12.754  15.455  69.720  1.00  0.00     0.000 HD 
HETATM   27  C   UNL     1     -12.008  13.940  68.464  1.00  0.00    -0.359 C  
HETATM   28  O   UNL     1     -11.900  14.612  67.444  1.00  0.00    -0.385 OA 
ENDBRANCH  14  15
ENDBRANCH  13  14
ENDBRANCH  12  13
BRANCH  12  29
HETATM   29  C   UNL     1      -9.426   9.080  71.559  1.00  0.00    -0.246 C  
HETATM   30  O   UNL     1      -9.398   8.319  72.768  1.00  0.00    -0.249 OA 
HETATM   31  H   UNL     1      -9.355   8.909  73.511  1.00  0.00     0.000 HD 
ENDBRANCH  12  29
ENDBRANCH  11  12
ENDBRANCH  10  11
ENDBRANCH   8  10
ENDBRANCH   4   8
TORSDOF 8
ENDMDL
MODEL      261
REMARK 921   NORMALIZED FREE ENERGY PREDICTED BY IDOCK:   -3.98 KCAL/MOL
REMARK 922        TOTAL FREE ENERGY PREDICTED BY IDOCK:   -7.05 KCAL/MOL
REMARK 923 INTER-LIGAND FREE ENERGY PREDICTED BY IDOCK:   -5.96 KCAL/MOL
REMARK 924 INTRA-LIGAND FREE ENERGY PREDICTED BY IDOCK:   -1.10 KCAL/MOL
REMARK 927      BINDING AFFINITY PREDICTED BY RF-SCORE:    0.00 PKD
ROOT
HETATM    1  C   UNL     1     -10.061   8.282  66.451  1.00  0.00    -0.222 C  
HETATM    2  C   UNL     1      -9.590   9.585  67.108  1.00  0.00    -0.206 C  
HETATM    3  C   UNL     1     -10.621  10.691  66.866  1.00  0.00    -0.311 C  
HETATM    4  C   UNL     1      -8.169  10.012  66.660  1.00  0.00    -0.122 C  
HETATM    5  N   UNL     1      -8.091  10.221  65.196  1.00  0.00    -0.149 NA 
HETATM    6  H1  UNL     1      -7.156  10.502  64.902  1.00  0.00     0.000 HD 
HETATM    7  H2  UNL     1      -8.795  10.886  64.878  1.00  0.00     0.000 HD 
ENDROOT
BRANCH   4   8
HETATM    8  C   UNL     1      -7.109   8.998  67.138  1.00  0.00    -0.079 C  
HETATM    9  O   UNL     1      -6.425   8.306  66.394  1.00  0.00    -0.053 OA 
BRANCH   8  10
HETATM   10  O   UNL     1      -7.076   8.912  68.502  1.00  0.00    -0.070 OA 
BRANCH  10  11
HETATM   11  C   UNL     1      -6.663   7.646  69.047  1.00  0.00    -0.049 C  
BRANCH  11  12
HETATM   12  C   UNL     1      -7.195   7.494  70.481  1.00  0.00    -0.064 C  
BRANCH  12  13
HETATM   13  O   UNL     1      -8.350   6.628  70.570  1.00  0.00    -0.126 OA 
BRANCH  13  14
HETATM   14  C   UNL     1      -9.399   7.003  69.679  1.00  0.00    -0.149 C  
BRANCH  14  15
HETATM   15  N   UNL     1     -10.616   7.191  70.436  1.00  0.00    -0.219 NA 
HETATM   16  C   UNL     1     -11.245   6.217  71.175  1.00  0.00    -0.292 A  
HETATM   17  N   UNL     1     -12.262   6.696  71.867  1.00  0.00    -0.345 NA 
HETATM   18  C   UNL     1     -12.290   8.040  71.568  1.00  0.00    -0.308 A  
HETATM   19  C   UNL     1     -11.282   8.342  70.686  1.00  0.00    -0.255 A  
HETATM   20  N   UNL     1     -11.070   9.586  70.242  1.00  0.00    -0.257 NA 
HETATM   21  C   UNL     1     -11.897  10.566  70.733  1.00  0.00    -0.365 C  
HETATM   22  N   UNL     1     -11.584  11.808  70.292  1.00  0.00    -0.517 NA 
HETATM   23  N   UNL     1     -12.879  10.393  71.570  1.00  0.00    -0.426 N  
HETATM   24  H2  UNL     1     -10.809  11.997  69.657  1.00  0.00     0.000 HD 
HETATM   25  H1  UNL     1     -12.199  12.536  70.656  1.00  0.00     0.000 HD 
HETATM   26  H   UNL     1     -13.435  11.193  71.874  1.00  0.00     0.000 HD 
HETATM   27  C   UNL     1     -13.174   9.112  72.053  1.00  0.00    -0.441 C  
HETATM   28  O   UNL     1     -14.097   8.898  72.830  1.00  0.00    -0.500 OA 
ENDBRANCH  14  15
ENDBRANCH  13  14
ENDBRANCH  12  13
BRANCH  12  29
HETATM   29  C   UNL     1      -7.602   8.864  71.045  1.00  0.00    -0.118 C  
HETATM   30  O   UNL     1      -8.336   8.679  72.258  1.00  0.00    -0.317 OA 
HETATM   31  H   UNL     1      -8.588   9.526  72.606  1.00  0.00     0.000 HD 
ENDBRANCH  12  29
ENDBRANCH  11  12
ENDBRANCH  10  11
ENDBRANCH   8  10
ENDBRANCH   4   8
TORSDOF 8
ENDMDL
MODEL      262
REMARK 921   NORMALIZED FREE ENERGY PREDICTED BY IDOCK:   -3.94 KCAL/MOL
REMARK 922        TOTAL FREE ENERGY PREDICTED BY IDOCK:   -7.01 KCAL/MOL
REMARK 923 INTER-LIGAND FREE ENERGY PREDICTED BY IDOCK:   -5.40 KCAL/MOL
REMARK 924 INTRA-LIGAND FREE ENERGY PREDICTED BY IDOCK:   -1.61 KCAL/MOL
REMARK 927      BINDING AFFINITY PREDICTED BY RF-SCORE:    0.00 PKD
ROOT
HETATM    1  C   UNL     1      -8.383   3.028  72.928  1.00  0.00    -0.076 C  
HETATM    2  C   UNL     1      -9.568   2.988  71.955  1.00  0.00    -0.216 C  
HETATM    3  C   UNL     1      -9.211   2.129  70.738  1.00  0.00    -0.187 C  
HETATM    4  C   UNL     1     -10.063   4.397  71.543  1.00  0.00    -0.151 C  
HETATM    5  N   UNL     1      -8.997   5.186  70.884  1.00  0.00    -0.133 NA 
HETATM    6  H1  UNL     1      -9.323   6.113  70.612  1.00  0.00     0.000 HD 
HETATM    7  H2  UNL     1      -8.602   4.684  70.088  1.00  0.00     0.000 HD 
ENDROOT
BRANCH   4   8
HETATM    8  C   UNL     1     -10.652   5.153  72.751  1.00  0.00    -0.229 C  
HETATM    9  O   UNL     1     -11.775   4.967  73.205  1.00  0.00    -0.313 OA 
BRANCH   8  10
HETATM   10  O   UNL     1      -9.794   6.111  73.213  1.00  0.00    -0.158 OA 
BRANCH  10  11
HETATM   11  C   UNL     1     -10.359   7.415  73.437  1.00  0.00    -0.360 C  
BRANCH  11  12
HETATM   12  C   UNL     1      -9.634   8.456  72.570  1.00  0.00    -0.288 C  
BRANCH  12  13
HETATM   13  O   UNL     1      -9.848   8.264  71.153  1.00  0.00    -0.165 OA 
BRANCH  13  14
HETATM   14  C   UNL     1     -11.140   8.687  70.721  1.00  0.00    -0.255 C  
BRANCH  14  15
HETATM   15  N   UNL     1     -11.010   9.397  69.468  1.00  0.00    -0.212 NA 
HETATM   16  C   UNL     1     -11.186  10.751  69.306  1.00  0.00    -0.272 A  
HETATM   17  N   UNL     1     -10.878  11.149  68.086  1.00  0.00    -0.202 NA 
HETATM   18  C   UNL     1     -10.482  10.005  67.430  1.00  0.00    -0.260 A  
HETATM   19  C   UNL     1     -10.567   8.929  68.278  1.00  0.00    -0.152 A  
HETATM   20  N   UNL     1     -10.222   7.692  67.901  1.00  0.00    -0.188 NA 
HETATM   21  C   UNL     1      -9.747   7.548  66.621  1.00  0.00    -0.203 C  
HETATM   22  N   UNL     1      -9.357   6.283  66.329  1.00  0.00    -0.233 NA 
HETATM   23  N   UNL     1      -9.624   8.495  65.736  1.00  0.00    -0.453 N  
HETATM   24  H2  UNL     1      -9.410   5.514  66.997  1.00  0.00     0.000 HD 
HETATM   25  H1  UNL     1      -9.005   6.176  65.378  1.00  0.00     0.000 HD 
HETATM   26  H   UNL     1      -9.258   8.280  64.809  1.00  0.00     0.000 HD 
HETATM   27  C   UNL     1      -9.993   9.807  66.055  1.00  0.00    -0.272 C  
HETATM   28  O   UNL     1      -9.908  10.729  65.252  1.00  0.00    -0.235 OA 
ENDBRANCH  14  15
ENDBRANCH  13  14
ENDBRANCH  12  13
BRANCH  12  29
HETATM   29  C   UNL     1      -8.119   8.394  72.820  1.00  0.00    -0.105 C  
HETATM   30  O   UNL     1      -7.532   7.435  71.938  1.00  0.00    -0.078 OA 
HETATM   31  H   UNL     1      -6.596   7.396  72.093  1.00  0.00     0.000 HD 
ENDBRANCH  12  29
ENDBRANCH  11  12
ENDBRANCH  10  11
ENDBRANCH   8  10
ENDBRANCH   4   8
TORSDOF 8
ENDMDL
MODEL      263
REMARK 921   NORMALIZED FREE ENERGY PREDICTED BY IDOCK:   -3.94 KCAL/MOL
REMARK 922        TOTAL FREE ENERGY PREDICTED BY IDOCK:   -7.00 KCAL/MOL
REMARK 923 INTER-LIGAND FREE ENERGY PREDICTED BY IDOCK:   -6.98 KCAL/MOL
REMARK 924 INTRA-LIGAND FREE ENERGY PREDICTED BY IDOCK:   -0.02 KCAL/MOL
REMARK 927      BINDING AFFINITY PREDICTED BY RF-SCORE:    0.00 PKD
ROOT
HETATM    1  C   UNL     1      -7.859  14.507  68.958  1.00  0.00    -0.106 C  
HETATM    2  C   UNL     1      -6.478  14.759  68.342  1.00  0.00    -0.103 C  
HETATM    3  C   UNL     1      -5.409  14.000  69.135  1.00  0.00    -0.077 C  
HETATM    4  C   UNL     1      -6.138  16.265  68.210  1.00  0.00    -0.114 C  
HETATM    5  N   UNL     1      -6.151  16.952  69.522  1.00  0.00    -0.214 NA 
HETATM    6  H1  UNL     1      -5.927  17.943  69.435  1.00  0.00     0.000 HD 
HETATM    7  H2  UNL     1      -5.533  16.490  70.189  1.00  0.00     0.000 HD 
ENDROOT
BRANCH   4   8
HETATM    8  C   UNL     1      -7.080  16.960  67.205  1.00  0.00    -0.166 C  
HETATM    9  O   UNL     1      -6.821  18.004  66.619  1.00  0.00    -0.179 OA 
BRANCH   8  10
HETATM   10  O   UNL     1      -8.276  16.305  67.102  1.00  0.00    -0.164 OA 
BRANCH  10  11
HETATM   11  C   UNL     1      -9.448  17.135  67.014  1.00  0.00    -0.252 C  
BRANCH  11  12
HETATM   12  C   UNL     1     -10.646  16.300  66.535  1.00  0.00    -0.256 C  
BRANCH  12  13
HETATM   13  O   UNL     1     -10.975  15.213  67.431  1.00  0.00    -0.300 OA 
BRANCH  13  14
HETATM   14  C   UNL     1     -11.864  14.260  66.851  1.00  0.00    -0.433 C  
BRANCH  14  15
HETATM   15  N   UNL     1     -11.846  13.052  67.646  1.00  0.00    -0.362 NA 
HETATM   16  C   UNL     1     -11.350  11.840  67.229  1.00  0.00    -0.315 A  
HETATM   17  N   UNL     1     -11.340  10.946  68.199  1.00  0.00    -0.323 NA 
HETATM   18  C   UNL     1     -11.848  11.610  69.295  1.00  0.00    -0.331 A  
HETATM   19  C   UNL     1     -12.162  12.901  68.953  1.00  0.00    -0.006 A  
HETATM   20  N   UNL     1     -12.658  13.775  69.836  1.00  0.00    -0.189 NA 
HETATM   21  C   UNL     1     -12.816  13.325  71.124  1.00  0.00    -0.280 C  
HETATM   22  N   UNL     1     -13.260  14.280  71.978  1.00  0.00    -0.357 NA 
HETATM   23  N   UNL     1     -12.552  12.127  71.558  1.00  0.00    -0.226 N  
HETATM   24  H2  UNL     1     -13.457  15.239  71.692  1.00  0.00     0.000 HD 
HETATM   25  H1  UNL     1     -13.379  13.947  72.935  1.00  0.00     0.000 HD 
HETATM   26  H   UNL     1     -12.706  11.895  72.539  1.00  0.00     0.000 HD 
HETATM   27  C   UNL     1     -12.057  11.155  70.680  1.00  0.00    -0.379 C  
HETATM   28  O   UNL     1     -11.806  10.011  71.038  1.00  0.00    -0.325 OA 
ENDBRANCH  14  15
ENDBRANCH  13  14
ENDBRANCH  12  13
BRANCH  12  29
HETATM   29  C   UNL     1     -10.352  15.688  65.157  1.00  0.00    -0.334 C  
HETATM   30  O   UNL     1     -11.162  16.331  64.170  1.00  0.00    -1.193 OA 
HETATM   31  H   UNL     1     -10.980  15.952  63.318  1.00  0.00     0.000 HD 
ENDBRANCH  12  29
ENDBRANCH  11  12
ENDBRANCH  10  11
ENDBRANCH   8  10
ENDBRANCH   4   8
TORSDOF 8
ENDMDL
MODEL      264
REMARK 921   NORMALIZED FREE ENERGY PREDICTED BY IDOCK:   -3.94 KCAL/MOL
REMARK 922        TOTAL FREE ENERGY PREDICTED BY IDOCK:   -7.00 KCAL/MOL
REMARK 923 INTER-LIGAND FREE ENERGY PREDICTED BY IDOCK:   -5.99 KCAL/MOL
REMARK 924 INTRA-LIGAND FREE ENERGY PREDICTED BY IDOCK:   -1.00 KCAL/MOL
REMARK 927      BINDING AFFINITY PREDICTED BY RF-SCORE:    0.00 PKD
ROOT
HETATM    1  C   UNL     1      -5.799  13.119  70.354  1.00  0.00    -0.156 C  
HETATM    2  C   UNL     1      -6.017  13.849  69.024  1.00  0.00    -0.086 C  
HETATM    3  C   UNL     1      -6.394  15.310  69.290  1.00  0.00    -0.126 C  
HETATM    4  C   UNL     1      -7.047  13.145  68.106  1.00  0.00    -0.109 C  
HETATM    5  N   UNL     1      -8.375  13.030  68.751  1.00  0.00    -0.356 NA 
HETATM    6  H1  UNL     1      -9.053  12.566  68.146  1.00  0.00     0.000 HD 
HETATM    7  H2  UNL     1      -8.716  13.939  69.061  1.00  0.00     0.000 HD 
ENDROOT
BRANCH   4   8
HETATM    8  C   UNL     1      -6.527  11.767  67.645  1.00  0.00    -0.082 C  
HETATM    9  O   UNL     1      -5.914  10.983  68.359  1.00  0.00    -0.043 OA 
BRANCH   8  10
HETATM   10  O   UNL     1      -6.771  11.556  66.317  1.00  0.00    -0.020 OA 
BRANCH  10  11
HETATM   11  C   UNL     1      -7.572  10.405  65.994  1.00  0.00    -0.137 C  
BRANCH  11  12
HETATM   12  C   UNL     1      -9.042  10.671  66.359  1.00  0.00    -0.164 C  
BRANCH  12  13
HETATM   13  O   UNL     1      -9.392  10.200  67.681  1.00  0.00    -0.146 OA 
BRANCH  13  14
HETATM   14  C   UNL     1     -10.760   9.812  67.791  1.00  0.00    -0.272 C  
BRANCH  14  15
HETATM   15  N   UNL     1     -11.355  10.493  68.920  1.00  0.00    -0.259 NA 
HETATM   16  C   UNL     1     -11.571   9.931  70.156  1.00  0.00    -0.218 A  
HETATM   17  N   UNL     1     -12.006  10.815  71.035  1.00  0.00    -0.328 NA 
HETATM   18  C   UNL     1     -12.069  12.002  70.339  1.00  0.00    -0.321 A  
HETATM   19  C   UNL     1     -11.672  11.803  69.040  1.00  0.00    -0.328 A  
HETATM   20  N   UNL     1     -11.621  12.798  68.148  1.00  0.00    -0.314 NA 
HETATM   21  C   UNL     1     -11.960  14.049  68.600  1.00  0.00    -0.354 C  
HETATM   22  N   UNL     1     -11.822  15.018  67.661  1.00  0.00    -0.425 NA 
HETATM   23  N   UNL     1     -12.347  14.352  69.805  1.00  0.00    -0.452 N  
HETATM   24  H2  UNL     1     -11.498  14.834  66.712  1.00  0.00     0.000 HD 
HETATM   25  H1  UNL     1     -12.074  15.947  67.996  1.00  0.00     0.000 HD 
HETATM   26  H   UNL     1     -12.576  15.318  70.038  1.00  0.00     0.000 HD 
HETATM   27  C   UNL     1     -12.450  13.353  70.781  1.00  0.00    -0.341 C  
HETATM   28  O   UNL     1     -12.823  13.587  71.925  1.00  0.00    -0.319 OA 
ENDBRANCH  14  15
ENDBRANCH  13  14
ENDBRANCH  12  13
BRANCH  12  29
HETATM   29  C   UNL     1      -9.974   9.971  65.359  1.00  0.00    -0.294 C  
HETATM   30  O   UNL     1     -10.567  10.947  64.500  1.00  0.00    -0.343 OA 
HETATM   31  H   UNL     1     -11.143  10.514  63.882  1.00  0.00     0.000 HD 
ENDBRANCH  12  29
ENDBRANCH  11  12
ENDBRANCH  10  11
ENDBRANCH   8  10
ENDBRANCH   4   8
TORSDOF 8
ENDMDL
MODEL      265
REMARK 921   NORMALIZED FREE ENERGY PREDICTED BY IDOCK:   -3.93 KCAL/MOL
REMARK 922        TOTAL FREE ENERGY PREDICTED BY IDOCK:   -6.99 KCAL/MOL
REMARK 923 INTER-LIGAND FREE ENERGY PREDICTED BY IDOCK:   -6.48 KCAL/MOL
REMARK 924 INTRA-LIGAND FREE ENERGY PREDICTED BY IDOCK:   -0.51 KCAL/MOL
REMARK 927      BINDING AFFINITY PREDICTED BY RF-SCORE:    0.00 PKD
ROOT
HETATM    1  C   UNL     1     -11.133   6.613  68.058  1.00  0.00    -0.296 C  
HETATM    2  C   UNL     1     -10.366   6.510  69.383  1.00  0.00    -0.241 C  
HETATM    3  C   UNL     1     -10.320   5.050  69.844  1.00  0.00    -0.298 C  
HETATM    4  C   UNL     1     -10.928   7.446  70.483  1.00  0.00    -0.253 C  
HETATM    5  N   UNL     1     -12.346   7.151  70.788  1.00  0.00    -0.567 NA 
HETATM    6  H1  UNL     1     -12.715   7.767  71.513  1.00  0.00     0.000 HD 
HETATM    7  H2  UNL     1     -12.477   6.170  71.034  1.00  0.00     0.000 HD 
ENDROOT
BRANCH   4   8
HETATM    8  C   UNL     1     -10.733   8.928  70.102  1.00  0.00    -0.225 C  
HETATM    9  O   UNL     1     -11.604   9.786  70.186  1.00  0.00    -0.243 OA 
BRANCH   8  10
HETATM   10  O   UNL     1      -9.487   9.156  69.588  1.00  0.00    -0.160 OA 
BRANCH  10  11
HETATM   11  C   UNL     1      -9.440   9.740  68.274  1.00  0.00    -0.139 C  
BRANCH  11  12
HETATM   12  C   UNL     1      -8.758  11.116  68.337  1.00  0.00    -0.157 C  
BRANCH  12  13
HETATM   13  O   UNL     1      -9.425  12.117  67.534  1.00  0.00    -0.174 OA 
BRANCH  13  14
HETATM   14  C   UNL     1      -8.781  13.389  67.579  1.00  0.00    -0.205 C  
BRANCH  14  15
HETATM   15  N   UNL     1      -9.434  14.282  66.648  1.00  0.00    -0.276 NA 
HETATM   16  C   UNL     1     -10.281  13.889  65.639  1.00  0.00    -0.328 A  
HETATM   17  N   UNL     1     -10.835  14.918  65.026  1.00  0.00    -0.398 NA 
HETATM   18  C   UNL     1     -10.329  16.026  65.669  1.00  0.00    -0.392 A  
HETATM   19  C   UNL     1      -9.466  15.635  66.662  1.00  0.00    -0.259 A  
HETATM   20  N   UNL     1      -8.846  16.514  67.458  1.00  0.00    -0.190 NA 
HETATM   21  C   UNL     1      -9.135  17.841  67.253  1.00  0.00    -0.246 C  
HETATM   22  N   UNL     1      -8.522  18.668  68.135  1.00  0.00    -0.302 NA 
HETATM   23  N   UNL     1      -9.934  18.322  66.346  1.00  0.00    -0.366 N  
HETATM   24  H2  UNL     1      -7.908  18.337  68.879  1.00  0.00     0.000 HD 
HETATM   25  H1  UNL     1      -8.736  19.654  67.983  1.00  0.00     0.000 HD 
HETATM   26  H   UNL     1     -10.080  19.329  66.279  1.00  0.00     0.000 HD 
HETATM   27  C   UNL     1     -10.594  17.460  65.462  1.00  0.00    -0.108 C  
HETATM   28  O   UNL     1     -11.345  17.866  64.583  1.00  0.00    -0.468 OA 
ENDBRANCH  14  15
ENDBRANCH  13  14
ENDBRANCH  12  13
BRANCH  12  29
HETATM   29  C   UNL     1      -7.309  11.015  67.837  1.00  0.00    -0.092 C  
HETATM   30  O   UNL     1      -7.280  10.284  66.610  1.00  0.00    -0.100 OA 
HETATM   31  H   UNL     1      -6.384  10.222  66.301  1.00  0.00     0.000 HD 
ENDBRANCH  12  29
ENDBRANCH  11  12
ENDBRANCH  10  11
ENDBRANCH   8  10
ENDBRANCH   4   8
TORSDOF 8
ENDMDL
MODEL      266
REMARK 921   NORMALIZED FREE ENERGY PREDICTED BY IDOCK:   -3.93 KCAL/MOL
REMARK 922        TOTAL FREE ENERGY PREDICTED BY IDOCK:   -6.99 KCAL/MOL
REMARK 923 INTER-LIGAND FREE ENERGY PREDICTED BY IDOCK:   -6.04 KCAL/MOL
REMARK 924 INTRA-LIGAND FREE ENERGY PREDICTED BY IDOCK:   -0.94 KCAL/MOL
REMARK 927      BINDING AFFINITY PREDICTED BY RF-SCORE:    0.00 PKD
ROOT
HETATM    1  C   UNL     1     -11.526  15.909  64.443  1.00  0.00    -0.268 C  
HETATM    2  C   UNL     1     -11.146  14.454  64.745  1.00  0.00    -0.402 C  
HETATM    3  C   UNL     1     -11.981  13.509  63.875  1.00  0.00    -0.491 C  
HETATM    4  C   UNL     1     -11.251  14.098  66.249  1.00  0.00    -0.329 C  
HETATM    5  N   UNL     1     -12.623  14.297  66.770  1.00  0.00    -0.490 NA 
HETATM    6  H1  UNL     1     -12.691  14.062  67.760  1.00  0.00     0.000 HD 
HETATM    7  H2  UNL     1     -13.307  13.779  66.218  1.00  0.00     0.000 HD 
ENDROOT
BRANCH   4   8
HETATM    8  C   UNL     1     -10.218  14.889  67.078  1.00  0.00    -0.256 C  
HETATM    9  O   UNL     1     -10.500  15.655  67.992  1.00  0.00    -0.251 OA 
BRANCH   8  10
HETATM   10  O   UNL     1      -8.946  14.686  66.621  1.00  0.00    -0.256 OA 
BRANCH  10  11
HETATM   11  C   UNL     1      -7.883  15.038  67.526  1.00  0.00    -0.182 C  
BRANCH  11  12
HETATM   12  C   UNL     1      -6.866  13.888  67.612  1.00  0.00    -0.179 C  
BRANCH  12  13
HETATM   13  O   UNL     1      -7.401  12.622  67.161  1.00  0.00    -0.127 OA 
BRANCH  13  14
HETATM   14  C   UNL     1      -7.747  11.748  68.233  1.00  0.00    -0.130 C  
BRANCH  14  15
HETATM   15  N   UNL     1      -8.543  10.657  67.715  1.00  0.00    -0.122 NA 
HETATM   16  C   UNL     1      -8.420  10.118  66.456  1.00  0.00    -0.127 A  
HETATM   17  N   UNL     1      -9.180   9.051  66.296  1.00  0.00    -0.189 NA 
HETATM   18  C   UNL     1      -9.820   8.889  67.505  1.00  0.00    -0.184 A  
HETATM   19  C   UNL     1      -9.432   9.878  68.374  1.00  0.00    -0.137 A  
HETATM   20  N   UNL     1      -9.889   9.947  69.629  1.00  0.00    -0.219 NA 
HETATM   21  C   UNL     1     -10.755   8.957  70.024  1.00  0.00    -0.228 C  
HETATM   22  N   UNL     1     -11.126   9.053  71.325  1.00  0.00    -0.284 NA 
HETATM   23  N   UNL     1     -11.188   7.976  69.288  1.00  0.00    -0.418 N  
HETATM   24  H2  UNL     1     -10.794   9.788  71.949  1.00  0.00     0.000 HD 
HETATM   25  H1  UNL     1     -11.770   8.318  71.619  1.00  0.00     0.000 HD 
HETATM   26  H   UNL     1     -11.833   7.290  69.681  1.00  0.00     0.000 HD 
HETATM   27  C   UNL     1     -10.771   7.860  67.956  1.00  0.00    -0.054 C  
HETATM   28  O   UNL     1     -11.162   6.962  67.219  1.00  0.00    -0.317 OA 
ENDBRANCH  14  15
ENDBRANCH  13  14
ENDBRANCH  12  13
BRANCH  12  29
HETATM   29  C   UNL     1      -6.399  13.699  69.063  1.00  0.00    -0.102 C  
HETATM   30  O   UNL     1      -7.077  14.633  69.905  1.00  0.00    -0.301 OA 
HETATM   31  H   UNL     1      -6.788  14.517  70.802  1.00  0.00     0.000 HD 
ENDBRANCH  12  29
ENDBRANCH  11  12
ENDBRANCH  10  11
ENDBRANCH   8  10
ENDBRANCH   4   8
TORSDOF 8
ENDMDL
MODEL      267
REMARK 921   NORMALIZED FREE ENERGY PREDICTED BY IDOCK:   -3.92 KCAL/MOL
REMARK 922        TOTAL FREE ENERGY PREDICTED BY IDOCK:   -6.96 KCAL/MOL
REMARK 923 INTER-LIGAND FREE ENERGY PREDICTED BY IDOCK:   -6.04 KCAL/MOL
REMARK 924 INTRA-LIGAND FREE ENERGY PREDICTED BY IDOCK:   -0.93 KCAL/MOL
REMARK 927      BINDING AFFINITY PREDICTED BY RF-SCORE:    0.00 PKD
ROOT
HETATM    1  C   UNL     1      -7.902   4.732  72.428  1.00  0.00    -0.092 C  
HETATM    2  C   UNL     1      -9.300   4.280  71.989  1.00  0.00    -0.180 C  
HETATM    3  C   UNL     1      -9.219   2.892  71.346  1.00  0.00    -0.190 C  
HETATM    4  C   UNL     1     -10.008   5.303  71.066  1.00  0.00    -0.201 C  
HETATM    5  N   UNL     1      -9.236   5.558  69.829  1.00  0.00    -0.134 NA 
HETATM    6  H1  UNL     1      -9.702   6.231  69.222  1.00  0.00     0.000 HD 
HETATM    7  H2  UNL     1      -9.033   4.690  69.333  1.00  0.00     0.000 HD 
ENDROOT
BRANCH   4   8
HETATM    8  C   UNL     1     -10.306   6.616  71.820  1.00  0.00    -0.196 C  
HETATM    9  O   UNL     1     -11.285   6.799  72.534  1.00  0.00    -0.256 OA 
BRANCH   8  10
HETATM   10  O   UNL     1      -9.380   7.580  71.538  1.00  0.00    -0.140 OA 
BRANCH  10  11
HETATM   11  C   UNL     1      -9.884   8.918  71.381  1.00  0.00    -0.306 C  
BRANCH  11  12
HETATM   12  C   UNL     1      -9.023   9.687  70.366  1.00  0.00    -0.187 C  
BRANCH  12  13
HETATM   13  O   UNL     1      -9.652   9.815  69.070  1.00  0.00    -0.163 OA 
BRANCH  13  14
HETATM   14  C   UNL     1     -11.010  10.245  69.148  1.00  0.00    -0.238 C  
BRANCH  14  15
HETATM   15  N   UNL     1     -11.289  11.131  68.040  1.00  0.00    -0.326 NA 
HETATM   16  C   UNL     1     -11.908  12.354  68.145  1.00  0.00    -0.315 A  
HETATM   17  N   UNL     1     -11.918  13.006  66.997  1.00  0.00    -0.375 NA 
HETATM   18  C   UNL     1     -11.272  12.172  66.112  1.00  0.00    -0.338 A  
HETATM   19  C   UNL     1     -10.890  11.019  66.752  1.00  0.00    -0.251 A  
HETATM   20  N   UNL     1     -10.224  10.041  66.127  1.00  0.00    -0.238 NA 
HETATM   21  C   UNL     1      -9.912  10.254  64.807  1.00  0.00    -0.321 C  
HETATM   22  N   UNL     1      -9.182   9.253  64.257  1.00  0.00    -0.425 NA 
HETATM   23  N   UNL     1     -10.221  11.305  64.104  1.00  0.00    -0.304 N  
HETATM   24  H2  UNL     1      -8.893   8.423  64.774  1.00  0.00     0.000 HD 
HETATM   25  H1  UNL     1      -8.950   9.411  63.276  1.00  0.00     0.000 HD 
HETATM   26  H   UNL     1      -9.939  11.364  63.126  1.00  0.00     0.000 HD 
HETATM   27  C   UNL     1     -10.942  12.354  64.689  1.00  0.00    -0.305 C  
HETATM   28  O   UNL     1     -11.269  13.356  64.064  1.00  0.00    -0.369 OA 
ENDBRANCH  14  15
ENDBRANCH  13  14
ENDBRANCH  12  13
BRANCH  12  29
HETATM   29  C   UNL     1      -7.680   8.970  70.157  1.00  0.00    -0.089 C  
HETATM   30  O   UNL     1      -7.763   8.132  69.003  1.00  0.00    -0.095 OA 
HETATM   31  H   UNL     1      -6.933   7.689  68.874  1.00  0.00     0.000 HD 
ENDBRANCH  12  29
ENDBRANCH  11  12
ENDBRANCH  10  11
ENDBRANCH   8  10
ENDBRANCH   4   8
TORSDOF 8
ENDMDL
MODEL      268
REMARK 921   NORMALIZED FREE ENERGY PREDICTED BY IDOCK:   -3.91 KCAL/MOL
REMARK 922        TOTAL FREE ENERGY PREDICTED BY IDOCK:   -6.96 KCAL/MOL
REMARK 923 INTER-LIGAND FREE ENERGY PREDICTED BY IDOCK:   -6.40 KCAL/MOL
REMARK 924 INTRA-LIGAND FREE ENERGY PREDICTED BY IDOCK:   -0.56 KCAL/MOL
REMARK 927      BINDING AFFINITY PREDICTED BY RF-SCORE:    0.00 PKD
ROOT
HETATM    1  C   UNL     1      -8.660  19.298  66.724  1.00  0.00    -0.326 C  
HETATM    2  C   UNL     1     -10.093  19.064  67.218  1.00  0.00    -0.436 C  
HETATM    3  C   UNL     1     -10.347  19.891  68.483  1.00  0.00    -0.463 C  
HETATM    4  C   UNL     1     -10.426  17.566  67.431  1.00  0.00    -0.342 C  
HETATM    5  N   UNL     1      -9.526  16.936  68.422  1.00  0.00    -0.250 NA 
HETATM    6  H1  UNL     1      -9.745  15.949  68.562  1.00  0.00     0.000 HD 
HETATM    7  H2  UNL     1      -9.532  17.445  69.306  1.00  0.00     0.000 HD 
ENDROOT
BRANCH   4   8
HETATM    8  C   UNL     1     -10.408  16.800  66.092  1.00  0.00    -0.330 C  
HETATM    9  O   UNL     1      -9.568  16.956  65.214  1.00  0.00    -0.228 OA 
BRANCH   8  10
HETATM   10  O   UNL     1     -11.489  15.972  65.971  1.00  0.00     0.169 OA 
BRANCH  10  11
HETATM   11  C   UNL     1     -11.295  14.610  66.391  1.00  0.00    -0.348 C  
BRANCH  11  12
HETATM   12  C   UNL     1     -12.255  13.684  65.625  1.00  0.00    -0.454 C  
BRANCH  12  13
HETATM   13  O   UNL     1     -12.314  12.348  66.174  1.00  0.00    -0.606 OA 
BRANCH  13  14
HETATM   14  C   UNL     1     -11.320  11.478  65.637  1.00  0.00    -0.085 C  
BRANCH  14  15
HETATM   15  N   UNL     1     -10.515  10.956  66.718  1.00  0.00    -0.241 NA 
HETATM   16  C   UNL     1     -10.583   9.671  67.204  1.00  0.00    -0.228 A  
HETATM   17  N   UNL     1      -9.647   9.429  68.102  1.00  0.00    -0.141 NA 
HETATM   18  C   UNL     1      -8.939  10.606  68.199  1.00  0.00    -0.141 A  
HETATM   19  C   UNL     1      -9.475  11.544  67.353  1.00  0.00    -0.165 A  
HETATM   20  N   UNL     1      -8.965  12.775  67.234  1.00  0.00    -0.191 NA 
HETATM   21  C   UNL     1      -7.850  13.055  67.987  1.00  0.00    -0.146 C  
HETATM   22  N   UNL     1      -7.350  14.296  67.769  1.00  0.00    -0.156 NA 
HETATM   23  N   UNL     1      -7.261  12.245  68.818  1.00  0.00    -0.128 N  
HETATM   24  H2  UNL     1      -7.761  14.957  67.109  1.00  0.00     0.000 HD 
HETATM   25  H1  UNL     1      -6.523  14.505  68.328  1.00  0.00     0.000 HD 
HETATM   26  H   UNL     1      -6.434  12.554  69.329  1.00  0.00     0.000 HD 
HETATM   27  C   UNL     1      -7.759  10.951  69.010  1.00  0.00    -0.135 C  
HETATM   28  O   UNL     1      -7.247  10.158  69.791  1.00  0.00    -0.106 OA 
ENDBRANCH  14  15
ENDBRANCH  13  14
ENDBRANCH  12  13
BRANCH  12  29
HETATM   29  C   UNL     1     -11.816  13.560  64.158  1.00  0.00    -0.437 C  
HETATM   30  O   UNL     1     -10.478  14.041  64.020  1.00  0.00    -0.486 OA 
HETATM   31  H   UNL     1     -10.207  13.965  63.113  1.00  0.00     0.000 HD 
ENDBRANCH  12  29
ENDBRANCH  11  12
ENDBRANCH  10  11
ENDBRANCH   8  10
ENDBRANCH   4   8
TORSDOF 8
ENDMDL
MODEL      269
REMARK 921   NORMALIZED FREE ENERGY PREDICTED BY IDOCK:   -3.90 KCAL/MOL
REMARK 922        TOTAL FREE ENERGY PREDICTED BY IDOCK:   -6.95 KCAL/MOL
REMARK 923 INTER-LIGAND FREE ENERGY PREDICTED BY IDOCK:   -6.43 KCAL/MOL
REMARK 924 INTRA-LIGAND FREE ENERGY PREDICTED BY IDOCK:   -0.52 KCAL/MOL
REMARK 927      BINDING AFFINITY PREDICTED BY RF-SCORE:    0.00 PKD
ROOT
HETATM    1  C   UNL     1     -12.829  11.847  71.124  1.00  0.00    -0.346 C  
HETATM    2  C   UNL     1     -11.627  12.280  70.277  1.00  0.00    -0.083 C  
HETATM    3  C   UNL     1     -11.942  13.598  69.563  1.00  0.00    -0.397 C  
HETATM    4  C   UNL     1     -11.157  11.185  69.285  1.00  0.00    -0.259 C  
HETATM    5  N   UNL     1     -12.228  10.800  68.339  1.00  0.00    -0.809 NA 
HETATM    6  H1  UNL     1     -11.919  10.080  67.687  1.00  0.00     0.000 HD 
HETATM    7  H2  UNL     1     -12.597  11.613  67.845  1.00  0.00     0.000 HD 
ENDROOT
BRANCH   4   8
HETATM    8  C   UNL     1     -10.606   9.956  70.038  1.00  0.00    -0.288 C  
HETATM    9  O   UNL     1      -9.417   9.738  70.234  1.00  0.00    -0.249 OA 
BRANCH   8  10
HETATM   10  O   UNL     1     -11.607   9.098  70.400  1.00  0.00    -0.242 OA 
BRANCH  10  11
HETATM   11  C   UNL     1     -11.415   7.716  70.049  1.00  0.00     0.005 C  
BRANCH  11  12
HETATM   12  C   UNL     1     -11.469   6.842  71.312  1.00  0.00    -0.302 C  
BRANCH  12  13
HETATM   13  O   UNL     1     -11.073   5.471  71.072  1.00  0.00    -0.184 OA 
BRANCH  13  14
HETATM   14  C   UNL     1      -9.679   5.330  70.807  1.00  0.00    -0.185 C  
BRANCH  14  15
HETATM   15  N   UNL     1      -9.506   4.661  69.537  1.00  0.00    -0.149 NA 
HETATM   16  C   UNL     1      -9.398   3.301  69.369  1.00  0.00    -0.161 A  
HETATM   17  N   UNL     1      -9.378   2.957  68.095  1.00  0.00    -0.207 NA 
HETATM   18  C   UNL     1      -9.484   4.146  67.407  1.00  0.00    -0.187 A  
HETATM   19  C   UNL     1      -9.558   5.192  68.293  1.00  0.00    -0.135 A  
HETATM   20  N   UNL     1      -9.685   6.461  67.891  1.00  0.00    -0.121 NA 
HETATM   21  C   UNL     1      -9.767   6.673  66.536  1.00  0.00    -0.121 C  
HETATM   22  N   UNL     1      -9.960   7.974  66.205  1.00  0.00    -0.466 NA 
HETATM   23  N   UNL     1      -9.709   5.760  65.611  1.00  0.00    -0.364 N  
HETATM   24  H2  UNL     1     -10.037   8.721  66.894  1.00  0.00     0.000 HD 
HETATM   25  H1  UNL     1     -10.020   8.132  65.199  1.00  0.00     0.000 HD 
HETATM   26  H   UNL     1      -9.781   6.026  64.629  1.00  0.00     0.000 HD 
HETATM   27  C   UNL     1      -9.548   4.414  65.961  1.00  0.00    -0.189 C  
HETATM   28  O   UNL     1      -9.475   3.521  65.126  1.00  0.00    -0.151 OA 
ENDBRANCH  14  15
ENDBRANCH  13  14
ENDBRANCH  12  13
BRANCH  12  29
HETATM   29  C   UNL     1     -12.896   6.817  71.881  1.00  0.00    -0.219 C  
HETATM   30  O   UNL     1     -13.799   7.369  70.921  1.00  0.00    -0.623 OA 
HETATM   31  H   UNL     1     -14.681   7.354  71.273  1.00  0.00     0.000 HD 
ENDBRANCH  12  29
ENDBRANCH  11  12
ENDBRANCH  10  11
ENDBRANCH   8  10
ENDBRANCH   4   8
TORSDOF 8
ENDMDL
MODEL      270
REMARK 921   NORMALIZED FREE ENERGY PREDICTED BY IDOCK:   -3.89 KCAL/MOL
REMARK 922        TOTAL FREE ENERGY PREDICTED BY IDOCK:   -6.93 KCAL/MOL
REMARK 923 INTER-LIGAND FREE ENERGY PREDICTED BY IDOCK:   -6.67 KCAL/MOL
REMARK 924 INTRA-LIGAND FREE ENERGY PREDICTED BY IDOCK:   -0.27 KCAL/MOL
REMARK 927      BINDING AFFINITY PREDICTED BY RF-SCORE:    0.00 PKD
ROOT
HETATM    1  C   UNL     1      -8.828  19.320  65.976  1.00  0.00    -0.134 C  
HETATM    2  C   UNL     1      -9.916  19.048  67.022  1.00  0.00    -0.405 C  
HETATM    3  C   UNL     1     -10.189  20.321  67.830  1.00  0.00    -0.444 C  
HETATM    4  C   UNL     1      -9.590  17.841  67.938  1.00  0.00    -0.280 C  
HETATM    5  N   UNL     1      -8.325  18.038  68.681  1.00  0.00    -0.297 NA 
HETATM    6  H1  UNL     1      -8.110  17.244  69.284  1.00  0.00     0.000 HD 
HETATM    7  H2  UNL     1      -8.336  18.910  69.208  1.00  0.00     0.000 HD 
ENDROOT
BRANCH   4   8
HETATM    8  C   UNL     1      -9.568  16.525  67.133  1.00  0.00    -0.240 C  
HETATM    9  O   UNL     1      -8.987  16.375  66.065  1.00  0.00    -0.365 OA 
BRANCH   8  10
HETATM   10  O   UNL     1     -10.340  15.563  67.721  1.00  0.00    -0.253 OA 
BRANCH  10  11
HETATM   11  C   UNL     1      -9.760  14.886  68.850  1.00  0.00    -0.223 C  
BRANCH  11  12
HETATM   12  C   UNL     1      -8.373  14.339  68.477  1.00  0.00    -0.156 C  
BRANCH  12  13
HETATM   13  O   UNL     1      -8.232  12.923  68.734  1.00  0.00    -0.035 OA 
BRANCH  13  14
HETATM   14  C   UNL     1      -9.394  12.174  68.386  1.00  0.00    -0.170 C  
BRANCH  14  15
HETATM   15  N   UNL     1      -9.311  11.795  66.993  1.00  0.00    -0.180 NA 
HETATM   16  C   UNL     1      -8.477  10.826  66.487  1.00  0.00    -0.147 A  
HETATM   17  N   UNL     1      -8.701  10.596  65.207  1.00  0.00    -0.187 NA 
HETATM   18  C   UNL     1      -9.729  11.449  64.870  1.00  0.00    -0.247 A  
HETATM   19  C   UNL     1     -10.100  12.187  65.966  1.00  0.00    -0.235 A  
HETATM   20  N   UNL     1     -11.092  13.083  65.922  1.00  0.00    -0.277 NA 
HETATM   21  C   UNL     1     -11.750  13.215  64.723  1.00  0.00    -0.347 C  
HETATM   22  N   UNL     1     -12.784  14.091  64.769  1.00  0.00    -0.683 NA 
HETATM   23  N   UNL     1     -11.484  12.569  63.626  1.00  0.00    -0.457 N  
HETATM   24  H2  UNL     1     -13.047  14.602  65.612  1.00  0.00     0.000 HD 
HETATM   25  H1  UNL     1     -13.273  14.190  63.879  1.00  0.00     0.000 HD 
HETATM   26  H   UNL     1     -12.038  12.742  62.786  1.00  0.00     0.000 HD 
HETATM   27  C   UNL     1     -10.440  11.636  63.595  1.00  0.00    -0.429 C  
HETATM   28  O   UNL     1     -10.143  11.014  62.582  1.00  0.00    -0.157 OA 
ENDBRANCH  14  15
ENDBRANCH  13  14
ENDBRANCH  12  13
BRANCH  12  29
HETATM   29  C   UNL     1      -7.282  15.064  69.280  1.00  0.00    -0.179 C  
HETATM   30  O   UNL     1      -7.364  14.673  70.652  1.00  0.00    -0.138 OA 
HETATM   31  H   UNL     1      -6.690  15.121  71.149  1.00  0.00     0.000 HD 
ENDBRANCH  12  29
ENDBRANCH  11  12
ENDBRANCH  10  11
ENDBRANCH   8  10
ENDBRANCH   4   8
TORSDOF 8
ENDMDL
MODEL      271
REMARK 921   NORMALIZED FREE ENERGY PREDICTED BY IDOCK:   -3.89 KCAL/MOL
REMARK 922        TOTAL FREE ENERGY PREDICTED BY IDOCK:   -6.92 KCAL/MOL
REMARK 923 INTER-LIGAND FREE ENERGY PREDICTED BY IDOCK:   -6.33 KCAL/MOL
REMARK 924 INTRA-LIGAND FREE ENERGY PREDICTED BY IDOCK:   -0.60 KCAL/MOL
REMARK 927      BINDING AFFINITY PREDICTED BY RF-SCORE:    0.00 PKD
ROOT
HETATM    1  C   UNL     1      -9.158  13.893  68.174  1.00  0.00    -0.193 C  
HETATM    2  C   UNL     1     -10.131  13.284  67.156  1.00  0.00    -0.239 C  
HETATM    3  C   UNL     1     -10.169  14.150  65.893  1.00  0.00    -0.332 C  
HETATM    4  C   UNL     1     -11.548  13.048  67.737  1.00  0.00    -0.340 C  
HETATM    5  N   UNL     1     -12.165  14.305  68.217  1.00  0.00    -0.591 NA 
HETATM    6  H1  UNL     1     -13.098  14.148  68.599  1.00  0.00     0.000 HD 
HETATM    7  H2  UNL     1     -12.179  15.014  67.485  1.00  0.00     0.000 HD 
ENDROOT
BRANCH   4   8
HETATM    8  C   UNL     1     -11.519  11.978  68.848  1.00  0.00    -0.301 C  
HETATM    9  O   UNL     1     -12.115  12.069  69.915  1.00  0.00    -0.301 OA 
BRANCH   8  10
HETATM   10  O   UNL     1     -10.686  10.943  68.528  1.00  0.00    -0.178 OA 
BRANCH  10  11
HETATM   11  C   UNL     1     -10.962   9.684  69.168  1.00  0.00    -0.151 C  
BRANCH  11  12
HETATM   12  C   UNL     1      -9.808   9.312  70.113  1.00  0.00    -0.215 C  
BRANCH  12  13
HETATM   13  O   UNL     1      -9.110   8.111  69.711  1.00  0.00    -0.147 OA 
BRANCH  13  14
HETATM   14  C   UNL     1      -8.881   8.042  68.305  1.00  0.00    -0.133 C  
BRANCH  14  15
HETATM   15  N   UNL     1      -8.318   6.751  67.980  1.00  0.00    -0.120 NA 
HETATM   16  C   UNL     1      -7.182   6.220  68.545  1.00  0.00    -0.085 A  
HETATM   17  N   UNL     1      -6.970   4.975  68.161  1.00  0.00    -0.060 NA 
HETATM   18  C   UNL     1      -8.018   4.685  67.315  1.00  0.00    -0.101 A  
HETATM   19  C   UNL     1      -8.842   5.776  67.202  1.00  0.00    -0.107 A  
HETATM   20  N   UNL     1      -9.951   5.760  66.453  1.00  0.00    -0.153 NA 
HETATM   21  C   UNL     1     -10.247   4.581  65.815  1.00  0.00    -0.265 C  
HETATM   22  N   UNL     1     -11.415   4.617  65.129  1.00  0.00    -1.107 NA 
HETATM   23  N   UNL     1      -9.540   3.488  65.853  1.00  0.00    -0.335 N  
HETATM   24  H2  UNL     1     -12.016   5.440  65.090  1.00  0.00     0.000 HD 
HETATM   25  H1  UNL     1     -11.635   3.741  64.654  1.00  0.00     0.000 HD 
HETATM   26  H   UNL     1      -9.851   2.663  65.341  1.00  0.00     0.000 HD 
HETATM   27  C   UNL     1      -8.354   3.445  66.595  1.00  0.00    -0.101 C  
HETATM   28  O   UNL     1      -7.648   2.445  66.650  1.00  0.00    -0.068 OA 
ENDBRANCH  14  15
ENDBRANCH  13  14
ENDBRANCH  12  13
BRANCH  12  29
HETATM   29  C   UNL     1     -10.339   9.081  71.536  1.00  0.00    -0.342 C  
HETATM   30  O   UNL     1      -9.238   8.941  72.436  1.00  0.00    -0.362 OA 
HETATM   31  H   UNL     1      -9.567   8.798  73.316  1.00  0.00     0.000 HD 
ENDBRANCH  12  29
ENDBRANCH  11  12
ENDBRANCH  10  11
ENDBRANCH   8  10
ENDBRANCH   4   8
TORSDOF 8
ENDMDL
MODEL      272
REMARK 921   NORMALIZED FREE ENERGY PREDICTED BY IDOCK:   -3.89 KCAL/MOL
REMARK 922        TOTAL FREE ENERGY PREDICTED BY IDOCK:   -6.92 KCAL/MOL
REMARK 923 INTER-LIGAND FREE ENERGY PREDICTED BY IDOCK:   -6.86 KCAL/MOL
REMARK 924 INTRA-LIGAND FREE ENERGY PREDICTED BY IDOCK:   -0.05 KCAL/MOL
REMARK 927      BINDING AFFINITY PREDICTED BY RF-SCORE:    0.00 PKD
ROOT
HETATM    1  C   UNL     1      -8.506   5.083  64.424  1.00  0.00    -0.142 C  
HETATM    2  C   UNL     1      -7.411   5.811  65.213  1.00  0.00    -0.078 C  
HETATM    3  C   UNL     1      -6.598   4.798  66.026  1.00  0.00    -0.045 C  
HETATM    4  C   UNL     1      -7.962   6.955  66.101  1.00  0.00    -0.110 C  
HETATM    5  N   UNL     1      -8.945   6.462  67.092  1.00  0.00    -0.108 NA 
HETATM    6  H1  UNL     1      -9.307   7.215  67.676  1.00  0.00     0.000 HD 
HETATM    7  H2  UNL     1      -8.555   5.709  67.658  1.00  0.00     0.000 HD 
ENDROOT
BRANCH   4   8
HETATM    8  C   UNL     1      -8.556   8.088  65.239  1.00  0.00    -0.086 C  
HETATM    9  O   UNL     1      -8.019   8.555  64.242  1.00  0.00    -0.135 OA 
BRANCH   8  10
HETATM   10  O   UNL     1      -9.726   8.560  65.765  1.00  0.00    -0.118 OA 
BRANCH  10  11
HETATM   11  C   UNL     1      -9.913   9.986  65.717  1.00  0.00    -0.276 C  
BRANCH  11  12
HETATM   12  C   UNL     1      -9.787  10.578  67.130  1.00  0.00    -0.176 C  
BRANCH  12  13
HETATM   13  O   UNL     1     -10.606  11.754  67.328  1.00  0.00    -0.211 OA 
BRANCH  13  14
HETATM   14  C   UNL     1      -9.964  12.756  68.114  1.00  0.00    -0.229 C  
BRANCH  14  15
HETATM   15  N   UNL     1     -10.172  14.046  67.495  1.00  0.00    -0.243 NA 
HETATM   16  C   UNL     1      -9.644  15.233  67.946  1.00  0.00    -0.199 A  
HETATM   17  N   UNL     1      -9.887  16.232  67.119  1.00  0.00    -0.239 NA 
HETATM   18  C   UNL     1     -10.599  15.667  66.083  1.00  0.00    -0.320 A  
HETATM   19  C   UNL     1     -10.776  14.326  66.317  1.00  0.00    -0.297 A  
HETATM   20  N   UNL     1     -11.421  13.530  65.456  1.00  0.00    -0.301 NA 
HETATM   21  C   UNL     1     -11.880  14.114  64.301  1.00  0.00    -0.397 C  
HETATM   22  N   UNL     1     -12.464  13.236  63.449  1.00  0.00    -0.785 NA 
HETATM   23  N   UNL     1     -11.767  15.369  63.978  1.00  0.00    -0.894 N  
HETATM   24  H2  UNL     1     -12.553  12.240  63.646  1.00  0.00     0.000 HD 
HETATM   25  H1  UNL     1     -12.806  13.670  62.591  1.00  0.00     0.000 HD 
HETATM   26  H   UNL     1     -12.144  15.702  63.090  1.00  0.00     0.000 HD 
HETATM   27  C   UNL     1     -11.128  16.263  64.845  1.00  0.00    -0.290 C  
HETATM   28  O   UNL     1     -11.009  17.456  64.591  1.00  0.00    -0.959 OA 
ENDBRANCH  14  15
ENDBRANCH  13  14
ENDBRANCH  12  13
BRANCH  12  29
HETATM   29  C   UNL     1      -8.331  10.979  67.411  1.00  0.00    -0.126 C  
HETATM   30  O   UNL     1      -7.457  10.192  66.598  1.00  0.00    -0.101 OA 
HETATM   31  H   UNL     1      -6.557  10.440  66.772  1.00  0.00     0.000 HD 
ENDBRANCH  12  29
ENDBRANCH  11  12
ENDBRANCH  10  11
ENDBRANCH   8  10
ENDBRANCH   4   8
TORSDOF 8
ENDMDL
MODEL      273
REMARK 921   NORMALIZED FREE ENERGY PREDICTED BY IDOCK:   -3.88 KCAL/MOL
REMARK 922        TOTAL FREE ENERGY PREDICTED BY IDOCK:   -6.91 KCAL/MOL
REMARK 923 INTER-LIGAND FREE ENERGY PREDICTED BY IDOCK:   -5.73 KCAL/MOL
REMARK 924 INTRA-LIGAND FREE ENERGY PREDICTED BY IDOCK:   -1.17 KCAL/MOL
REMARK 927      BINDING AFFINITY PREDICTED BY RF-SCORE:    0.00 PKD
ROOT
HETATM    1  C   UNL     1     -12.559  15.632  70.457  1.00  0.00    -0.423 C  
HETATM    2  C   UNL     1     -11.335  15.232  69.624  1.00  0.00    -0.304 C  
HETATM    3  C   UNL     1     -10.916  16.400  68.725  1.00  0.00    -0.344 C  
HETATM    4  C   UNL     1     -11.551  13.929  68.815  1.00  0.00    -0.335 C  
HETATM    5  N   UNL     1     -12.688  14.044  67.873  1.00  0.00    -0.008 NA 
HETATM    6  H1  UNL     1     -12.830  13.186  67.341  1.00  0.00     0.000 HD 
HETATM    7  H2  UNL     1     -12.578  14.849  67.257  1.00  0.00     0.000 HD 
ENDROOT
BRANCH   4   8
HETATM    8  C   UNL     1     -11.723  12.716  69.753  1.00  0.00    -0.284 C  
HETATM    9  O   UNL     1     -12.637  12.586  70.558  1.00  0.00    -0.214 OA 
BRANCH   8  10
HETATM   10  O   UNL     1     -10.686  11.834  69.630  1.00  0.00    -0.008 OA 
BRANCH  10  11
HETATM   11  C   UNL     1     -11.029  10.439  69.697  1.00  0.00    -0.277 C  
BRANCH  11  12
HETATM   12  C   UNL     1      -9.771   9.579  69.487  1.00  0.00    -0.190 C  
BRANCH  12  13
HETATM   13  O   UNL     1      -9.725   8.949  68.187  1.00  0.00    -0.153 OA 
BRANCH  13  14
HETATM   14  C   UNL     1      -8.665   9.437  67.366  1.00  0.00    -0.125 C  
BRANCH  14  15
HETATM   15  N   UNL     1      -9.178  10.478  66.503  1.00  0.00    -0.159 NA 
HETATM   16  C   UNL     1     -10.111  10.292  65.511  1.00  0.00    -0.281 A  
HETATM   17  N   UNL     1     -10.493  11.433  64.968  1.00  0.00    -0.290 NA 
HETATM   18  C   UNL     1      -9.781  12.400  65.641  1.00  0.00    -0.172 A  
HETATM   19  C   UNL     1      -8.971  11.813  66.581  1.00  0.00    -0.195 A  
HETATM   20  N   UNL     1      -8.182  12.527  67.392  1.00  0.00    -0.174 NA 
HETATM   21  C   UNL     1      -8.238  13.893  67.260  1.00  0.00    -0.161 C  
HETATM   22  N   UNL     1      -7.463  14.553  68.155  1.00  0.00    -0.114 NA 
HETATM   23  N   UNL     1      -8.967  14.553  66.408  1.00  0.00    -0.469 N  
HETATM   24  H2  UNL     1      -6.895  14.082  68.859  1.00  0.00     0.000 HD 
HETATM   25  H1  UNL     1      -7.504  15.568  68.058  1.00  0.00     0.000 HD 
HETATM   26  H   UNL     1      -8.935  15.573  66.393  1.00  0.00     0.000 HD 
HETATM   27  C   UNL     1      -9.795  13.867  65.511  1.00  0.00    -0.185 C  
HETATM   28  O   UNL     1     -10.488  14.443  64.682  1.00  0.00    -0.412 OA 
ENDBRANCH  14  15
ENDBRANCH  13  14
ENDBRANCH  12  13
BRANCH  12  29
HETATM   29  C   UNL     1      -9.707   8.465  70.543  1.00  0.00    -0.173 C  
HETATM   30  O   UNL     1     -10.473   8.849  71.686  1.00  0.00    -0.284 OA 
HETATM   31  H   UNL     1     -10.433   8.160  72.339  1.00  0.00     0.000 HD 
ENDBRANCH  12  29
ENDBRANCH  11  12
ENDBRANCH  10  11
ENDBRANCH   8  10
ENDBRANCH   4   8
TORSDOF 8
ENDMDL
MODEL      274
REMARK 921   NORMALIZED FREE ENERGY PREDICTED BY IDOCK:   -3.87 KCAL/MOL
REMARK 922        TOTAL FREE ENERGY PREDICTED BY IDOCK:   -6.89 KCAL/MOL
REMARK 923 INTER-LIGAND FREE ENERGY PREDICTED BY IDOCK:   -6.39 KCAL/MOL
REMARK 924 INTRA-LIGAND FREE ENERGY PREDICTED BY IDOCK:   -0.50 KCAL/MOL
REMARK 927      BINDING AFFINITY PREDICTED BY RF-SCORE:    0.00 PKD
ROOT
HETATM    1  C   UNL     1      -5.475  12.524  70.617  1.00  0.00    -0.169 C  
HETATM    2  C   UNL     1      -5.539  13.661  69.589  1.00  0.00    -0.096 C  
HETATM    3  C   UNL     1      -5.795  14.992  70.304  1.00  0.00    -0.147 C  
HETATM    4  C   UNL     1      -6.569  13.404  68.461  1.00  0.00    -0.089 C  
HETATM    5  N   UNL     1      -7.940  13.233  68.993  1.00  0.00    -0.331 NA 
HETATM    6  H1  UNL     1      -8.618  13.064  68.250  1.00  0.00     0.000 HD 
HETATM    7  H2  UNL     1      -8.215  14.027  69.571  1.00  0.00     0.000 HD 
ENDROOT
BRANCH   4   8
HETATM    8  C   UNL     1      -6.150  12.198  67.594  1.00  0.00    -0.110 C  
HETATM    9  O   UNL     1      -5.339  12.250  66.678  1.00  0.00    -0.333 OA 
BRANCH   8  10
HETATM   10  O   UNL     1      -6.851  11.072  67.926  1.00  0.00    -0.066 OA 
BRANCH  10  11
HETATM   11  C   UNL     1      -6.594   9.905  67.125  1.00  0.00    -0.070 C  
BRANCH  11  12
HETATM   12  C   UNL     1      -7.608   8.802  67.465  1.00  0.00    -0.093 C  
BRANCH  12  13
HETATM   13  O   UNL     1      -8.910   9.026  66.876  1.00  0.00    -0.114 OA 
BRANCH  13  14
HETATM   14  C   UNL     1      -9.517  10.242  67.308  1.00  0.00    -0.150 C  
BRANCH  14  15
HETATM   15  N   UNL     1     -10.089  10.917  66.165  1.00  0.00    -0.232 NA 
HETATM   16  C   UNL     1     -10.046  10.453  64.871  1.00  0.00    -0.312 A  
HETATM   17  N   UNL     1     -10.759  11.201  64.051  1.00  0.00    -0.375 NA 
HETATM   18  C   UNL     1     -11.292  12.190  64.848  1.00  0.00    -0.326 A  
HETATM   19  C   UNL     1     -10.877  12.017  66.145  1.00  0.00    -0.286 A  
HETATM   20  N   UNL     1     -11.264  12.830  67.134  1.00  0.00    -0.278 NA 
HETATM   21  C   UNL     1     -12.127  13.844  66.796  1.00  0.00    -0.439 C  
HETATM   22  N   UNL     1     -12.527  14.587  67.857  1.00  0.00    -0.510 NA 
HETATM   23  N   UNL     1     -12.583  14.099  65.605  1.00  0.00    -0.494 N  
HETATM   24  H2  UNL     1     -12.218  14.410  68.813  1.00  0.00     0.000 HD 
HETATM   25  H1  UNL     1     -13.168  15.340  67.607  1.00  0.00     0.000 HD 
HETATM   26  H   UNL     1     -13.224  14.880  65.462  1.00  0.00     0.000 HD 
HETATM   27  C   UNL     1     -12.196  13.304  64.519  1.00  0.00    -0.400 C  
HETATM   28  O   UNL     1     -12.589  13.513  63.377  1.00  0.00    -0.740 OA 
ENDBRANCH  14  15
ENDBRANCH  13  14
ENDBRANCH  12  13
BRANCH  12  29
HETATM   29  C   UNL     1      -7.801   8.707  68.987  1.00  0.00    -0.100 C  
HETATM   30  O   UNL     1      -8.325   7.420  69.319  1.00  0.00    -0.129 OA 
HETATM   31  H   UNL     1      -8.444   7.361  70.260  1.00  0.00     0.000 HD 
ENDBRANCH  12  29
ENDBRANCH  11  12
ENDBRANCH  10  11
ENDBRANCH   8  10
ENDBRANCH   4   8
TORSDOF 8
ENDMDL
MODEL      275
REMARK 921   NORMALIZED FREE ENERGY PREDICTED BY IDOCK:   -3.87 KCAL/MOL
REMARK 922        TOTAL FREE ENERGY PREDICTED BY IDOCK:   -6.89 KCAL/MOL
REMARK 923 INTER-LIGAND FREE ENERGY PREDICTED BY IDOCK:   -6.41 KCAL/MOL
REMARK 924 INTRA-LIGAND FREE ENERGY PREDICTED BY IDOCK:   -0.47 KCAL/MOL
REMARK 927      BINDING AFFINITY PREDICTED BY RF-SCORE:    0.00 PKD
ROOT
HETATM    1  C   UNL     1      -7.345  14.393  67.299  1.00  0.00    -0.070 C  
HETATM    2  C   UNL     1      -6.095  14.889  68.036  1.00  0.00    -0.163 C  
HETATM    3  C   UNL     1      -5.156  13.712  68.315  1.00  0.00    -0.103 C  
HETATM    4  C   UNL     1      -6.425  15.682  69.325  1.00  0.00    -0.145 C  
HETATM    5  N   UNL     1      -7.195  14.868  70.293  1.00  0.00    -0.233 NA 
HETATM    6  H1  UNL     1      -7.412  15.391  71.142  1.00  0.00     0.000 HD 
HETATM    7  H2  UNL     1      -6.715  13.995  70.508  1.00  0.00     0.000 HD 
ENDROOT
BRANCH   4   8
HETATM    8  C   UNL     1      -7.158  16.999  68.993  1.00  0.00    -0.233 C  
HETATM    9  O   UNL     1      -6.621  18.100  68.951  1.00  0.00    -0.224 OA 
BRANCH   8  10
HETATM   10  O   UNL     1      -8.499  16.799  68.822  1.00  0.00    -0.245 OA 
BRANCH  10  11
HETATM   11  C   UNL     1      -9.287  17.973  68.557  1.00  0.00    -0.304 C  
BRANCH  11  12
HETATM   12  C   UNL     1     -10.520  17.599  67.720  1.00  0.00    -0.378 C  
BRANCH  12  13
HETATM   13  O   UNL     1     -10.913  16.216  67.875  1.00  0.00    -0.331 OA 
BRANCH  13  14
HETATM   14  C   UNL     1     -11.917  16.029  68.871  1.00  0.00    -0.119 C  
BRANCH  14  15
HETATM   15  N   UNL     1     -11.841  14.674  69.369  1.00  0.00    -0.312 NA 
HETATM   16  C   UNL     1     -11.987  14.307  70.686  1.00  0.00    -0.322 A  
HETATM   17  N   UNL     1     -12.001  12.997  70.839  1.00  0.00    -0.088 NA 
HETATM   18  C   UNL     1     -11.863  12.491  69.565  1.00  0.00    -0.310 A  
HETATM   19  C   UNL     1     -11.761  13.521  68.664  1.00  0.00    -0.354 A  
HETATM   20  N   UNL     1     -11.636  13.311  67.349  1.00  0.00    -0.331 NA 
HETATM   21  C   UNL     1     -11.641  12.003  66.931  1.00  0.00    -0.318 C  
HETATM   22  N   UNL     1     -11.577  11.867  65.583  1.00  0.00    -0.318 NA 
HETATM   23  N   UNL     1     -11.734  10.953  67.694  1.00  0.00    -0.175 N  
HETATM   24  H2  UNL     1     -11.530  12.659  64.943  1.00  0.00     0.000 HD 
HETATM   25  H1  UNL     1     -11.581  10.895  65.272  1.00  0.00     0.000 HD 
HETATM   26  H   UNL     1     -11.729  10.021  67.280  1.00  0.00     0.000 HD 
HETATM   27  C   UNL     1     -11.839  11.101  69.082  1.00  0.00    -0.350 C  
HETATM   28  O   UNL     1     -11.914  10.143  69.842  1.00  0.00    -0.191 OA 
ENDBRANCH  14  15
ENDBRANCH  13  14
ENDBRANCH  12  13
BRANCH  12  29
HETATM   29  C   UNL     1     -10.241  17.834  66.227  1.00  0.00    -0.364 C  
HETATM   30  O   UNL     1      -9.631  19.114  66.054  1.00  0.00    -0.432 OA 
HETATM   31  H   UNL     1      -9.459  19.260  65.132  1.00  0.00     0.000 HD 
ENDBRANCH  12  29
ENDBRANCH  11  12
ENDBRANCH  10  11
ENDBRANCH   8  10
ENDBRANCH   4   8
TORSDOF 8
ENDMDL
MODEL      276
REMARK 921   NORMALIZED FREE ENERGY PREDICTED BY IDOCK:   -3.86 KCAL/MOL
REMARK 922        TOTAL FREE ENERGY PREDICTED BY IDOCK:   -6.87 KCAL/MOL
REMARK 923 INTER-LIGAND FREE ENERGY PREDICTED BY IDOCK:   -6.69 KCAL/MOL
REMARK 924 INTRA-LIGAND FREE ENERGY PREDICTED BY IDOCK:   -0.18 KCAL/MOL
REMARK 927      BINDING AFFINITY PREDICTED BY RF-SCORE:    0.00 PKD
ROOT
HETATM    1  C   UNL     1      -6.704  10.182  68.459  1.00  0.00    -0.057 C  
HETATM    2  C   UNL     1      -8.053  10.900  68.327  1.00  0.00    -0.124 C  
HETATM    3  C   UNL     1      -9.184   9.870  68.246  1.00  0.00    -0.130 C  
HETATM    4  C   UNL     1      -8.096  11.899  67.143  1.00  0.00    -0.172 C  
HETATM    5  N   UNL     1      -7.841  11.231  65.847  1.00  0.00    -0.370 NA 
HETATM    6  H1  UNL     1      -7.869  11.888  65.068  1.00  0.00     0.000 HD 
HETATM    7  H2  UNL     1      -8.483  10.452  65.698  1.00  0.00     0.000 HD 
ENDROOT
BRANCH   4   8
HETATM    8  C   UNL     1      -7.118  13.070  67.371  1.00  0.00    -0.117 C  
HETATM    9  O   UNL     1      -5.912  13.018  67.162  1.00  0.00    -0.326 OA 
BRANCH   8  10
HETATM   10  O   UNL     1      -7.751  14.157  67.907  1.00  0.00    -0.127 OA 
BRANCH  10  11
HETATM   11  C   UNL     1      -8.149  15.181  66.978  1.00  0.00    -0.205 C  
BRANCH  11  12
HETATM   12  C   UNL     1      -9.117  16.161  67.661  1.00  0.00    -0.196 C  
BRANCH  12  13
HETATM   13  O   UNL     1     -10.499  15.741  67.582  1.00  0.00    -0.269 OA 
BRANCH  13  14
HETATM   14  C   UNL     1     -11.279  16.175  68.695  1.00  0.00    -0.369 C  
BRANCH  14  15
HETATM   15  N   UNL     1     -11.501  15.055  69.581  1.00  0.00    -0.276 NA 
HETATM   16  C   UNL     1     -11.744  15.152  70.931  1.00  0.00    -0.332 A  
HETATM   17  N   UNL     1     -12.039  13.983  71.469  1.00  0.00    -0.206 NA 
HETATM   18  C   UNL     1     -11.991  13.091  70.421  1.00  0.00    -0.258 A  
HETATM   19  C   UNL     1     -11.656  13.749  69.263  1.00  0.00    -0.312 A  
HETATM   20  N   UNL     1     -11.557  13.120  68.087  1.00  0.00    -0.317 NA 
HETATM   21  C   UNL     1     -11.834  11.775  68.081  1.00  0.00    -0.254 C  
HETATM   22  N   UNL     1     -11.778  11.218  66.847  1.00  0.00    -0.403 NA 
HETATM   23  N   UNL     1     -12.161  11.054  69.114  1.00  0.00    -0.439 N  
HETATM   24  H2  UNL     1     -11.552  11.746  66.004  1.00  0.00     0.000 HD 
HETATM   25  H1  UNL     1     -11.983  10.218  66.842  1.00  0.00     0.000 HD 
HETATM   26  H   UNL     1     -12.348  10.058  69.000  1.00  0.00     0.000 HD 
HETATM   27  C   UNL     1     -12.255  11.643  70.381  1.00  0.00    -0.347 C  
HETATM   28  O   UNL     1     -12.546  11.003  71.384  1.00  0.00    -0.390 OA 
ENDBRANCH  14  15
ENDBRANCH  13  14
ENDBRANCH  12  13
BRANCH  12  29
HETATM   29  C   UNL     1      -9.019  17.548  67.008  1.00  0.00    -0.240 C  
HETATM   30  O   UNL     1      -8.639  17.402  65.638  1.00  0.00    -0.456 OA 
HETATM   31  H   UNL     1      -8.578  18.259  65.235  1.00  0.00     0.000 HD 
ENDBRANCH  12  29
ENDBRANCH  11  12
ENDBRANCH  10  11
ENDBRANCH   8  10
ENDBRANCH   4   8
TORSDOF 8
ENDMDL
MODEL      277
REMARK 921   NORMALIZED FREE ENERGY PREDICTED BY IDOCK:   -3.85 KCAL/MOL
REMARK 922        TOTAL FREE ENERGY PREDICTED BY IDOCK:   -6.87 KCAL/MOL
REMARK 923 INTER-LIGAND FREE ENERGY PREDICTED BY IDOCK:   -6.07 KCAL/MOL
REMARK 924 INTRA-LIGAND FREE ENERGY PREDICTED BY IDOCK:   -0.80 KCAL/MOL
REMARK 927      BINDING AFFINITY PREDICTED BY RF-SCORE:    0.00 PKD
ROOT
HETATM    1  C   UNL     1     -12.476  12.837  63.229  1.00  0.00    -0.344 C  
HETATM    2  C   UNL     1     -12.092  12.628  64.699  1.00  0.00    -0.484 C  
HETATM    3  C   UNL     1     -12.719  13.729  65.560  1.00  0.00    -0.530 C  
HETATM    4  C   UNL     1     -10.562  12.523  64.919  1.00  0.00    -0.301 C  
HETATM    5  N   UNL     1      -9.854  13.741  64.464  1.00  0.00    -0.653 NA 
HETATM    6  H1  UNL     1      -8.847  13.672  64.609  1.00  0.00     0.000 HD 
HETATM    7  H2  UNL     1     -10.235  14.578  64.904  1.00  0.00     0.000 HD 
ENDROOT
BRANCH   4   8
HETATM    8  C   UNL     1      -9.991  11.258  64.245  1.00  0.00    -0.297 C  
HETATM    9  O   UNL     1      -9.329  11.260  63.214  1.00  0.00    -0.275 OA 
BRANCH   8  10
HETATM   10  O   UNL     1     -10.376  10.122  64.899  1.00  0.00    -0.236 OA 
BRANCH  10  11
HETATM   11  C   UNL     1      -9.668   9.819  66.115  1.00  0.00    -0.246 C  
BRANCH  11  12
HETATM   12  C   UNL     1      -8.899   8.497  65.957  1.00  0.00    -0.173 C  
BRANCH  12  13
HETATM   13  O   UNL     1      -9.163   7.556  67.023  1.00  0.00    -0.128 OA 
BRANCH  13  14
HETATM   14  C   UNL     1     -10.255   7.945  67.854  1.00  0.00    -0.209 C  
BRANCH  14  15
HETATM   15  N   UNL     1     -10.213   7.179  69.079  1.00  0.00    -0.184 NA 
HETATM   16  C   UNL     1     -10.840   5.971  69.277  1.00  0.00    -0.358 A  
HETATM   17  N   UNL     1     -10.526   5.433  70.441  1.00  0.00    -0.280 NA 
HETATM   18  C   UNL     1      -9.655   6.329  71.020  1.00  0.00    -0.175 A  
HETATM   19  C   UNL     1      -9.466   7.402  70.185  1.00  0.00    -0.165 A  
HETATM   20  N   UNL     1      -8.649   8.415  70.496  1.00  0.00    -0.128 NA 
HETATM   21  C   UNL     1      -7.977   8.321  71.690  1.00  0.00    -0.128 C  
HETATM   22  N   UNL     1      -7.120   9.348  71.909  1.00  0.00    -0.236 NA 
HETATM   23  N   UNL     1      -8.079   7.353  72.554  1.00  0.00    -0.098 N  
HETATM   24  H2  UNL     1      -6.987  10.115  71.251  1.00  0.00     0.000 HD 
HETATM   25  H1  UNL     1      -6.621   9.279  72.796  1.00  0.00     0.000 HD 
HETATM   26  H   UNL     1      -7.532   7.380  73.415  1.00  0.00     0.000 HD 
HETATM   27  C   UNL     1      -8.937   6.275  72.305  1.00  0.00    -0.136 C  
HETATM   28  O   UNL     1      -9.077   5.349  73.094  1.00  0.00    -0.127 OA 
ENDBRANCH  14  15
ENDBRANCH  13  14
ENDBRANCH  12  13
BRANCH  12  29
HETATM   29  C   UNL     1      -7.386   8.761  65.941  1.00  0.00    -0.085 C  
HETATM   30  O   UNL     1      -7.138  10.124  66.293  1.00  0.00    -0.099 OA 
HETATM   31  H   UNL     1      -6.202  10.287  66.283  1.00  0.00     0.000 HD 
ENDBRANCH  12  29
ENDBRANCH  11  12
ENDBRANCH  10  11
ENDBRANCH   8  10
ENDBRANCH   4   8
TORSDOF 8
ENDMDL
MODEL      278
REMARK 921   NORMALIZED FREE ENERGY PREDICTED BY IDOCK:   -3.85 KCAL/MOL
REMARK 922        TOTAL FREE ENERGY PREDICTED BY IDOCK:   -6.86 KCAL/MOL
REMARK 923 INTER-LIGAND FREE ENERGY PREDICTED BY IDOCK:   -5.86 KCAL/MOL
REMARK 924 INTRA-LIGAND FREE ENERGY PREDICTED BY IDOCK:   -1.00 KCAL/MOL
REMARK 927      BINDING AFFINITY PREDICTED BY RF-SCORE:    0.00 PKD
ROOT
HETATM    1  C   UNL     1      -9.428  14.059  67.912  1.00  0.00    -0.210 C  
HETATM    2  C   UNL     1     -10.400  12.984  67.410  1.00  0.00    -0.234 C  
HETATM    3  C   UNL     1     -10.362  12.925  65.879  1.00  0.00    -0.297 C  
HETATM    4  C   UNL     1     -11.842  13.171  67.945  1.00  0.00    -0.348 C  
HETATM    5  N   UNL     1     -12.413  14.478  67.551  1.00  0.00    -0.505 NA 
HETATM    6  H1  UNL     1     -13.362  14.601  67.903  1.00  0.00     0.000 HD 
HETATM    7  H2  UNL     1     -12.373  14.611  66.540  1.00  0.00     0.000 HD 
ENDROOT
BRANCH   4   8
HETATM    8  C   UNL     1     -11.894  12.975  69.474  1.00  0.00    -0.323 C  
HETATM    9  O   UNL     1     -12.231  13.841  70.274  1.00  0.00    -0.326 OA 
BRANCH   8  10
HETATM   10  O   UNL     1     -11.448  11.736  69.839  1.00  0.00    -0.272 OA 
BRANCH  10  11
HETATM   11  C   UNL     1     -12.407  10.666  69.757  1.00  0.00    -0.194 C  
BRANCH  11  12
HETATM   12  C   UNL     1     -12.413   9.867  71.070  1.00  0.00    -0.346 C  
BRANCH  12  13
HETATM   13  O   UNL     1     -11.659   8.636  70.989  1.00  0.00    -0.275 OA 
BRANCH  13  14
HETATM   14  C   UNL     1     -10.275   8.808  71.288  1.00  0.00    -0.262 C  
BRANCH  14  15
HETATM   15  N   UNL     1      -9.495   8.491  70.112  1.00  0.00    -0.163 NA 
HETATM   16  C   UNL     1      -9.917   7.689  69.078  1.00  0.00    -0.181 A  
HETATM   17  N   UNL     1      -9.057   7.676  68.076  1.00  0.00    -0.135 NA 
HETATM   18  C   UNL     1      -8.037   8.511  68.477  1.00  0.00    -0.122 A  
HETATM   19  C   UNL     1      -8.305   9.007  69.728  1.00  0.00    -0.129 A  
HETATM   20  N   UNL     1      -7.484   9.861  70.350  1.00  0.00    -0.241 NA 
HETATM   21  C   UNL     1      -6.359  10.246  69.662  1.00  0.00    -0.062 C  
HETATM   22  N   UNL     1      -5.608  11.160  70.323  1.00  0.00    -0.100 NA 
HETATM   23  N   UNL     1      -6.008   9.841  68.476  1.00  0.00    -0.042 N  
HETATM   24  H2  UNL     1      -5.855  11.527  71.242  1.00  0.00     0.000 HD 
HETATM   25  H1  UNL     1      -4.772  11.445  69.813  1.00  0.00     0.000 HD 
HETATM   26  H   UNL     1      -5.149  10.191  68.052  1.00  0.00     0.000 HD 
HETATM   27  C   UNL     1      -6.808   8.925  67.780  1.00  0.00    -0.070 C  
HETATM   28  O   UNL     1      -6.512   8.505  66.668  1.00  0.00    -0.058 OA 
ENDBRANCH  14  15
ENDBRANCH  13  14
ENDBRANCH  12  13
BRANCH  12  29
HETATM   29  C   UNL     1     -13.853   9.501  71.463  1.00  0.00    -0.194 C  
HETATM   30  O   UNL     1     -13.860   8.954  72.783  1.00  0.00    -0.776 OA 
HETATM   31  H   UNL     1     -14.750   8.727  73.025  1.00  0.00     0.000 HD 
ENDBRANCH  12  29
ENDBRANCH  11  12
ENDBRANCH  10  11
ENDBRANCH   8  10
ENDBRANCH   4   8
TORSDOF 8
ENDMDL
MODEL      279
REMARK 921   NORMALIZED FREE ENERGY PREDICTED BY IDOCK:   -3.83 KCAL/MOL
REMARK 922        TOTAL FREE ENERGY PREDICTED BY IDOCK:   -6.84 KCAL/MOL
REMARK 923 INTER-LIGAND FREE ENERGY PREDICTED BY IDOCK:   -6.16 KCAL/MOL
REMARK 924 INTRA-LIGAND FREE ENERGY PREDICTED BY IDOCK:   -0.68 KCAL/MOL
REMARK 927      BINDING AFFINITY PREDICTED BY RF-SCORE:    0.00 PKD
ROOT
HETATM    1  C   UNL     1     -12.568  12.921  65.245  1.00  0.00    -0.502 C  
HETATM    2  C   UNL     1     -11.779  12.568  66.512  1.00  0.00    -0.454 C  
HETATM    3  C   UNL     1     -11.981  13.658  67.570  1.00  0.00    -0.393 C  
HETATM    4  C   UNL     1     -10.277  12.302  66.237  1.00  0.00    -0.229 C  
HETATM    5  N   UNL     1      -9.609  13.476  65.632  1.00  0.00    -0.499 NA 
HETATM    6  H1  UNL     1      -8.621  13.301  65.452  1.00  0.00     0.000 HD 
HETATM    7  H2  UNL     1      -9.738  14.311  66.203  1.00  0.00     0.000 HD 
ENDROOT
BRANCH   4   8
HETATM    8  C   UNL     1     -10.089  11.041  65.368  1.00  0.00    -0.269 C  
HETATM    9  O   UNL     1      -9.734  11.054  64.195  1.00  0.00    -0.240 OA 
BRANCH   8  10
HETATM   10  O   UNL     1     -10.437   9.906  66.045  1.00  0.00    -0.170 OA 
BRANCH  10  11
HETATM   11  C   UNL     1      -9.372   9.226  66.733  1.00  0.00    -0.156 C  
BRANCH  11  12
HETATM   12  C   UNL     1      -9.491   7.709  66.512  1.00  0.00    -0.190 C  
BRANCH  12  13
HETATM   13  O   UNL     1      -9.560   6.959  67.746  1.00  0.00    -0.123 OA 
BRANCH  13  14
HETATM   14  C   UNL     1     -10.897   6.701  68.169  1.00  0.00    -0.263 C  
BRANCH  14  15
HETATM   15  N   UNL     1     -10.903   6.455  69.594  1.00  0.00    -0.284 NA 
HETATM   16  C   UNL     1     -11.648   7.155  70.513  1.00  0.00    -0.290 A  
HETATM   17  N   UNL     1     -11.561   6.636  71.723  1.00  0.00    -0.287 NA 
HETATM   18  C   UNL     1     -10.727   5.549  71.581  1.00  0.00    -0.231 A  
HETATM   19  C   UNL     1     -10.320   5.441  70.275  1.00  0.00    -0.287 A  
HETATM   20  N   UNL     1      -9.516   4.458  69.855  1.00  0.00    -0.163 NA 
HETATM   21  C   UNL     1      -9.131   3.533  70.794  1.00  0.00    -0.111 C  
HETATM   22  N   UNL     1      -8.373   2.531  70.286  1.00  0.00    -0.041 NA 
HETATM   23  N   UNL     1      -9.456   3.537  72.054  1.00  0.00    -0.123 N  
HETATM   24  H2  UNL     1      -8.113   2.470  69.301  1.00  0.00     0.000 HD 
HETATM   25  H1  UNL     1      -8.086   1.844  70.983  1.00  0.00     0.000 HD 
HETATM   26  H   UNL     1      -9.116   2.798  72.670  1.00  0.00     0.000 HD 
HETATM   27  C   UNL     1     -10.273   4.553  72.566  1.00  0.00    -0.186 C  
HETATM   28  O   UNL     1     -10.594   4.607  73.747  1.00  0.00    -0.209 OA 
ENDBRANCH  14  15
ENDBRANCH  13  14
ENDBRANCH  12  13
BRANCH  12  29
HETATM   29  C   UNL     1      -8.278   7.190  65.724  1.00  0.00    -0.132 C  
HETATM   30  O   UNL     1      -8.297   7.741  64.406  1.00  0.00    -0.332 OA 
HETATM   31  H   UNL     1      -7.548   7.420  63.919  1.00  0.00     0.000 HD 
ENDBRANCH  12  29
ENDBRANCH  11  12
ENDBRANCH  10  11
ENDBRANCH   8  10
ENDBRANCH   4   8
TORSDOF 8
ENDMDL
MODEL      280
REMARK 921   NORMALIZED FREE ENERGY PREDICTED BY IDOCK:   -3.83 KCAL/MOL
REMARK 922        TOTAL FREE ENERGY PREDICTED BY IDOCK:   -6.84 KCAL/MOL
REMARK 923 INTER-LIGAND FREE ENERGY PREDICTED BY IDOCK:   -6.13 KCAL/MOL
REMARK 924 INTRA-LIGAND FREE ENERGY PREDICTED BY IDOCK:   -0.71 KCAL/MOL
REMARK 927      BINDING AFFINITY PREDICTED BY RF-SCORE:    0.00 PKD
ROOT
HETATM    1  C   UNL     1     -13.191  10.797  69.738  1.00  0.00     0.712 C  
HETATM    2  C   UNL     1     -12.095  11.114  70.762  1.00  0.00    -0.458 C  
HETATM    3  C   UNL     1     -11.639   9.824  71.451  1.00  0.00    -0.452 C  
HETATM    4  C   UNL     1     -12.516  12.198  71.787  1.00  0.00     0.149 C  
HETATM    5  N   UNL     1     -13.714  11.794  72.557  1.00  0.00    -0.322 NA 
HETATM    6  H1  UNL     1     -13.991  12.507  73.231  1.00  0.00     0.000 HD 
HETATM    7  H2  UNL     1     -13.577  10.890  73.009  1.00  0.00     0.000 HD 
ENDROOT
BRANCH   4   8
HETATM    8  C   UNL     1     -12.728  13.560  71.096  1.00  0.00    -0.344 C  
HETATM    9  O   UNL     1     -13.813  14.116  70.975  1.00  0.00    -0.192 OA 
BRANCH   8  10
HETATM   10  O   UNL     1     -11.563  14.042  70.566  1.00  0.00    -0.230 OA 
BRANCH  10  11
HETATM   11  C   UNL     1     -11.325  13.742  69.179  1.00  0.00    -0.281 C  
BRANCH  11  12
HETATM   12  C   UNL     1     -10.894  15.016  68.434  1.00  0.00    -0.256 C  
BRANCH  12  13
HETATM   13  O   UNL     1     -11.159  14.959  67.013  1.00  0.00    -0.323 OA 
BRANCH  13  14
HETATM   14  C   UNL     1     -12.163  14.006  66.670  1.00  0.00    -0.428 C  
BRANCH  14  15
HETATM   15  N   UNL     1     -11.730  13.263  65.508  1.00  0.00    -0.331 NA 
HETATM   16  C   UNL     1     -12.142  13.503  64.218  1.00  0.00    -0.431 A  
HETATM   17  N   UNL     1     -11.490  12.762  63.342  1.00  0.00    -0.470 NA 
HETATM   18  C   UNL     1     -10.614  12.012  64.096  1.00  0.00    -0.355 A  
HETATM   19  C   UNL     1     -10.765  12.318  65.426  1.00  0.00    -0.284 A  
HETATM   20  N   UNL     1     -10.021  11.746  66.379  1.00  0.00    -0.206 NA 
HETATM   21  C   UNL     1      -9.069  10.847  65.963  1.00  0.00    -0.191 C  
HETATM   22  N   UNL     1      -8.311  10.357  66.974  1.00  0.00    -0.126 NA 
HETATM   23  N   UNL     1      -8.840  10.486  64.734  1.00  0.00    -0.190 N  
HETATM   24  H2  UNL     1      -8.435  10.629  67.949  1.00  0.00     0.000 HD 
HETATM   25  H1  UNL     1      -7.604   9.690  66.665  1.00  0.00     0.000 HD 
HETATM   26  H   UNL     1      -8.105   9.808  64.531  1.00  0.00     0.000 HD 
HETATM   27  C   UNL     1      -9.601  11.025  63.689  1.00  0.00    -0.292 C  
HETATM   28  O   UNL     1      -9.431  10.705  62.518  1.00  0.00    -0.278 OA 
ENDBRANCH  14  15
ENDBRANCH  13  14
ENDBRANCH  12  13
BRANCH  12  29
HETATM   29  C   UNL     1      -9.386  15.252  68.612  1.00  0.00    -0.201 C  
HETATM   30  O   UNL     1      -8.734  14.002  68.843  1.00  0.00    -0.346 OA 
HETATM   31  H   UNL     1      -7.802  14.148  68.953  1.00  0.00     0.000 HD 
ENDBRANCH  12  29
ENDBRANCH  11  12
ENDBRANCH  10  11
ENDBRANCH   8  10
ENDBRANCH   4   8
TORSDOF 8
ENDMDL
MODEL      281
REMARK 921   NORMALIZED FREE ENERGY PREDICTED BY IDOCK:   -3.83 KCAL/MOL
REMARK 922        TOTAL FREE ENERGY PREDICTED BY IDOCK:   -6.84 KCAL/MOL
REMARK 923 INTER-LIGAND FREE ENERGY PREDICTED BY IDOCK:   -6.14 KCAL/MOL
REMARK 924 INTRA-LIGAND FREE ENERGY PREDICTED BY IDOCK:   -0.69 KCAL/MOL
REMARK 927      BINDING AFFINITY PREDICTED BY RF-SCORE:    0.00 PKD
ROOT
HETATM    1  C   UNL     1     -11.002  16.168  68.891  1.00  0.00    -0.324 C  
HETATM    2  C   UNL     1     -10.413  15.781  67.529  1.00  0.00    -0.288 C  
HETATM    3  C   UNL     1     -10.635  16.917  66.526  1.00  0.00    -0.185 C  
HETATM    4  C   UNL     1     -10.949  14.428  66.997  1.00  0.00    -0.304 C  
HETATM    5  N   UNL     1     -12.421  14.442  66.836  1.00  0.00    -0.510 NA 
HETATM    6  H1  UNL     1     -12.773  13.551  66.486  1.00  0.00     0.000 HD 
HETATM    7  H2  UNL     1     -12.722  15.217  66.246  1.00  0.00     0.000 HD 
ENDROOT
BRANCH   4   8
HETATM    8  C   UNL     1     -10.495  13.261  67.898  1.00  0.00    -0.240 C  
HETATM    9  O   UNL     1     -11.159  12.794  68.816  1.00  0.00    -0.239 OA 
BRANCH   8  10
HETATM   10  O   UNL     1      -9.227  12.854  67.594  1.00  0.00    -0.178 OA 
BRANCH  10  11
HETATM   11  C   UNL     1      -8.704  11.766  68.376  1.00  0.00    -0.155 C  
BRANCH  11  12
HETATM   12  C   UNL     1      -9.258  10.431  67.853  1.00  0.00    -0.139 C  
BRANCH  12  13
HETATM   13  O   UNL     1      -9.224   9.375  68.840  1.00  0.00    -0.136 OA 
BRANCH  13  14
HETATM   14  C   UNL     1      -9.467   8.084  68.286  1.00  0.00    -0.141 C  
BRANCH  14  15
HETATM   15  N   UNL     1      -9.704   7.146  69.361  1.00  0.00    -0.160 NA 
HETATM   16  C   UNL     1      -8.792   6.226  69.821  1.00  0.00    -0.140 A  
HETATM   17  N   UNL     1      -9.225   5.589  70.893  1.00  0.00    -0.149 NA 
HETATM   18  C   UNL     1     -10.471   6.123  71.141  1.00  0.00    -0.230 A  
HETATM   19  C   UNL     1     -10.765   7.076  70.198  1.00  0.00    -0.240 A  
HETATM   20  N   UNL     1     -11.910   7.768  70.214  1.00  0.00     0.029 NA 
HETATM   21  C   UNL     1     -12.777   7.500  71.244  1.00  0.00    -0.302 C  
HETATM   22  N   UNL     1     -13.884   8.283  71.235  1.00  0.00    -0.587 NA 
HETATM   23  N   UNL     1     -12.600   6.623  72.189  1.00  0.00    -0.549 N  
HETATM   24  H2  UNL     1     -14.056   9.001  70.531  1.00  0.00     0.000 HD 
HETATM   25  H1  UNL     1     -14.529   8.084  72.000  1.00  0.00     0.000 HD 
HETATM   26  H   UNL     1     -13.311   6.503  72.911  1.00  0.00     0.000 HD 
HETATM   27  C   UNL     1     -11.437   5.844  72.216  1.00  0.00    -0.297 C  
HETATM   28  O   UNL     1     -11.232   4.997  73.077  1.00  0.00    -0.283 OA 
ENDBRANCH  14  15
ENDBRANCH  13  14
ENDBRANCH  12  13
BRANCH  12  29
HETATM   29  C   UNL     1      -8.442   9.955  66.641  1.00  0.00    -0.125 C  
HETATM   30  O   UNL     1      -8.361  11.009  65.680  1.00  0.00    -0.274 OA 
HETATM   31  H   UNL     1      -7.857  10.714  64.930  1.00  0.00     0.000 HD 
ENDBRANCH  12  29
ENDBRANCH  11  12
ENDBRANCH  10  11
ENDBRANCH   8  10
ENDBRANCH   4   8
TORSDOF 8
ENDMDL
MODEL      282
REMARK 921   NORMALIZED FREE ENERGY PREDICTED BY IDOCK:   -3.83 KCAL/MOL
REMARK 922        TOTAL FREE ENERGY PREDICTED BY IDOCK:   -6.83 KCAL/MOL
REMARK 923 INTER-LIGAND FREE ENERGY PREDICTED BY IDOCK:   -6.13 KCAL/MOL
REMARK 924 INTRA-LIGAND FREE ENERGY PREDICTED BY IDOCK:   -0.71 KCAL/MOL
REMARK 927      BINDING AFFINITY PREDICTED BY RF-SCORE:    0.00 PKD
ROOT
HETATM    1  C   UNL     1      -7.750  19.660  68.875  1.00  0.00    -0.326 C  
HETATM    2  C   UNL     1      -7.825  19.246  67.400  1.00  0.00    -0.283 C  
HETATM    3  C   UNL     1      -7.397  20.418  66.511  1.00  0.00    -0.287 C  
HETATM    4  C   UNL     1      -9.214  18.690  66.996  1.00  0.00    -0.291 C  
HETATM    5  N   UNL     1     -10.291  19.681  67.215  1.00  0.00    -0.421 NA 
HETATM    6  H1  UNL     1     -11.205  19.315  66.949  1.00  0.00     0.000 HD 
HETATM    7  H2  UNL     1     -10.090  20.560  66.738  1.00  0.00     0.000 HD 
ENDROOT
BRANCH   4   8
HETATM    8  C   UNL     1      -9.514  17.365  67.726  1.00  0.00    -0.261 C  
HETATM    9  O   UNL     1     -10.522  17.151  68.389  1.00  0.00    -0.334 OA 
BRANCH   8  10
HETATM   10  O   UNL     1      -8.481  16.479  67.605  1.00  0.00    -0.171 OA 
BRANCH  10  11
HETATM   11  C   UNL     1      -8.684  15.183  68.197  1.00  0.00    -0.167 C  
BRANCH  11  12
HETATM   12  C   UNL     1      -7.687  14.174  67.604  1.00  0.00    -0.174 C  
BRANCH  12  13
HETATM   13  O   UNL     1      -8.096  12.799  67.782  1.00  0.00    -0.142 OA 
BRANCH  13  14
HETATM   14  C   UNL     1      -9.377  12.520  67.220  1.00  0.00    -0.190 C  
BRANCH  14  15
HETATM   15  N   UNL     1     -10.315  12.260  68.288  1.00  0.00    -0.216 NA 
HETATM   16  C   UNL     1     -11.367  13.076  68.631  1.00  0.00    -0.291 A  
HETATM   17  N   UNL     1     -12.138  12.533  69.555  1.00  0.00    -0.235 NA 
HETATM   18  C   UNL     1     -11.563  11.309  69.819  1.00  0.00    -0.333 A  
HETATM   19  C   UNL     1     -10.442  11.144  69.043  1.00  0.00    -0.206 A  
HETATM   20  N   UNL     1      -9.700  10.032  69.087  1.00  0.00    -0.197 NA 
HETATM   21  C   UNL     1     -10.129   9.038  69.932  1.00  0.00    -0.201 C  
HETATM   22  N   UNL     1      -9.368   7.917  69.876  1.00  0.00    -0.157 NA 
HETATM   23  N   UNL     1     -11.173   9.086  70.708  1.00  0.00    -0.263 N  
HETATM   24  H2  UNL     1      -8.557   7.821  69.265  1.00  0.00     0.000 HD 
HETATM   25  H1  UNL     1      -9.686   7.178  70.504  1.00  0.00     0.000 HD 
HETATM   26  H   UNL     1     -11.405   8.288  71.299  1.00  0.00     0.000 HD 
HETATM   27  C   UNL     1     -11.977  10.232  70.733  1.00  0.00    -0.360 C  
HETATM   28  O   UNL     1     -12.961  10.330  71.456  1.00  0.00    -0.381 OA 
ENDBRANCH  14  15
ENDBRANCH  13  14
ENDBRANCH  12  13
BRANCH  12  29
HETATM   29  C   UNL     1      -6.310  14.335  68.267  1.00  0.00    -0.118 C  
HETATM   30  O   UNL     1      -5.766  15.612  67.927  1.00  0.00    -0.121 OA 
HETATM   31  H   UNL     1      -4.915  15.711  68.337  1.00  0.00     0.000 HD 
ENDBRANCH  12  29
ENDBRANCH  11  12
ENDBRANCH  10  11
ENDBRANCH   8  10
ENDBRANCH   4   8
TORSDOF 8
ENDMDL
MODEL      283
REMARK 921   NORMALIZED FREE ENERGY PREDICTED BY IDOCK:   -3.81 KCAL/MOL
REMARK 922        TOTAL FREE ENERGY PREDICTED BY IDOCK:   -6.81 KCAL/MOL
REMARK 923 INTER-LIGAND FREE ENERGY PREDICTED BY IDOCK:   -6.51 KCAL/MOL
REMARK 924 INTRA-LIGAND FREE ENERGY PREDICTED BY IDOCK:   -0.30 KCAL/MOL
REMARK 927      BINDING AFFINITY PREDICTED BY RF-SCORE:    0.00 PKD
ROOT
HETATM    1  C   UNL     1      -8.414  18.393  68.387  1.00  0.00    -0.345 C  
HETATM    2  C   UNL     1      -9.695  18.915  67.726  1.00  0.00    -0.371 C  
HETATM    3  C   UNL     1     -10.284  20.055  68.564  1.00  0.00    -0.484 C  
HETATM    4  C   UNL     1     -10.737  17.801  67.454  1.00  0.00    -0.279 C  
HETATM    5  N   UNL     1     -11.150  17.115  68.699  1.00  0.00    -0.219 NA 
HETATM    6  H1  UNL     1     -11.835  16.382  68.520  1.00  0.00     0.000 HD 
HETATM    7  H2  UNL     1     -11.491  17.780  69.393  1.00  0.00     0.000 HD 
ENDROOT
BRANCH   4   8
HETATM    8  C   UNL     1     -10.212  16.795  66.409  1.00  0.00    -0.323 C  
HETATM    9  O   UNL     1      -9.409  17.069  65.524  1.00  0.00    -0.457 OA 
BRANCH   8  10
HETATM   10  O   UNL     1     -10.808  15.573  66.543  1.00  0.00    -0.313 OA 
BRANCH  10  11
HETATM   11  C   UNL     1     -10.654  14.667  65.435  1.00  0.00    -0.374 C  
BRANCH  11  12
HETATM   12  C   UNL     1     -11.605  13.470  65.602  1.00  0.00    -0.325 C  
BRANCH  12  13
HETATM   13  O   UNL     1     -11.004  12.211  65.222  1.00  0.00    -0.288 OA 
BRANCH  13  14
HETATM   14  C   UNL     1     -10.857  11.309  66.318  1.00  0.00    -0.238 C  
BRANCH  14  15
HETATM   15  N   UNL     1      -9.505  11.396  66.822  1.00  0.00    -0.179 NA 
HETATM   16  C   UNL     1      -8.547  12.271  66.368  1.00  0.00     0.041 A  
HETATM   17  N   UNL     1      -7.446  12.224  67.093  1.00  0.00    -0.141 NA 
HETATM   18  C   UNL     1      -7.703  11.280  68.063  1.00  0.00    -0.108 A  
HETATM   19  C   UNL     1      -8.966  10.770  67.894  1.00  0.00    -0.139 A  
HETATM   20  N   UNL     1      -9.479   9.846  68.713  1.00  0.00    -0.152 NA 
HETATM   21  C   UNL     1      -8.688   9.443  69.761  1.00  0.00    -0.181 C  
HETATM   22  N   UNL     1      -9.296   8.556  70.587  1.00  0.00    -0.166 NA 
HETATM   23  N   UNL     1      -7.482   9.859  70.017  1.00  0.00    -0.153 N  
HETATM   24  H2  UNL     1     -10.248   8.220  70.443  1.00  0.00     0.000 HD 
HETATM   25  H1  UNL     1      -8.708   8.257  71.365  1.00  0.00     0.000 HD 
HETATM   26  H   UNL     1      -6.978   9.495  70.826  1.00  0.00     0.000 HD 
HETATM   27  C   UNL     1      -6.873  10.805  69.183  1.00  0.00    -0.084 C  
HETATM   28  O   UNL     1      -5.735  11.216  69.375  1.00  0.00    -0.041 OA 
ENDBRANCH  14  15
ENDBRANCH  13  14
ENDBRANCH  12  13
BRANCH  12  29
HETATM   29  C   UNL     1     -12.859  13.663  64.735  1.00  0.00    -0.123 C  
HETATM   30  O   UNL     1     -12.467  13.943  63.389  1.00  0.00    -1.068 OA 
HETATM   31  H   UNL     1     -13.242  14.062  62.853  1.00  0.00     0.000 HD 
ENDBRANCH  12  29
ENDBRANCH  11  12
ENDBRANCH  10  11
ENDBRANCH   8  10
ENDBRANCH   4   8
TORSDOF 8
ENDMDL
MODEL      284
REMARK 921   NORMALIZED FREE ENERGY PREDICTED BY IDOCK:   -3.80 KCAL/MOL
REMARK 922        TOTAL FREE ENERGY PREDICTED BY IDOCK:   -6.80 KCAL/MOL
REMARK 923 INTER-LIGAND FREE ENERGY PREDICTED BY IDOCK:   -5.91 KCAL/MOL
REMARK 924 INTRA-LIGAND FREE ENERGY PREDICTED BY IDOCK:   -0.89 KCAL/MOL
REMARK 927      BINDING AFFINITY PREDICTED BY RF-SCORE:    0.00 PKD
ROOT
HETATM    1  C   UNL     1     -12.458  12.199  64.231  1.00  0.00    -0.461 C  
HETATM    2  C   UNL     1     -12.221  13.372  65.190  1.00  0.00    -0.473 C  
HETATM    3  C   UNL     1     -12.209  14.689  64.407  1.00  0.00    -0.473 C  
HETATM    4  C   UNL     1     -10.945  13.203  66.054  1.00  0.00    -0.279 C  
HETATM    5  N   UNL     1      -9.727  13.080  65.222  1.00  0.00    -0.497 NA 
HETATM    6  H1  UNL     1      -8.888  12.968  65.791  1.00  0.00     0.000 HD 
HETATM    7  H2  UNL     1      -9.636  13.866  64.579  1.00  0.00     0.000 HD 
ENDROOT
BRANCH   4   8
HETATM    8  C   UNL     1     -11.087  12.009  67.020  1.00  0.00    -0.298 C  
HETATM    9  O   UNL     1     -12.128  11.688  67.579  1.00  0.00    -0.611 OA 
BRANCH   8  10
HETATM   10  O   UNL     1      -9.886  11.392  67.236  1.00  0.00    -0.187 OA 
BRANCH  10  11
HETATM   11  C   UNL     1      -9.579  11.061  68.602  1.00  0.00    -0.195 C  
BRANCH  11  12
HETATM   12  C   UNL     1      -9.261   9.562  68.720  1.00  0.00    -0.140 C  
BRANCH  12  13
HETATM   13  O   UNL     1      -8.641   9.018  67.532  1.00  0.00    -0.119 OA 
BRANCH  13  14
HETATM   14  C   UNL     1      -9.577   8.419  66.638  1.00  0.00    -0.229 C  
BRANCH  14  15
HETATM   15  N   UNL     1      -8.887   7.459  65.806  1.00  0.00    -0.121 NA 
HETATM   16  C   UNL     1      -8.006   7.776  64.799  1.00  0.00    -0.142 A  
HETATM   17  N   UNL     1      -7.425   6.705  64.291  1.00  0.00    -0.088 NA 
HETATM   18  C   UNL     1      -7.949   5.648  65.003  1.00  0.00    -0.115 A  
HETATM   19  C   UNL     1      -8.849   6.112  65.930  1.00  0.00    -0.143 A  
HETATM   20  N   UNL     1      -9.493   5.295  66.771  1.00  0.00    -0.132 NA 
HETATM   21  C   UNL     1      -9.191   3.958  66.685  1.00  0.00    -0.169 C  
HETATM   22  N   UNL     1      -9.830   3.200  67.608  1.00  0.00    -0.202 NA 
HETATM   23  N   UNL     1      -8.357   3.412  65.848  1.00  0.00    -0.101 N  
HETATM   24  H2  UNL     1     -10.473   3.585  68.301  1.00  0.00     0.000 HD 
HETATM   25  H1  UNL     1      -9.607   2.207  67.544  1.00  0.00     0.000 HD 
HETATM   26  H   UNL     1      -8.204   2.403  65.868  1.00  0.00     0.000 HD 
HETATM   27  C   UNL     1      -7.670   4.205  64.922  1.00  0.00    -0.078 C  
HETATM   28  O   UNL     1      -6.886   3.735  64.106  1.00  0.00    -0.043 OA 
ENDBRANCH  14  15
ENDBRANCH  13  14
ENDBRANCH  12  13
BRANCH  12  29
HETATM   29  C   UNL     1     -10.548   8.763  68.975  1.00  0.00    -0.171 C  
HETATM   30  O   UNL     1     -11.536   9.624  69.544  1.00  0.00    -0.444 OA 
HETATM   31  H   UNL     1     -12.332   9.130  69.702  1.00  0.00     0.000 HD 
ENDBRANCH  12  29
ENDBRANCH  11  12
ENDBRANCH  10  11
ENDBRANCH   8  10
ENDBRANCH   4   8
TORSDOF 8
ENDMDL
MODEL      285
REMARK 921   NORMALIZED FREE ENERGY PREDICTED BY IDOCK:   -3.80 KCAL/MOL
REMARK 922        TOTAL FREE ENERGY PREDICTED BY IDOCK:   -6.79 KCAL/MOL
REMARK 923 INTER-LIGAND FREE ENERGY PREDICTED BY IDOCK:   -5.37 KCAL/MOL
REMARK 924 INTRA-LIGAND FREE ENERGY PREDICTED BY IDOCK:   -1.42 KCAL/MOL
REMARK 927      BINDING AFFINITY PREDICTED BY RF-SCORE:    0.00 PKD
ROOT
HETATM    1  C   UNL     1     -12.303  14.959  64.017  1.00  0.00    -0.089 C  
HETATM    2  C   UNL     1     -11.556  13.701  64.477  1.00  0.00    -0.415 C  
HETATM    3  C   UNL     1     -12.203  12.458  63.857  1.00  0.00    -0.603 C  
HETATM    4  C   UNL     1     -11.449  13.588  66.018  1.00  0.00    -0.325 C  
HETATM    5  N   UNL     1     -12.780  13.553  66.664  1.00  0.00    -0.202 NA 
HETATM    6  H1  UNL     1     -12.709  13.478  67.679  1.00  0.00     0.000 HD 
HETATM    7  H2  UNL     1     -13.360  12.808  66.278  1.00  0.00     0.000 HD 
ENDROOT
BRANCH   4   8
HETATM    8  C   UNL     1     -10.576  14.720  66.597  1.00  0.00    -0.299 C  
HETATM    9  O   UNL     1     -10.933  15.489  67.481  1.00  0.00    -0.311 OA 
BRANCH   8  10
HETATM   10  O   UNL     1      -9.375  14.809  65.951  1.00  0.00    -0.271 OA 
BRANCH  10  11
HETATM   11  C   UNL     1      -8.370  15.620  66.587  1.00  0.00    -0.275 C  
BRANCH  11  12
HETATM   12  C   UNL     1      -7.382  14.725  67.352  1.00  0.00    -0.185 C  
BRANCH  12  13
HETATM   13  O   UNL     1      -7.655  13.314  67.195  1.00  0.00    -0.107 OA 
BRANCH  13  14
HETATM   14  C   UNL     1      -7.794  12.631  68.440  1.00  0.00    -0.136 C  
BRANCH  14  15
HETATM   15  N   UNL     1      -8.711  11.525  68.271  1.00  0.00    -0.157 NA 
HETATM   16  C   UNL     1     -10.036  11.536  68.636  1.00  0.00    -0.207 A  
HETATM   17  N   UNL     1     -10.667  10.443  68.249  1.00  0.00    -0.218 NA 
HETATM   18  C   UNL     1      -9.710   9.694  67.601  1.00  0.00    -0.149 A  
HETATM   19  C   UNL     1      -8.508  10.357  67.619  1.00  0.00    -0.114 A  
HETATM   20  N   UNL     1      -7.409   9.860  67.041  1.00  0.00    -0.091 NA 
HETATM   21  C   UNL     1      -7.542   8.654  66.397  1.00  0.00    -0.091 C  
HETATM   22  N   UNL     1      -6.407   8.243  65.780  1.00  0.00    -0.051 NA 
HETATM   23  N   UNL     1      -8.629   7.942  66.318  1.00  0.00    -0.141 N  
HETATM   24  H2  UNL     1      -5.539   8.778  65.793  1.00  0.00     0.000 HD 
HETATM   25  H1  UNL     1      -6.506   7.348  65.303  1.00  0.00     0.000 HD 
HETATM   26  H   UNL     1      -8.621   7.056  65.813  1.00  0.00     0.000 HD 
HETATM   27  C   UNL     1      -9.809   8.390  66.924  1.00  0.00    -0.245 C  
HETATM   28  O   UNL     1     -10.852   7.749  66.888  1.00  0.00    -0.311 OA 
ENDBRANCH  14  15
ENDBRANCH  13  14
ENDBRANCH  12  13
BRANCH  12  29
HETATM   29  C   UNL     1      -7.432  15.041  68.854  1.00  0.00    -0.143 C  
HETATM   30  O   UNL     1      -8.371  16.092  69.087  1.00  0.00    -0.237 OA 
HETATM   31  H   UNL     1      -8.402  16.288  70.016  1.00  0.00     0.000 HD 
ENDBRANCH  12  29
ENDBRANCH  11  12
ENDBRANCH  10  11
ENDBRANCH   8  10
ENDBRANCH   4   8
TORSDOF 8
ENDMDL
MODEL      286
REMARK 921   NORMALIZED FREE ENERGY PREDICTED BY IDOCK:   -3.79 KCAL/MOL
REMARK 922        TOTAL FREE ENERGY PREDICTED BY IDOCK:   -6.78 KCAL/MOL
REMARK 923 INTER-LIGAND FREE ENERGY PREDICTED BY IDOCK:   -6.64 KCAL/MOL
REMARK 924 INTRA-LIGAND FREE ENERGY PREDICTED BY IDOCK:   -0.14 KCAL/MOL
REMARK 927      BINDING AFFINITY PREDICTED BY RF-SCORE:    0.00 PKD
ROOT
HETATM    1  C   UNL     1     -12.749  10.751  70.894  1.00  0.00    -0.478 C  
HETATM    2  C   UNL     1     -11.486  11.313  70.229  1.00  0.00    -0.286 C  
HETATM    3  C   UNL     1     -11.877  12.252  69.083  1.00  0.00    -0.355 C  
HETATM    4  C   UNL     1     -10.503  10.210  69.763  1.00  0.00    -0.263 C  
HETATM    5  N   UNL     1     -11.126   9.292  68.783  1.00  0.00    -0.453 NA 
HETATM    6  H1  UNL     1     -10.478   8.567  68.476  1.00  0.00     0.000 HD 
HETATM    7  H2  UNL     1     -11.513   9.803  67.990  1.00  0.00     0.000 HD 
ENDROOT
BRANCH   4   8
HETATM    8  C   UNL     1      -9.926   9.437  70.967  1.00  0.00    -0.264 C  
HETATM    9  O   UNL     1      -8.732   9.347  71.226  1.00  0.00    -0.295 OA 
BRANCH   8  10
HETATM   10  O   UNL     1     -10.909   8.801  71.673  1.00  0.00    -0.276 OA 
BRANCH  10  11
HETATM   11  C   UNL     1     -11.040   7.387  71.445  1.00  0.00    -0.239 C  
BRANCH  11  12
HETATM   12  C   UNL     1      -9.891   6.636  72.138  1.00  0.00    -0.156 C  
BRANCH  12  13
HETATM   13  O   UNL     1      -9.432   5.486  71.390  1.00  0.00    -0.146 OA 
BRANCH  13  14
HETATM   14  C   UNL     1     -10.138   5.298  70.165  1.00  0.00    -0.263 C  
BRANCH  14  15
HETATM   15  N   UNL     1      -9.282   5.681  69.064  1.00  0.00    -0.121 NA 
HETATM   16  C   UNL     1      -8.015   6.200  69.192  1.00  0.00    -0.108 A  
HETATM   17  N   UNL     1      -7.414   6.337  68.025  1.00  0.00    -0.088 NA 
HETATM   18  C   UNL     1      -8.329   5.882  67.101  1.00  0.00    -0.105 A  
HETATM   19  C   UNL     1      -9.477   5.484  67.739  1.00  0.00    -0.116 A  
HETATM   20  N   UNL     1     -10.525   4.980  67.078  1.00  0.00    -0.190 NA 
HETATM   21  C   UNL     1     -10.391   4.853  65.717  1.00  0.00    -0.185 C  
HETATM   22  N   UNL     1     -11.464   4.277  65.121  1.00  0.00    -0.943 NA 
HETATM   23  N   UNL     1      -9.352   5.196  65.012  1.00  0.00    -0.350 N  
HETATM   24  H2  UNL     1     -12.290   3.968  65.633  1.00  0.00     0.000 HD 
HETATM   25  H1  UNL     1     -11.365   4.182  64.110  1.00  0.00     0.000 HD 
HETATM   26  H   UNL     1      -9.355   5.057  64.001  1.00  0.00     0.000 HD 
HETATM   27  C   UNL     1      -8.231   5.755  65.638  1.00  0.00    -0.128 C  
HETATM   28  O   UNL     1      -7.236   6.105  65.015  1.00  0.00    -0.065 OA 
ENDBRANCH  14  15
ENDBRANCH  13  14
ENDBRANCH  12  13
BRANCH  12  29
HETATM   29  C   UNL     1     -10.339   6.137  73.520  1.00  0.00    -0.250 C  
HETATM   30  O   UNL     1     -10.714   7.254  74.329  1.00  0.00    -0.519 OA 
HETATM   31  H   UNL     1     -10.991   6.946  75.184  1.00  0.00     0.000 HD 
ENDBRANCH  12  29
ENDBRANCH  11  12
ENDBRANCH  10  11
ENDBRANCH   8  10
ENDBRANCH   4   8
TORSDOF 8
ENDMDL
MODEL      287
REMARK 921   NORMALIZED FREE ENERGY PREDICTED BY IDOCK:   -3.79 KCAL/MOL
REMARK 922        TOTAL FREE ENERGY PREDICTED BY IDOCK:   -6.78 KCAL/MOL
REMARK 923 INTER-LIGAND FREE ENERGY PREDICTED BY IDOCK:   -6.53 KCAL/MOL
REMARK 924 INTRA-LIGAND FREE ENERGY PREDICTED BY IDOCK:   -0.24 KCAL/MOL
REMARK 927      BINDING AFFINITY PREDICTED BY RF-SCORE:    0.00 PKD
ROOT
HETATM    1  C   UNL     1      -8.200   7.688  69.982  1.00  0.00    -0.125 C  
HETATM    2  C   UNL     1      -9.150   8.832  69.609  1.00  0.00    -0.149 C  
HETATM    3  C   UNL     1     -10.538   8.568  70.200  1.00  0.00    -0.238 C  
HETATM    4  C   UNL     1      -9.213   9.096  68.083  1.00  0.00    -0.131 C  
HETATM    5  N   UNL     1      -9.668   7.904  67.334  1.00  0.00    -0.151 NA 
HETATM    6  H1  UNL     1      -9.710   8.078  66.330  1.00  0.00     0.000 HD 
HETATM    7  H2  UNL     1     -10.562   7.562  67.688  1.00  0.00     0.000 HD 
ENDROOT
BRANCH   4   8
HETATM    8  C   UNL     1      -7.857   9.607  67.554  1.00  0.00    -0.095 C  
HETATM    9  O   UNL     1      -6.944   8.883  67.174  1.00  0.00    -0.073 OA 
BRANCH   8  10
HETATM   10  O   UNL     1      -7.769  10.969  67.626  1.00  0.00    -0.107 OA 
BRANCH  10  11
HETATM   11  C   UNL     1      -8.390  11.703  66.556  1.00  0.00    -0.122 C  
BRANCH  11  12
HETATM   12  C   UNL     1      -8.941  13.036  67.087  1.00  0.00    -0.223 C  
BRANCH  12  13
HETATM   13  O   UNL     1      -9.668  13.788  66.088  1.00  0.00    -0.290 OA 
BRANCH  13  14
HETATM   14  C   UNL     1     -10.850  14.400  66.600  1.00  0.00    -0.304 C  
BRANCH  14  15
HETATM   15  N   UNL     1     -11.438  13.532  67.595  1.00  0.00    -0.300 NA 
HETATM   16  C   UNL     1     -11.618  12.176  67.454  1.00  0.00    -0.340 A  
HETATM   17  N   UNL     1     -12.055  11.614  68.565  1.00  0.00    -0.499 NA 
HETATM   18  C   UNL     1     -12.158  12.649  69.467  1.00  0.00    -0.192 A  
HETATM   19  C   UNL     1     -11.783  13.827  68.870  1.00  0.00    -0.336 A  
HETATM   20  N   UNL     1     -11.771  14.991  69.529  1.00  0.00    -0.303 NA 
HETATM   21  C   UNL     1     -12.130  14.952  70.855  1.00  0.00    -0.317 C  
HETATM   22  N   UNL     1     -12.032  16.153  71.475  1.00  0.00    -0.604 NA 
HETATM   23  N   UNL     1     -12.500  13.897  71.520  1.00  0.00    -0.328 N  
HETATM   24  H2  UNL     1     -11.722  17.003  71.004  1.00  0.00     0.000 HD 
HETATM   25  H1  UNL     1     -12.299  16.125  72.459  1.00  0.00     0.000 HD 
HETATM   26  H   UNL     1     -12.746  13.977  72.506  1.00  0.00     0.000 HD 
HETATM   27  C   UNL     1     -12.562  12.651  70.883  1.00  0.00    -0.249 C  
HETATM   28  O   UNL     1     -12.917  11.632  71.463  1.00  0.00    -0.424 OA 
ENDBRANCH  14  15
ENDBRANCH  13  14
ENDBRANCH  12  13
BRANCH  12  29
HETATM   29  C   UNL     1      -7.792  13.925  67.588  1.00  0.00    -0.179 C  
HETATM   30  O   UNL     1      -6.550  13.416  67.097  1.00  0.00    -0.453 OA 
HETATM   31  H   UNL     1      -5.840  13.965  67.407  1.00  0.00     0.000 HD 
ENDBRANCH  12  29
ENDBRANCH  11  12
ENDBRANCH  10  11
ENDBRANCH   8  10
ENDBRANCH   4   8
TORSDOF 8
ENDMDL
MODEL      288
REMARK 921   NORMALIZED FREE ENERGY PREDICTED BY IDOCK:   -3.79 KCAL/MOL
REMARK 922        TOTAL FREE ENERGY PREDICTED BY IDOCK:   -6.78 KCAL/MOL
REMARK 923 INTER-LIGAND FREE ENERGY PREDICTED BY IDOCK:   -5.69 KCAL/MOL
REMARK 924 INTRA-LIGAND FREE ENERGY PREDICTED BY IDOCK:   -1.08 KCAL/MOL
REMARK 927      BINDING AFFINITY PREDICTED BY RF-SCORE:    0.00 PKD
ROOT
HETATM    1  C   UNL     1      -7.929   2.930  71.998  1.00  0.00    -0.054 C  
HETATM    2  C   UNL     1      -9.309   2.938  71.329  1.00  0.00    -0.208 C  
HETATM    3  C   UNL     1      -9.239   2.202  69.988  1.00  0.00    -0.183 C  
HETATM    4  C   UNL     1      -9.901   4.362  71.177  1.00  0.00    -0.188 C  
HETATM    5  N   UNL     1      -9.029   5.239  70.364  1.00  0.00    -0.125 NA 
HETATM    6  H1  UNL     1      -9.419   6.176  70.263  1.00  0.00     0.000 HD 
HETATM    7  H2  UNL     1      -8.827   4.823  69.455  1.00  0.00     0.000 HD 
ENDROOT
BRANCH   4   8
HETATM    8  C   UNL     1     -10.198   4.989  72.555  1.00  0.00    -0.196 C  
HETATM    9  O   UNL     1     -11.217   4.786  73.204  1.00  0.00    -0.287 OA 
BRANCH   8  10
HETATM   10  O   UNL     1      -9.215   5.859  72.934  1.00  0.00    -0.139 OA 
BRANCH  10  11
HETATM   11  C   UNL     1      -9.653   7.148  73.399  1.00  0.00    -0.208 C  
BRANCH  11  12
HETATM   12  C   UNL     1      -9.044   8.256  72.524  1.00  0.00    -0.253 C  
BRANCH  12  13
HETATM   13  O   UNL     1      -9.321   8.083  71.115  1.00  0.00    -0.145 OA 
BRANCH  13  14
HETATM   14  C   UNL     1     -10.650   8.455  70.758  1.00  0.00    -0.207 C  
BRANCH  14  15
HETATM   15  N   UNL     1     -10.635   9.056  69.443  1.00  0.00    -0.228 NA 
HETATM   16  C   UNL     1     -10.375   8.386  68.271  1.00  0.00    -0.199 A  
HETATM   17  N   UNL     1     -10.555   9.150  67.210  1.00  0.00    -0.267 NA 
HETATM   18  C   UNL     1     -10.955  10.367  67.716  1.00  0.00    -0.309 A  
HETATM   19  C   UNL     1     -11.000  10.310  69.087  1.00  0.00    -0.238 A  
HETATM   20  N   UNL     1     -11.377  11.353  69.834  1.00  0.00    -0.254 NA 
HETATM   21  C   UNL     1     -11.747  12.491  69.161  1.00  0.00    -0.321 C  
HETATM   22  N   UNL     1     -12.179  13.484  69.977  1.00  0.00    -0.329 NA 
HETATM   23  N   UNL     1     -11.744  12.656  67.870  1.00  0.00    -0.350 N  
HETATM   24  H2  UNL     1     -12.224  13.395  70.992  1.00  0.00     0.000 HD 
HETATM   25  H1  UNL     1     -12.454  14.330  69.477  1.00  0.00     0.000 HD 
HETATM   26  H   UNL     1     -12.041  13.546  67.470  1.00  0.00     0.000 HD 
HETATM   27  C   UNL     1     -11.334  11.613  67.030  1.00  0.00    -0.305 C  
HETATM   28  O   UNL     1     -11.302  11.725  65.810  1.00  0.00    -0.318 OA 
ENDBRANCH  14  15
ENDBRANCH  13  14
ENDBRANCH  12  13
BRANCH  12  29
HETATM   29  C   UNL     1      -7.517   8.288  72.694  1.00  0.00    -0.112 C  
HETATM   30  O   UNL     1      -6.945   9.116  71.680  1.00  0.00    -0.268 OA 
HETATM   31  H   UNL     1      -6.001   9.136  71.784  1.00  0.00     0.000 HD 
ENDBRANCH  12  29
ENDBRANCH  11  12
ENDBRANCH  10  11
ENDBRANCH   8  10
ENDBRANCH   4   8
TORSDOF 8
ENDMDL
MODEL      289
REMARK 921   NORMALIZED FREE ENERGY PREDICTED BY IDOCK:   -3.77 KCAL/MOL
REMARK 922        TOTAL FREE ENERGY PREDICTED BY IDOCK:   -6.75 KCAL/MOL
REMARK 923 INTER-LIGAND FREE ENERGY PREDICTED BY IDOCK:   -5.90 KCAL/MOL
REMARK 924 INTRA-LIGAND FREE ENERGY PREDICTED BY IDOCK:   -0.85 KCAL/MOL
REMARK 927      BINDING AFFINITY PREDICTED BY RF-SCORE:    0.00 PKD
ROOT
HETATM    1  C   UNL     1     -12.334   7.289  71.343  1.00  0.00    -0.403 C  
HETATM    2  C   UNL     1     -12.368   8.626  72.093  1.00  0.00    -0.452 C  
HETATM    3  C   UNL     1     -13.739   8.817  72.750  1.00  0.00    -0.255 C  
HETATM    4  C   UNL     1     -11.983   9.833  71.200  1.00  0.00    -0.376 C  
HETATM    5  N   UNL     1     -12.889   9.973  70.038  1.00  0.00    -0.423 NA 
HETATM    6  H1  UNL     1     -12.635  10.767  69.451  1.00  0.00     0.000 HD 
HETATM    7  H2  UNL     1     -13.864  10.026  70.332  1.00  0.00     0.000 HD 
ENDROOT
BRANCH   4   8
HETATM    8  C   UNL     1     -10.509   9.742  70.753  1.00  0.00    -0.269 C  
HETATM    9  O   UNL     1      -9.570   9.507  71.504  1.00  0.00    -0.207 OA 
BRANCH   8  10
HETATM   10  O   UNL     1     -10.368  10.030  69.425  1.00  0.00    -0.197 OA 
BRANCH  10  11
HETATM   11  C   UNL     1      -9.105  10.595  69.029  1.00  0.00    -0.166 C  
BRANCH  11  12
HETATM   12  C   UNL     1      -9.336  11.895  68.242  1.00  0.00    -0.193 C  
BRANCH  12  13
HETATM   13  O   UNL     1     -10.692  12.387  68.344  1.00  0.00    -0.220 OA 
BRANCH  13  14
HETATM   14  C   UNL     1     -10.875  13.297  69.428  1.00  0.00     0.064 C  
BRANCH  14  15
HETATM   15  N   UNL     1     -10.817  14.650  68.923  1.00  0.00    -0.242 NA 
HETATM   16  C   UNL     1     -11.909  15.444  68.664  1.00  0.00    -0.296 A  
HETATM   17  N   UNL     1     -11.563  16.675  68.336  1.00  0.00    -0.041 NA 
HETATM   18  C   UNL     1     -10.187  16.680  68.391  1.00  0.00    -0.284 A  
HETATM   19  C   UNL     1      -9.729  15.436  68.747  1.00  0.00    -0.210 A  
HETATM   20  N   UNL     1      -8.427  15.168  68.893  1.00  0.00    -0.186 NA 
HETATM   21  C   UNL     1      -7.557  16.211  68.694  1.00  0.00    -0.183 C  
HETATM   22  N   UNL     1      -6.261  15.884  68.921  1.00  0.00    -0.116 NA 
HETATM   23  N   UNL     1      -7.878  17.426  68.356  1.00  0.00    -0.247 N  
HETATM   24  H2  UNL     1      -5.962  14.953  69.212  1.00  0.00     0.000 HD 
HETATM   25  H1  UNL     1      -5.614  16.658  68.773  1.00  0.00     0.000 HD 
HETATM   26  H   UNL     1      -7.151  18.130  68.234  1.00  0.00     0.000 HD 
HETATM   27  C   UNL     1      -9.222  17.768  68.160  1.00  0.00    -0.277 C  
HETATM   28  O   UNL     1      -9.573  18.895  67.829  1.00  0.00    -0.300 OA 
ENDBRANCH  14  15
ENDBRANCH  13  14
ENDBRANCH  12  13
BRANCH  12  29
HETATM   29  C   UNL     1      -9.038  11.674  66.751  1.00  0.00    -0.186 C  
HETATM   30  O   UNL     1     -10.082  12.255  65.967  1.00  0.00    -0.237 OA 
HETATM   31  H   UNL     1      -9.898  12.119  65.045  1.00  0.00     0.000 HD 
ENDBRANCH  12  29
ENDBRANCH  11  12
ENDBRANCH  10  11
ENDBRANCH   8  10
ENDBRANCH   4   8
TORSDOF 8
ENDMDL
MODEL      290
REMARK 921   NORMALIZED FREE ENERGY PREDICTED BY IDOCK:   -3.77 KCAL/MOL
REMARK 922        TOTAL FREE ENERGY PREDICTED BY IDOCK:   -6.74 KCAL/MOL
REMARK 923 INTER-LIGAND FREE ENERGY PREDICTED BY IDOCK:   -5.90 KCAL/MOL
REMARK 924 INTRA-LIGAND FREE ENERGY PREDICTED BY IDOCK:   -0.84 KCAL/MOL
REMARK 927      BINDING AFFINITY PREDICTED BY RF-SCORE:    0.00 PKD
ROOT
HETATM    1  C   UNL     1     -12.180  13.247  67.810  1.00  0.00    -0.158 C  
HETATM    2  C   UNL     1     -11.194  13.967  68.737  1.00  0.00    -0.298 C  
HETATM    3  C   UNL     1     -11.963  14.837  69.737  1.00  0.00    -0.368 C  
HETATM    4  C   UNL     1     -10.121  14.781  67.969  1.00  0.00    -0.218 C  
HETATM    5  N   UNL     1     -10.728  15.818  67.105  1.00  0.00    -0.318 NA 
HETATM    6  H1  UNL     1     -10.022  16.353  66.599  1.00  0.00     0.000 HD 
HETATM    7  H2  UNL     1     -11.346  16.430  67.637  1.00  0.00     0.000 HD 
ENDROOT
BRANCH   4   8
HETATM    8  C   UNL     1      -9.195  13.849  67.160  1.00  0.00    -0.239 C  
HETATM    9  O   UNL     1      -8.131  13.401  67.571  1.00  0.00    -0.158 OA 
BRANCH   8  10
HETATM   10  O   UNL     1      -9.670  13.641  65.896  1.00  0.00    -0.264 OA 
BRANCH  10  11
HETATM   11  C   UNL     1      -9.237  12.433  65.246  1.00  0.00     0.374 C  
BRANCH  11  12
HETATM   12  C   UNL     1     -10.457  11.580  64.860  1.00  0.00    -0.291 C  
BRANCH  12  13
HETATM   13  O   UNL     1     -10.275  10.172  65.136  1.00  0.00    -0.306 OA 
BRANCH  13  14
HETATM   14  C   UNL     1      -9.068   9.892  65.843  1.00  0.00    -0.162 C  
BRANCH  14  15
HETATM   15  N   UNL     1      -9.393   9.246  67.095  1.00  0.00    -0.129 NA 
HETATM   16  C   UNL     1      -9.429   9.870  68.320  1.00  0.00    -0.139 A  
HETATM   17  N   UNL     1      -9.881   9.075  69.271  1.00  0.00    -0.175 NA 
HETATM   18  C   UNL     1     -10.155   7.884  68.633  1.00  0.00    -0.197 A  
HETATM   19  C   UNL     1      -9.852   7.989  67.299  1.00  0.00    -0.197 A  
HETATM   20  N   UNL     1     -10.041   6.980  66.441  1.00  0.00    -0.053 NA 
HETATM   21  C   UNL     1     -10.584   5.828  66.955  1.00  0.00    -0.308 C  
HETATM   22  N   UNL     1     -10.807   4.873  66.019  1.00  0.00    -0.696 NA 
HETATM   23  N   UNL     1     -10.909   5.620  68.197  1.00  0.00    -0.160 N  
HETATM   24  H2  UNL     1     -10.593   4.999  65.030  1.00  0.00     0.000 HD 
HETATM   25  H1  UNL     1     -11.210   4.017  66.400  1.00  0.00     0.000 HD 
HETATM   26  H   UNL     1     -11.308   4.724  68.476  1.00  0.00     0.000 HD 
HETATM   27  C   UNL     1     -10.712   6.624  69.153  1.00  0.00    -0.264 C  
HETATM   28  O   UNL     1     -10.989   6.470  70.337  1.00  0.00    -0.252 OA 
ENDBRANCH  14  15
ENDBRANCH  13  14
ENDBRANCH  12  13
BRANCH  12  29
HETATM   29  C   UNL     1     -10.752  11.721  63.359  1.00  0.00    -0.402 C  
HETATM   30  O   UNL     1      -9.793  10.966  62.615  1.00  0.00    -0.528 OA 
HETATM   31  H   UNL     1      -9.975  11.054  61.687  1.00  0.00     0.000 HD 
ENDBRANCH  12  29
ENDBRANCH  11  12
ENDBRANCH  10  11
ENDBRANCH   8  10
ENDBRANCH   4   8
TORSDOF 8
ENDMDL
MODEL      291
REMARK 921   NORMALIZED FREE ENERGY PREDICTED BY IDOCK:   -3.76 KCAL/MOL
REMARK 922        TOTAL FREE ENERGY PREDICTED BY IDOCK:   -6.74 KCAL/MOL
REMARK 923 INTER-LIGAND FREE ENERGY PREDICTED BY IDOCK:   -5.58 KCAL/MOL
REMARK 924 INTRA-LIGAND FREE ENERGY PREDICTED BY IDOCK:   -1.16 KCAL/MOL
REMARK 927      BINDING AFFINITY PREDICTED BY RF-SCORE:    0.00 PKD
ROOT
HETATM    1  C   UNL     1     -12.099  12.200  64.005  1.00  0.00    -0.540 C  
HETATM    2  C   UNL     1     -12.116  13.346  65.025  1.00  0.00    -0.436 C  
HETATM    3  C   UNL     1     -12.139  14.691  64.293  1.00  0.00    -0.437 C  
HETATM    4  C   UNL     1     -10.956  13.265  66.048  1.00  0.00    -0.279 C  
HETATM    5  N   UNL     1      -9.632  13.304  65.387  1.00  0.00    -0.495 NA 
HETATM    6  H1  UNL     1      -8.868  13.251  66.061  1.00  0.00     0.000 HD 
HETATM    7  H2  UNL     1      -9.540  14.124  64.788  1.00  0.00     0.000 HD 
ENDROOT
BRANCH   4   8
HETATM    8  C   UNL     1     -11.097  12.019  66.947  1.00  0.00    -0.302 C  
HETATM    9  O   UNL     1     -12.116  11.713  67.555  1.00  0.00    -0.611 OA 
BRANCH   8  10
HETATM   10  O   UNL     1      -9.919  11.332  67.043  1.00  0.00    -0.192 OA 
BRANCH  10  11
HETATM   11  C   UNL     1      -9.465  11.035  68.376  1.00  0.00    -0.182 C  
BRANCH  11  12
HETATM   12  C   UNL     1      -9.218   9.524  68.520  1.00  0.00    -0.131 C  
BRANCH  12  13
HETATM   13  O   UNL     1      -8.707   8.914  67.312  1.00  0.00    -0.120 OA 
BRANCH  13  14
HETATM   14  C   UNL     1      -9.650   8.050  66.681  1.00  0.00    -0.230 C  
BRANCH  14  15
HETATM   15  N   UNL     1      -8.940   6.975  66.025  1.00  0.00    -0.141 NA 
HETATM   16  C   UNL     1      -9.102   5.638  66.300  1.00  0.00    -0.148 A  
HETATM   17  N   UNL     1      -8.426   4.873  65.463  1.00  0.00    -0.125 NA 
HETATM   18  C   UNL     1      -7.803   5.752  64.606  1.00  0.00    -0.116 A  
HETATM   19  C   UNL     1      -8.116   7.043  64.954  1.00  0.00    -0.107 A  
HETATM   20  N   UNL     1      -7.657   8.098  64.272  1.00  0.00    -0.109 NA 
HETATM   21  C   UNL     1      -6.870   7.831  63.178  1.00  0.00    -0.075 C  
HETATM   22  N   UNL     1      -6.496   8.943  62.499  1.00  0.00    -0.095 NA 
HETATM   23  N   UNL     1      -6.513   6.652  62.759  1.00  0.00    -0.038 N  
HETATM   24  H2  UNL     1      -6.771   9.885  62.773  1.00  0.00     0.000 HD 
HETATM   25  H1  UNL     1      -5.911   8.745  61.686  1.00  0.00     0.000 HD 
HETATM   26  H   UNL     1      -5.924   6.564  61.930  1.00  0.00     0.000 HD 
HETATM   27  C   UNL     1      -6.935   5.505  63.442  1.00  0.00    -0.042 C  
HETATM   28  O   UNL     1      -6.614   4.376  63.094  1.00  0.00    -0.029 OA 
ENDBRANCH  14  15
ENDBRANCH  13  14
ENDBRANCH  12  13
BRANCH  12  29
HETATM   29  C   UNL     1     -10.525   8.804  68.883  1.00  0.00    -0.197 C  
HETATM   30  O   UNL     1     -11.400   9.716  69.549  1.00  0.00    -0.407 OA 
HETATM   31  H   UNL     1     -12.209   9.271  69.774  1.00  0.00     0.000 HD 
ENDBRANCH  12  29
ENDBRANCH  11  12
ENDBRANCH  10  11
ENDBRANCH   8  10
ENDBRANCH   4   8
TORSDOF 8
ENDMDL
MODEL      292
REMARK 921   NORMALIZED FREE ENERGY PREDICTED BY IDOCK:   -3.75 KCAL/MOL
REMARK 922        TOTAL FREE ENERGY PREDICTED BY IDOCK:   -6.72 KCAL/MOL
REMARK 923 INTER-LIGAND FREE ENERGY PREDICTED BY IDOCK:   -6.24 KCAL/MOL
REMARK 924 INTRA-LIGAND FREE ENERGY PREDICTED BY IDOCK:   -0.48 KCAL/MOL
REMARK 927      BINDING AFFINITY PREDICTED BY RF-SCORE:    0.00 PKD
ROOT
HETATM    1  C   UNL     1     -12.193  12.151  64.020  1.00  0.00    -0.544 C  
HETATM    2  C   UNL     1     -12.156  13.080  65.240  1.00  0.00    -0.484 C  
HETATM    3  C   UNL     1     -12.143  14.541  64.779  1.00  0.00    -0.454 C  
HETATM    4  C   UNL     1     -10.984  12.769  66.205  1.00  0.00    -0.283 C  
HETATM    5  N   UNL     1      -9.669  12.892  65.535  1.00  0.00    -0.459 NA 
HETATM    6  H1  UNL     1      -8.898  12.688  66.171  1.00  0.00     0.000 HD 
HETATM    7  H2  UNL     1      -9.558  13.809  65.101  1.00  0.00     0.000 HD 
ENDROOT
BRANCH   4   8
HETATM    8  C   UNL     1     -11.154  11.380  66.853  1.00  0.00    -0.295 C  
HETATM    9  O   UNL     1     -12.019  11.099  67.674  1.00  0.00    -0.613 OA 
BRANCH   8  10
HETATM   10  O   UNL     1     -10.175  10.514  66.453  1.00  0.00    -0.226 OA 
BRANCH  10  11
HETATM   11  C   UNL     1      -9.425   9.875  67.501  1.00  0.00    -0.151 C  
BRANCH  11  12
HETATM   12  C   UNL     1      -8.759   8.598  66.966  1.00  0.00    -0.127 C  
BRANCH  12  13
HETATM   13  O   UNL     1      -9.709   7.560  66.631  1.00  0.00    -0.200 OA 
BRANCH  13  14
HETATM   14  C   UNL     1     -10.847   7.546  67.490  1.00  0.00    -0.162 C  
BRANCH  14  15
HETATM   15  N   UNL     1     -10.603   6.632  68.583  1.00  0.00    -0.214 NA 
HETATM   16  C   UNL     1     -11.003   6.832  69.883  1.00  0.00    -0.291 A  
HETATM   17  N   UNL     1     -10.763   5.781  70.645  1.00  0.00    -0.278 NA 
HETATM   18  C   UNL     1     -10.187   4.858  69.800  1.00  0.00    -0.214 A  
HETATM   19  C   UNL     1     -10.085   5.383  68.535  1.00  0.00    -0.177 A  
HETATM   20  N   UNL     1      -9.577   4.688  67.511  1.00  0.00    -0.153 NA 
HETATM   21  C   UNL     1      -9.181   3.400  67.777  1.00  0.00    -0.190 C  
HETATM   22  N   UNL     1      -8.738   2.735  66.681  1.00  0.00    -0.115 NA 
HETATM   23  N   UNL     1      -9.232   2.803  68.932  1.00  0.00    -0.149 N  
HETATM   24  H2  UNL     1      -8.703   3.151  65.751  1.00  0.00     0.000 HD 
HETATM   25  H1  UNL     1      -8.443   1.779  66.878  1.00  0.00     0.000 HD 
HETATM   26  H   UNL     1      -8.911   1.839  69.021  1.00  0.00     0.000 HD 
HETATM   27  C   UNL     1      -9.727   3.482  70.052  1.00  0.00    -0.077 C  
HETATM   28  O   UNL     1      -9.782   2.967  71.163  1.00  0.00    -0.156 OA 
ENDBRANCH  14  15
ENDBRANCH  13  14
ENDBRANCH  12  13
BRANCH  12  29
HETATM   29  C   UNL     1      -7.796   8.020  68.014  1.00  0.00    -0.126 C  
HETATM   30  O   UNL     1      -7.999   8.685  69.262  1.00  0.00    -0.099 OA 
HETATM   31  H   UNL     1      -7.403   8.329  69.910  1.00  0.00     0.000 HD 
ENDBRANCH  12  29
ENDBRANCH  11  12
ENDBRANCH  10  11
ENDBRANCH   8  10
ENDBRANCH   4   8
TORSDOF 8
ENDMDL
MODEL      293
REMARK 921   NORMALIZED FREE ENERGY PREDICTED BY IDOCK:   -3.75 KCAL/MOL
REMARK 922        TOTAL FREE ENERGY PREDICTED BY IDOCK:   -6.72 KCAL/MOL
REMARK 923 INTER-LIGAND FREE ENERGY PREDICTED BY IDOCK:   -5.86 KCAL/MOL
REMARK 924 INTRA-LIGAND FREE ENERGY PREDICTED BY IDOCK:   -0.86 KCAL/MOL
REMARK 927      BINDING AFFINITY PREDICTED BY RF-SCORE:    0.00 PKD
ROOT
HETATM    1  C   UNL     1      -6.580   6.001  70.907  1.00  0.00    -0.045 C  
HETATM    2  C   UNL     1      -7.358   6.329  69.626  1.00  0.00    -0.080 C  
HETATM    3  C   UNL     1      -6.561   5.863  68.403  1.00  0.00    -0.052 C  
HETATM    4  C   UNL     1      -7.755   7.823  69.522  1.00  0.00    -0.105 C  
HETATM    5  N   UNL     1      -6.572   8.712  69.541  1.00  0.00    -0.040 NA 
HETATM    6  H1  UNL     1      -6.834   9.695  69.472  1.00  0.00     0.000 HD 
HETATM    7  H2  UNL     1      -5.903   8.456  68.815  1.00  0.00     0.000 HD 
ENDROOT
BRANCH   4   8
HETATM    8  C   UNL     1      -8.762   8.206  70.626  1.00  0.00    -0.135 C  
HETATM    9  O   UNL     1      -8.456   8.465  71.784  1.00  0.00    -0.136 OA 
BRANCH   8  10
HETATM   10  O   UNL     1     -10.050   8.150  70.174  1.00  0.00    -0.190 OA 
BRANCH  10  11
HETATM   11  C   UNL     1     -10.238   8.375  68.765  1.00  0.00    -0.207 C  
BRANCH  11  12
HETATM   12  C   UNL     1     -11.034   9.672  68.543  1.00  0.00    -0.108 C  
BRANCH  12  13
HETATM   13  O   UNL     1     -10.314  10.652  67.761  1.00  0.00    -0.185 OA 
BRANCH  13  14
HETATM   14  C   UNL     1     -11.150  11.362  66.849  1.00  0.00    -0.295 C  
BRANCH  14  15
HETATM   15  N   UNL     1     -10.808  12.766  66.889  1.00  0.00    -0.250 NA 
HETATM   16  C   UNL     1     -10.094  13.433  65.922  1.00  0.00    -0.293 A  
HETATM   17  N   UNL     1     -10.040  14.732  66.151  1.00  0.00    -0.281 NA 
HETATM   18  C   UNL     1     -10.754  14.915  67.314  1.00  0.00    -0.294 A  
HETATM   19  C   UNL     1     -11.222  13.707  67.769  1.00  0.00    -0.285 A  
HETATM   20  N   UNL     1     -11.965  13.599  68.876  1.00  0.00    -0.356 NA 
HETATM   21  C   UNL     1     -12.267  14.767  69.532  1.00  0.00    -0.243 C  
HETATM   22  N   UNL     1     -13.076  14.590  70.605  1.00  0.00    -0.484 NA 
HETATM   23  N   UNL     1     -11.880  15.962  69.191  1.00  0.00    -0.413 N  
HETATM   24  H2  UNL     1     -13.427  13.677  70.897  1.00  0.00     0.000 HD 
HETATM   25  H1  UNL     1     -13.301  15.457  71.093  1.00  0.00     0.000 HD 
HETATM   26  H   UNL     1     -12.162  16.767  69.750  1.00  0.00     0.000 HD 
HETATM   27  C   UNL     1     -11.076  16.144  68.059  1.00  0.00    -0.317 C  
HETATM   28  O   UNL     1     -10.676  17.246  67.706  1.00  0.00    -0.368 OA 
ENDBRANCH  14  15
ENDBRANCH  13  14
ENDBRANCH  12  13
BRANCH  12  29
HETATM   29  C   UNL     1     -11.379  10.322  69.892  1.00  0.00    -0.290 C  
HETATM   30  O   UNL     1     -12.739  10.759  69.873  1.00  0.00    -0.409 OA 
HETATM   31  H   UNL     1     -12.952  11.161  70.707  1.00  0.00     0.000 HD 
ENDBRANCH  12  29
ENDBRANCH  11  12
ENDBRANCH  10  11
ENDBRANCH   8  10
ENDBRANCH   4   8
TORSDOF 8
ENDMDL
MODEL      294
REMARK 921   NORMALIZED FREE ENERGY PREDICTED BY IDOCK:   -3.73 KCAL/MOL
REMARK 922        TOTAL FREE ENERGY PREDICTED BY IDOCK:   -6.69 KCAL/MOL
REMARK 923 INTER-LIGAND FREE ENERGY PREDICTED BY IDOCK:   -5.42 KCAL/MOL
REMARK 924 INTRA-LIGAND FREE ENERGY PREDICTED BY IDOCK:   -1.27 KCAL/MOL
REMARK 927      BINDING AFFINITY PREDICTED BY RF-SCORE:    0.00 PKD
ROOT
HETATM    1  C   UNL     1     -11.627  16.789  72.298  1.00  0.00     0.101 C  
HETATM    2  C   UNL     1     -12.746  15.903  72.858  1.00  0.00    -0.584 C  
HETATM    3  C   UNL     1     -12.457  15.567  74.325  1.00  0.00    -0.792 C  
HETATM    4  C   UNL     1     -12.994  14.629  72.012  1.00  0.00    -0.334 C  
HETATM    5  N   UNL     1     -11.784  13.781  71.923  1.00  0.00     0.401 NA 
HETATM    6  H1  UNL     1     -11.948  12.942  71.366  1.00  0.00     0.000 HD 
HETATM    7  H2  UNL     1     -11.426  13.546  72.849  1.00  0.00     0.000 HD 
ENDROOT
BRANCH   4   8
HETATM    8  C   UNL     1     -13.529  14.990  70.611  1.00  0.00    -0.168 C  
HETATM    9  O   UNL     1     -14.392  15.832  70.394  1.00  0.00     0.397 OA 
BRANCH   8  10
HETATM   10  O   UNL     1     -12.974  14.203  69.642  1.00  0.00     0.118 OA 
BRANCH  10  11
HETATM   11  C   UNL     1     -12.054  14.852  68.746  1.00  0.00    -0.177 C  
BRANCH  11  12
HETATM   12  C   UNL     1     -10.852  13.934  68.472  1.00  0.00    -0.259 C  
BRANCH  12  13
HETATM   13  O   UNL     1     -10.922  12.678  69.186  1.00  0.00    -0.223 OA 
BRANCH  13  14
HETATM   14  C   UNL     1     -10.078  11.672  68.631  1.00  0.00    -0.198 C  
BRANCH  14  15
HETATM   15  N   UNL     1     -10.359  10.410  69.278  1.00  0.00    -0.217 NA 
HETATM   16  C   UNL     1      -9.615   9.263  69.129  1.00  0.00    -0.161 A  
HETATM   17  N   UNL     1     -10.019   8.300  69.935  1.00  0.00    -0.187 NA 
HETATM   18  C   UNL     1     -11.068   8.847  70.641  1.00  0.00    -0.262 A  
HETATM   19  C   UNL     1     -11.278  10.141  70.234  1.00  0.00    -0.318 A  
HETATM   20  N   UNL     1     -12.228  10.915  70.772  1.00  0.00    -0.353 NA 
HETATM   21  C   UNL     1     -12.976  10.360  71.781  1.00  0.00    -0.475 C  
HETATM   22  N   UNL     1     -13.874  11.219  72.323  1.00  0.00    -0.204 NA 
HETATM   23  N   UNL     1     -12.863   9.149  72.245  1.00  0.00    -0.403 N  
HETATM   24  H2  UNL     1     -13.982  12.184  72.012  1.00  0.00     0.000 HD 
HETATM   25  H1  UNL     1     -14.430  10.807  73.072  1.00  0.00     0.000 HD 
HETATM   26  H   UNL     1     -13.471   8.834  73.001  1.00  0.00     0.000 HD 
HETATM   27  C   UNL     1     -11.908   8.277  71.708  1.00  0.00    -0.306 C  
HETATM   28  O   UNL     1     -11.773   7.125  72.102  1.00  0.00    -0.277 OA 
ENDBRANCH  14  15
ENDBRANCH  13  14
ENDBRANCH  12  13
BRANCH  12  29
HETATM   29  C   UNL     1      -9.546  14.628  68.889  1.00  0.00    -0.184 C  
HETATM   30  O   UNL     1      -9.806  15.507  69.986  1.00  0.00    -0.356 OA 
HETATM   31  H   UNL     1      -8.999  15.937  70.244  1.00  0.00     0.000 HD 
ENDBRANCH  12  29
ENDBRANCH  11  12
ENDBRANCH  10  11
ENDBRANCH   8  10
ENDBRANCH   4   8
TORSDOF 8
ENDMDL
MODEL      295
REMARK 921   NORMALIZED FREE ENERGY PREDICTED BY IDOCK:   -3.72 KCAL/MOL
REMARK 922        TOTAL FREE ENERGY PREDICTED BY IDOCK:   -6.68 KCAL/MOL
REMARK 923 INTER-LIGAND FREE ENERGY PREDICTED BY IDOCK:   -5.82 KCAL/MOL
REMARK 924 INTRA-LIGAND FREE ENERGY PREDICTED BY IDOCK:   -0.86 KCAL/MOL
REMARK 927      BINDING AFFINITY PREDICTED BY RF-SCORE:    0.00 PKD
ROOT
HETATM    1  C   UNL     1      -9.061   6.574  71.856  1.00  0.00    -0.148 C  
HETATM    2  C   UNL     1     -10.572   6.613  72.118  1.00  0.00    -0.238 C  
HETATM    3  C   UNL     1     -11.035   5.266  72.683  1.00  0.00    -0.316 C  
HETATM    4  C   UNL     1     -11.394   7.029  70.872  1.00  0.00    -0.295 C  
HETATM    5  N   UNL     1     -11.182   6.104  69.736  1.00  0.00    -0.414 NA 
HETATM    6  H1  UNL     1     -11.723   6.378  68.916  1.00  0.00     0.000 HD 
HETATM    7  H2  UNL     1     -11.376   5.139  70.002  1.00  0.00     0.000 HD 
ENDROOT
BRANCH   4   8
HETATM    8  C   UNL     1     -11.091   8.488  70.471  1.00  0.00    -0.244 C  
HETATM    9  O   UNL     1     -11.388   9.468  71.143  1.00  0.00    -0.309 OA 
BRANCH   8  10
HETATM   10  O   UNL     1     -10.512   8.560  69.235  1.00  0.00    -0.220 OA 
BRANCH  10  11
HETATM   11  C   UNL     1     -11.159   9.419  68.280  1.00  0.00     0.061 C  
BRANCH  11  12
HETATM   12  C   UNL     1     -10.109  10.260  67.535  1.00  0.00    -0.198 C  
BRANCH  12  13
HETATM   13  O   UNL     1     -10.542  11.616  67.283  1.00  0.00    -0.212 OA 
BRANCH  13  14
HETATM   14  C   UNL     1     -10.752  12.367  68.478  1.00  0.00    -0.238 C  
BRANCH  14  15
HETATM   15  N   UNL     1     -10.554  13.771  68.194  1.00  0.00    -0.247 NA 
HETATM   16  C   UNL     1     -11.525  14.628  67.733  1.00  0.00    -0.340 A  
HETATM   17  N   UNL     1     -11.104  15.877  67.686  1.00  0.00    -0.303 NA 
HETATM   18  C   UNL     1      -9.805  15.829  68.141  1.00  0.00    -0.209 A  
HETATM   19  C   UNL     1      -9.466  14.535  68.449  1.00  0.00    -0.209 A  
HETATM   20  N   UNL     1      -8.263  14.206  68.932  1.00  0.00    -0.072 NA 
HETATM   21  C   UNL     1      -7.378  15.236  69.135  1.00  0.00    -0.172 C  
HETATM   22  N   UNL     1      -6.205  14.839  69.686  1.00  0.00    -0.122 NA 
HETATM   23  N   UNL     1      -7.592  16.494  68.880  1.00  0.00    -0.227 N  
HETATM   24  H2  UNL     1      -6.000  13.869  69.927  1.00  0.00     0.000 HD 
HETATM   25  H1  UNL     1      -5.547  15.603  69.836  1.00  0.00     0.000 HD 
HETATM   26  H   UNL     1      -6.864  17.183  69.069  1.00  0.00     0.000 HD 
HETATM   27  C   UNL     1      -8.820  16.904  68.346  1.00  0.00    -0.244 C  
HETATM   28  O   UNL     1      -9.063  18.075  68.077  1.00  0.00    -0.260 OA 
ENDBRANCH  14  15
ENDBRANCH  13  14
ENDBRANCH  12  13
BRANCH  12  29
HETATM   29  C   UNL     1      -9.782   9.620  66.177  1.00  0.00    -0.252 C  
HETATM   30  O   UNL     1      -9.808   8.197  66.304  1.00  0.00    -0.393 OA 
HETATM   31  H   UNL     1      -9.606   7.802  65.464  1.00  0.00     0.000 HD 
ENDBRANCH  12  29
ENDBRANCH  11  12
ENDBRANCH  10  11
ENDBRANCH   8  10
ENDBRANCH   4   8
TORSDOF 8
ENDMDL
MODEL      296
REMARK 921   NORMALIZED FREE ENERGY PREDICTED BY IDOCK:   -3.72 KCAL/MOL
REMARK 922        TOTAL FREE ENERGY PREDICTED BY IDOCK:   -6.67 KCAL/MOL
REMARK 923 INTER-LIGAND FREE ENERGY PREDICTED BY IDOCK:   -5.96 KCAL/MOL
REMARK 924 INTRA-LIGAND FREE ENERGY PREDICTED BY IDOCK:   -0.71 KCAL/MOL
REMARK 927      BINDING AFFINITY PREDICTED BY RF-SCORE:    0.00 PKD
ROOT
HETATM    1  C   UNL     1      -9.470  14.131  68.185  1.00  0.00    -0.213 C  
HETATM    2  C   UNL     1     -10.447  13.092  67.620  1.00  0.00    -0.228 C  
HETATM    3  C   UNL     1     -10.484  13.191  66.091  1.00  0.00    -0.287 C  
HETATM    4  C   UNL     1     -11.864  13.191  68.239  1.00  0.00    -0.349 C  
HETATM    5  N   UNL     1     -12.476  14.519  68.009  1.00  0.00    -0.512 NA 
HETATM    6  H1  UNL     1     -13.408  14.584  68.417  1.00  0.00     0.000 HD 
HETATM    7  H2  UNL     1     -12.488  14.756  67.017  1.00  0.00     0.000 HD 
ENDROOT
BRANCH   4   8
HETATM    8  C   UNL     1     -11.838  12.838  69.740  1.00  0.00    -0.310 C  
HETATM    9  O   UNL     1     -12.215  13.585  70.635  1.00  0.00    -0.351 OA 
BRANCH   8  10
HETATM   10  O   UNL     1     -11.273  11.613  69.960  1.00  0.00    -0.155 OA 
BRANCH  10  11
HETATM   11  C   UNL     1     -12.173  10.490  69.959  1.00  0.00    -0.250 C  
BRANCH  11  12
HETATM   12  C   UNL     1     -12.160   9.807  71.336  1.00  0.00    -0.400 C  
BRANCH  12  13
HETATM   13  O   UNL     1     -11.528   8.507  71.318  1.00  0.00    -0.258 OA 
BRANCH  13  14
HETATM   14  C   UNL     1     -10.703   8.301  70.173  1.00  0.00    -0.239 C  
BRANCH  14  15
HETATM   15  N   UNL     1      -9.369   7.952  70.608  1.00  0.00    -0.158 NA 
HETATM   16  C   UNL     1      -8.699   8.545  71.652  1.00  0.00    -0.199 A  
HETATM   17  N   UNL     1      -7.553   7.943  71.912  1.00  0.00    -0.078 NA 
HETATM   18  C   UNL     1      -7.481   6.913  71.001  1.00  0.00    -0.083 A  
HETATM   19  C   UNL     1      -8.594   6.921  70.199  1.00  0.00    -0.141 A  
HETATM   20  N   UNL     1      -8.789   6.012  69.237  1.00  0.00    -0.123 NA 
HETATM   21  C   UNL     1      -7.827   5.041  69.102  1.00  0.00    -0.080 C  
HETATM   22  N   UNL     1      -8.121   4.118  68.154  1.00  0.00    -0.085 NA 
HETATM   23  N   UNL     1      -6.737   4.937  69.806  1.00  0.00    -0.042 N  
HETATM   24  H2  UNL     1      -8.974   4.142  67.595  1.00  0.00     0.000 HD 
HETATM   25  H1  UNL     1      -7.407   3.397  68.054  1.00  0.00     0.000 HD 
HETATM   26  H   UNL     1      -6.086   4.173  69.625  1.00  0.00     0.000 HD 
HETATM   27  C   UNL     1      -6.458   5.871  70.811  1.00  0.00    -0.040 C  
HETATM   28  O   UNL     1      -5.439   5.823  71.489  1.00  0.00    -0.019 OA 
ENDBRANCH  14  15
ENDBRANCH  13  14
ENDBRANCH  12  13
BRANCH  12  29
HETATM   29  C   UNL     1     -13.596   9.615  71.848  1.00  0.00    -0.364 C  
HETATM   30  O   UNL     1     -13.563   8.942  73.109  1.00  0.00    -0.997 OA 
HETATM   31  H   UNL     1     -14.451   8.823  73.425  1.00  0.00     0.000 HD 
ENDBRANCH  12  29
ENDBRANCH  11  12
ENDBRANCH  10  11
ENDBRANCH   8  10
ENDBRANCH   4   8
TORSDOF 8
ENDMDL
MODEL      297
REMARK 921   NORMALIZED FREE ENERGY PREDICTED BY IDOCK:   -3.71 KCAL/MOL
REMARK 922        TOTAL FREE ENERGY PREDICTED BY IDOCK:   -6.65 KCAL/MOL
REMARK 923 INTER-LIGAND FREE ENERGY PREDICTED BY IDOCK:   -5.59 KCAL/MOL
REMARK 924 INTRA-LIGAND FREE ENERGY PREDICTED BY IDOCK:   -1.06 KCAL/MOL
REMARK 927      BINDING AFFINITY PREDICTED BY RF-SCORE:    0.00 PKD
ROOT
HETATM    1  C   UNL     1     -12.249  11.188  69.656  1.00  0.00    -0.360 C  
HETATM    2  C   UNL     1     -11.304  12.278  69.136  1.00  0.00    -0.330 C  
HETATM    3  C   UNL     1     -11.924  13.658  69.373  1.00  0.00    -0.394 C  
HETATM    4  C   UNL     1     -10.899  12.074  67.654  1.00  0.00    -0.231 C  
HETATM    5  N   UNL     1     -12.075  12.066  66.755  1.00  0.00    -0.542 NA 
HETATM    6  H1  UNL     1     -11.808  11.932  65.780  1.00  0.00     0.000 HD 
HETATM    7  H2  UNL     1     -12.637  12.908  66.872  1.00  0.00     0.000 HD 
ENDROOT
BRANCH   4   8
HETATM    8  C   UNL     1     -10.054  10.795  67.482  1.00  0.00    -0.186 C  
HETATM    9  O   UNL     1     -10.510   9.695  67.195  1.00  0.00    -0.247 OA 
BRANCH   8  10
HETATM   10  O   UNL     1      -8.735  11.021  67.763  1.00  0.00    -0.127 OA 
BRANCH  10  11
HETATM   11  C   UNL     1      -8.256  10.507  69.018  1.00  0.00    -0.145 C  
BRANCH  11  12
HETATM   12  C   UNL     1      -7.228   9.392  68.770  1.00  0.00    -0.073 C  
BRANCH  12  13
HETATM   13  O   UNL     1      -6.833   8.703  69.978  1.00  0.00    -0.041 OA 
BRANCH  13  14
HETATM   14  C   UNL     1      -7.736   8.916  71.062  1.00  0.00    -0.132 C  
BRANCH  14  15
HETATM   15  N   UNL     1      -8.369   7.662  71.403  1.00  0.00    -0.105 NA 
HETATM   16  C   UNL     1      -7.720   6.455  71.517  1.00  0.00    -0.100 A  
HETATM   17  N   UNL     1      -8.516   5.503  71.966  1.00  0.00    -0.126 NA 
HETATM   18  C   UNL     1      -9.732   6.120  72.156  1.00  0.00    -0.154 A  
HETATM   19  C   UNL     1      -9.642   7.445  71.807  1.00  0.00    -0.149 A  
HETATM   20  N   UNL     1     -10.678   8.284  71.913  1.00  0.00    -0.261 NA 
HETATM   21  C   UNL     1     -11.844   7.763  72.418  1.00  0.00    -0.321 C  
HETATM   22  N   UNL     1     -12.830   8.683  72.558  1.00  0.00    -0.557 NA 
HETATM   23  N   UNL     1     -12.040   6.529  72.780  1.00  0.00    -0.442 N  
HETATM   24  H2  UNL     1     -12.716   9.667  72.313  1.00  0.00     0.000 HD 
HETATM   25  H1  UNL     1     -13.696   8.297  72.933  1.00  0.00     0.000 HD 
HETATM   26  H   UNL     1     -12.949   6.244  73.145  1.00  0.00     0.000 HD 
HETATM   27  C   UNL     1     -11.007   5.591  72.669  1.00  0.00    -0.270 C  
HETATM   28  O   UNL     1     -11.147   4.416  72.985  1.00  0.00    -0.216 OA 
ENDBRANCH  14  15
ENDBRANCH  13  14
ENDBRANCH  12  13
BRANCH  12  29
HETATM   29  C   UNL     1      -5.955   9.974  68.135  1.00  0.00    -0.042 C  
HETATM   30  O   UNL     1      -5.880  11.372  68.419  1.00  0.00    -0.046 OA 
HETATM   31  H   UNL     1      -5.093  11.732  68.027  1.00  0.00     0.000 HD 
ENDBRANCH  12  29
ENDBRANCH  11  12
ENDBRANCH  10  11
ENDBRANCH   8  10
ENDBRANCH   4   8
TORSDOF 8
ENDMDL
MODEL      298
REMARK 921   NORMALIZED FREE ENERGY PREDICTED BY IDOCK:   -3.70 KCAL/MOL
REMARK 922        TOTAL FREE ENERGY PREDICTED BY IDOCK:   -6.64 KCAL/MOL
REMARK 923 INTER-LIGAND FREE ENERGY PREDICTED BY IDOCK:   -5.57 KCAL/MOL
REMARK 924 INTRA-LIGAND FREE ENERGY PREDICTED BY IDOCK:   -1.07 KCAL/MOL
REMARK 927      BINDING AFFINITY PREDICTED BY RF-SCORE:    0.00 PKD
ROOT
HETATM    1  C   UNL     1     -11.594  14.643  67.668  1.00  0.00    -0.383 C  
HETATM    2  C   UNL     1     -11.417  13.930  66.321  1.00  0.00    -0.347 C  
HETATM    3  C   UNL     1     -12.715  14.018  65.513  1.00  0.00    -0.517 C  
HETATM    4  C   UNL     1     -10.926  12.467  66.469  1.00  0.00    -0.266 C  
HETATM    5  N   UNL     1     -11.867  11.647  67.265  1.00  0.00    -0.626 NA 
HETATM    6  H1  UNL     1     -11.544  10.684  67.362  1.00  0.00     0.000 HD 
HETATM    7  H2  UNL     1     -12.810  11.684  66.879  1.00  0.00     0.000 HD 
ENDROOT
BRANCH   4   8
HETATM    8  C   UNL     1      -9.502  12.418  67.059  1.00  0.00    -0.211 C  
HETATM    9  O   UNL     1      -8.709  13.352  67.036  1.00  0.00    -0.216 OA 
BRANCH   8  10
HETATM   10  O   UNL     1      -9.203  11.178  67.549  1.00  0.00    -0.151 OA 
BRANCH  10  11
HETATM   11  C   UNL     1      -8.498  11.144  68.803  1.00  0.00    -0.134 C  
BRANCH  11  12
HETATM   12  C   UNL     1      -8.824   9.841  69.552  1.00  0.00    -0.193 C  
BRANCH  12  13
HETATM   13  O   UNL     1      -8.795   8.673  68.699  1.00  0.00    -0.140 OA 
BRANCH  13  14
HETATM   14  C   UNL     1      -7.588   7.922  68.822  1.00  0.00    -0.100 C  
BRANCH  14  15
HETATM   15  N   UNL     1      -7.859   6.713  69.568  1.00  0.00    -0.104 NA 
HETATM   16  C   UNL     1      -7.710   6.574  70.927  1.00  0.00    -0.101 A  
HETATM   17  N   UNL     1      -8.152   5.407  71.359  1.00  0.00    -0.114 NA 
HETATM   18  C   UNL     1      -8.611   4.765  70.231  1.00  0.00    -0.090 A  
HETATM   19  C   UNL     1      -8.428   5.565  69.131  1.00  0.00    -0.104 A  
HETATM   20  N   UNL     1      -8.804   5.191  67.903  1.00  0.00    -0.102 NA 
HETATM   21  C   UNL     1      -9.416   3.966  67.793  1.00  0.00    -0.179 C  
HETATM   22  N   UNL     1      -9.829   3.681  66.533  1.00  0.00    -0.410 NA 
HETATM   23  N   UNL     1      -9.641   3.130  68.764  1.00  0.00    -0.107 N  
HETATM   24  H2  UNL     1      -9.698   4.315  65.745  1.00  0.00     0.000 HD 
HETATM   25  H1  UNL     1     -10.282   2.771  66.450  1.00  0.00     0.000 HD 
HETATM   26  H   UNL     1     -10.105   2.242  68.573  1.00  0.00     0.000 HD 
HETATM   27  C   UNL     1      -9.247   3.446  70.069  1.00  0.00    -0.150 C  
HETATM   28  O   UNL     1      -9.424   2.686  71.013  1.00  0.00    -0.136 OA 
ENDBRANCH  14  15
ENDBRANCH  13  14
ENDBRANCH  12  13
BRANCH  12  29
HETATM   29  C   UNL     1     -10.226   9.922  70.175  1.00  0.00    -0.273 C  
HETATM   30  O   UNL     1     -11.206   9.631  69.176  1.00  0.00    -0.417 OA 
HETATM   31  H   UNL     1     -12.073   9.681  69.561  1.00  0.00     0.000 HD 
ENDBRANCH  12  29
ENDBRANCH  11  12
ENDBRANCH  10  11
ENDBRANCH   8  10
ENDBRANCH   4   8
TORSDOF 8
ENDMDL
MODEL      299
REMARK 921   NORMALIZED FREE ENERGY PREDICTED BY IDOCK:   -3.69 KCAL/MOL
REMARK 922        TOTAL FREE ENERGY PREDICTED BY IDOCK:   -6.63 KCAL/MOL
REMARK 923 INTER-LIGAND FREE ENERGY PREDICTED BY IDOCK:   -5.82 KCAL/MOL
REMARK 924 INTRA-LIGAND FREE ENERGY PREDICTED BY IDOCK:   -0.81 KCAL/MOL
REMARK 927      BINDING AFFINITY PREDICTED BY RF-SCORE:    0.00 PKD
ROOT
HETATM    1  C   UNL     1      -8.335   5.096  64.434  1.00  0.00    -0.137 C  
HETATM    2  C   UNL     1      -6.968   5.618  64.892  1.00  0.00    -0.056 C  
HETATM    3  C   UNL     1      -6.193   4.496  65.591  1.00  0.00    -0.031 C  
HETATM    4  C   UNL     1      -7.067   6.887  65.775  1.00  0.00    -0.072 C  
HETATM    5  N   UNL     1      -7.864   6.648  66.999  1.00  0.00    -0.106 NA 
HETATM    6  H1  UNL     1      -7.929   7.484  67.580  1.00  0.00     0.000 HD 
HETATM    7  H2  UNL     1      -7.501   5.856  67.530  1.00  0.00     0.000 HD 
ENDROOT
BRANCH   4   8
HETATM    8  C   UNL     1      -7.623   8.080  64.969  1.00  0.00    -0.104 C  
HETATM    9  O   UNL     1      -6.997   8.686  64.108  1.00  0.00    -0.086 OA 
BRANCH   8  10
HETATM   10  O   UNL     1      -8.878   8.426  65.385  1.00  0.00    -0.170 OA 
BRANCH  10  11
HETATM   11  C   UNL     1      -9.080   9.815  65.704  1.00  0.00    -0.178 C  
BRANCH  11  12
HETATM   12  C   UNL     1      -8.471  10.131  67.079  1.00  0.00    -0.129 C  
BRANCH  12  13
HETATM   13  O   UNL     1      -9.326   9.747  68.180  1.00  0.00    -0.129 OA 
BRANCH  13  14
HETATM   14  C   UNL     1      -9.439  10.759  69.179  1.00  0.00    -0.134 C  
BRANCH  14  15
HETATM   15  N   UNL     1     -10.702  10.606  69.866  1.00  0.00    -0.242 NA 
HETATM   16  C   UNL     1     -11.877  11.221  69.504  1.00  0.00    -0.357 A  
HETATM   17  N   UNL     1     -12.900  10.802  70.225  1.00  0.00    -0.246 NA 
HETATM   18  C   UNL     1     -12.365   9.871  71.088  1.00  0.00    -0.370 A  
HETATM   19  C   UNL     1     -11.015   9.754  70.870  1.00  0.00    -0.341 A  
HETATM   20  N   UNL     1     -10.250   8.903  71.562  1.00  0.00    -0.300 NA 
HETATM   21  C   UNL     1     -10.887   8.120  72.494  1.00  0.00    -0.361 C  
HETATM   22  N   UNL     1     -10.063   7.237  73.110  1.00  0.00    -0.241 NA 
HETATM   23  N   UNL     1     -12.156   8.147  72.781  1.00  0.00    -0.602 N  
HETATM   24  H2  UNL     1      -9.068   7.161  72.900  1.00  0.00     0.000 HD 
HETATM   25  H1  UNL     1     -10.535   6.656  73.802  1.00  0.00     0.000 HD 
HETATM   26  H   UNL     1     -12.529   7.520  73.494  1.00  0.00     0.000 HD 
HETATM   27  C   UNL     1     -13.009   9.034  72.115  1.00  0.00    -0.424 C  
HETATM   28  O   UNL     1     -14.207   9.105  72.360  1.00  0.00    -0.439 OA 
ENDBRANCH  14  15
ENDBRANCH  13  14
ENDBRANCH  12  13
BRANCH  12  29
HETATM   29  C   UNL     1      -8.201  11.638  67.209  1.00  0.00    -0.159 C  
HETATM   30  O   UNL     1      -8.888  12.333  66.166  1.00  0.00    -0.404 OA 
HETATM   31  H   UNL     1      -8.721  13.265  66.246  1.00  0.00     0.000 HD 
ENDBRANCH  12  29
ENDBRANCH  11  12
ENDBRANCH  10  11
ENDBRANCH   8  10
ENDBRANCH   4   8
TORSDOF 8
ENDMDL
MODEL      300
REMARK 921   NORMALIZED FREE ENERGY PREDICTED BY IDOCK:   -3.67 KCAL/MOL
REMARK 922        TOTAL FREE ENERGY PREDICTED BY IDOCK:   -6.60 KCAL/MOL
REMARK 923 INTER-LIGAND FREE ENERGY PREDICTED BY IDOCK:   -5.66 KCAL/MOL
REMARK 924 INTRA-LIGAND FREE ENERGY PREDICTED BY IDOCK:   -0.94 KCAL/MOL
REMARK 927      BINDING AFFINITY PREDICTED BY RF-SCORE:    0.00 PKD
ROOT
HETATM    1  C   UNL     1     -12.848  11.619  71.090  1.00  0.00    -0.392 C  
HETATM    2  C   UNL     1     -11.720  12.268  70.278  1.00  0.00    -0.223 C  
HETATM    3  C   UNL     1     -12.210  13.587  69.672  1.00  0.00    -0.304 C  
HETATM    4  C   UNL     1     -11.126  11.324  69.202  1.00  0.00    -0.253 C  
HETATM    5  N   UNL     1     -12.150  10.881  68.229  1.00  0.00    -0.810 NA 
HETATM    6  H1  UNL     1     -11.759  10.260  67.521  1.00  0.00     0.000 HD 
HETATM    7  H2  UNL     1     -12.625  11.676  67.802  1.00  0.00     0.000 HD 
ENDROOT
BRANCH   4   8
HETATM    8  C   UNL     1     -10.414  10.121  69.854  1.00  0.00    -0.275 C  
HETATM    9  O   UNL     1      -9.253   9.798  69.633  1.00  0.00    -0.193 OA 
BRANCH   8  10
HETATM   10  O   UNL     1     -11.262   9.410  70.657  1.00  0.00    -0.249 OA 
BRANCH  10  11
HETATM   11  C   UNL     1     -11.741   8.161  70.126  1.00  0.00     0.199 C  
BRANCH  11  12
HETATM   12  C   UNL     1     -10.807   7.017  70.551  1.00  0.00    -0.251 C  
BRANCH  12  13
HETATM   13  O   UNL     1     -10.789   5.919  69.611  1.00  0.00    -0.315 OA 
BRANCH  13  14
HETATM   14  C   UNL     1     -11.006   6.334  68.263  1.00  0.00    -0.321 C  
BRANCH  14  15
HETATM   15  N   UNL     1      -9.736   6.673  67.663  1.00  0.00    -0.122 NA 
HETATM   16  C   UNL     1      -8.621   5.868  67.666  1.00  0.00    -0.102 A  
HETATM   17  N   UNL     1      -7.643   6.370  66.935  1.00  0.00    -0.094 NA 
HETATM   18  C   UNL     1      -8.148   7.549  66.432  1.00  0.00    -0.114 A  
HETATM   19  C   UNL     1      -9.431   7.736  66.883  1.00  0.00    -0.187 A  
HETATM   20  N   UNL     1     -10.165   8.797  66.530  1.00  0.00    -0.281 NA 
HETATM   21  C   UNL     1      -9.582   9.690  65.664  1.00  0.00    -0.271 C  
HETATM   22  N   UNL     1     -10.405  10.703  65.299  1.00  0.00    -0.279 NA 
HETATM   23  N   UNL     1      -8.378   9.611  65.176  1.00  0.00    -0.130 N  
HETATM   24  H2  UNL     1     -11.363  10.794  65.635  1.00  0.00     0.000 HD 
HETATM   25  H1  UNL     1      -9.972  11.367  64.657  1.00  0.00     0.000 HD 
HETATM   26  H   UNL     1      -8.041  10.331  64.537  1.00  0.00     0.000 HD 
HETATM   27  C   UNL     1      -7.546   8.541  65.526  1.00  0.00    -0.090 C  
HETATM   28  O   UNL     1      -6.402   8.431  65.103  1.00  0.00    -0.052 OA 
ENDBRANCH  14  15
ENDBRANCH  13  14
ENDBRANCH  12  13
BRANCH  12  29
HETATM   29  C   UNL     1     -11.245   6.452  71.912  1.00  0.00    -0.280 C  
HETATM   30  O   UNL     1     -10.702   7.260  72.958  1.00  0.00    -0.275 OA 
HETATM   31  H   UNL     1     -10.972   6.910  73.799  1.00  0.00     0.000 HD 
ENDBRANCH  12  29
ENDBRANCH  11  12
ENDBRANCH  10  11
ENDBRANCH   8  10
ENDBRANCH   4   8
TORSDOF 8
ENDMDL
MODEL      301
REMARK 921   NORMALIZED FREE ENERGY PREDICTED BY IDOCK:   -3.66 KCAL/MOL
REMARK 922        TOTAL FREE ENERGY PREDICTED BY IDOCK:   -6.59 KCAL/MOL
REMARK 923 INTER-LIGAND FREE ENERGY PREDICTED BY IDOCK:   -6.35 KCAL/MOL
REMARK 924 INTRA-LIGAND FREE ENERGY PREDICTED BY IDOCK:   -0.25 KCAL/MOL
REMARK 927      BINDING AFFINITY PREDICTED BY RF-SCORE:    0.00 PKD
ROOT
HETATM    1  C   UNL     1      -7.677  13.772  67.624  1.00  0.00    -0.187 C  
HETATM    2  C   UNL     1      -6.158  13.912  67.466  1.00  0.00     0.015 C  
HETATM    3  C   UNL     1      -5.452  12.776  68.213  1.00  0.00    -0.067 C  
HETATM    4  C   UNL     1      -5.629  15.303  67.898  1.00  0.00    -0.129 C  
HETATM    5  N   UNL     1      -5.940  15.597  69.315  1.00  0.00    -0.107 NA 
HETATM    6  H1  UNL     1      -5.591  16.513  69.599  1.00  0.00     0.000 HD 
HETATM    7  H2  UNL     1      -5.593  14.862  69.931  1.00  0.00     0.000 HD 
ENDROOT
BRANCH   4   8
HETATM    8  C   UNL     1      -6.162  16.412  66.966  1.00  0.00    -0.120 C  
HETATM    9  O   UNL     1      -5.468  17.065  66.198  1.00  0.00    -0.336 OA 
BRANCH   8  10
HETATM   10  O   UNL     1      -7.498  16.628  67.155  1.00  0.00    -0.150 OA 
BRANCH  10  11
HETATM   11  C   UNL     1      -7.848  17.669  68.085  1.00  0.00    -0.257 C  
BRANCH  11  12
HETATM   12  C   UNL     1      -8.956  18.552  67.490  1.00  0.00    -0.276 C  
BRANCH  12  13
HETATM   13  O   UNL     1     -10.174  17.824  67.208  1.00  0.00    -0.324 OA 
BRANCH  13  14
HETATM   14  C   UNL     1     -10.920  17.509  68.382  1.00  0.00    -0.054 C  
BRANCH  14  15
HETATM   15  N   UNL     1     -11.243  16.100  68.372  1.00  0.00    -0.360 NA 
HETATM   16  C   UNL     1     -10.970  15.234  67.339  1.00  0.00    -0.321 A  
HETATM   17  N   UNL     1     -11.255  13.983  67.650  1.00  0.00    -0.286 NA 
HETATM   18  C   UNL     1     -11.728  14.040  68.942  1.00  0.00    -0.340 A  
HETATM   19  C   UNL     1     -11.725  15.340  69.383  1.00  0.00    -0.341 A  
HETATM   20  N   UNL     1     -12.120  15.678  70.616  1.00  0.00    -0.381 NA 
HETATM   21  C   UNL     1     -12.509  14.652  71.441  1.00  0.00    -0.344 C  
HETATM   22  N   UNL     1     -12.833  15.060  72.693  1.00  0.00    -0.353 NA 
HETATM   23  N   UNL     1     -12.551  13.389  71.130  1.00  0.00    -0.367 N  
HETATM   24  H2  UNL     1     -12.792  16.034  72.992  1.00  0.00     0.000 HD 
HETATM   25  H1  UNL     1     -13.123  14.298  73.306  1.00  0.00     0.000 HD 
HETATM   26  H   UNL     1     -12.856  12.704  71.821  1.00  0.00     0.000 HD 
HETATM   27  C   UNL     1     -12.178  12.969  69.847  1.00  0.00    -0.202 C  
HETATM   28  O   UNL     1     -12.213  11.794  69.503  1.00  0.00    -0.258 OA 
ENDBRANCH  14  15
ENDBRANCH  13  14
ENDBRANCH  12  13
BRANCH  12  29
HETATM   29  C   UNL     1      -8.483  19.185  66.172  1.00  0.00    -0.232 C  
HETATM   30  O   UNL     1      -8.796  20.579  66.175  1.00  0.00    -0.570 OA 
HETATM   31  H   UNL     1      -8.503  20.970  65.360  1.00  0.00     0.000 HD 
ENDBRANCH  12  29
ENDBRANCH  11  12
ENDBRANCH  10  11
ENDBRANCH   8  10
ENDBRANCH   4   8
TORSDOF 8
ENDMDL
MODEL      302
REMARK 921   NORMALIZED FREE ENERGY PREDICTED BY IDOCK:   -3.66 KCAL/MOL
REMARK 922        TOTAL FREE ENERGY PREDICTED BY IDOCK:   -6.59 KCAL/MOL
REMARK 923 INTER-LIGAND FREE ENERGY PREDICTED BY IDOCK:   -5.67 KCAL/MOL
REMARK 924 INTRA-LIGAND FREE ENERGY PREDICTED BY IDOCK:   -0.92 KCAL/MOL
REMARK 927      BINDING AFFINITY PREDICTED BY RF-SCORE:    0.00 PKD
ROOT
HETATM    1  C   UNL     1     -11.724  12.004  68.287  1.00  0.00    -0.396 C  
HETATM    2  C   UNL     1     -11.565  13.527  68.376  1.00  0.00    -0.378 C  
HETATM    3  C   UNL     1     -12.600  14.101  69.348  1.00  0.00     0.063 C  
HETATM    4  C   UNL     1     -11.621  14.225  66.994  1.00  0.00    -0.386 C  
HETATM    5  N   UNL     1     -12.902  13.971  66.298  1.00  0.00    -0.432 NA 
HETATM    6  H1  UNL     1     -12.939  14.431  65.388  1.00  0.00     0.000 HD 
HETATM    7  H2  UNL     1     -13.698  14.235  66.878  1.00  0.00     0.000 HD 
ENDROOT
BRANCH   4   8
HETATM    8  C   UNL     1     -10.418  13.817  66.118  1.00  0.00    -0.297 C  
HETATM    9  O   UNL     1     -10.370  12.801  65.435  1.00  0.00    -0.285 OA 
BRANCH   8  10
HETATM   10  O   UNL     1      -9.377  14.692  66.254  1.00  0.00    -0.286 OA 
BRANCH  10  11
HETATM   11  C   UNL     1      -9.642  16.056  65.880  1.00  0.00    -0.335 C  
BRANCH  11  12
HETATM   12  C   UNL     1      -8.458  16.950  66.283  1.00  0.00    -0.287 C  
BRANCH  12  13
HETATM   13  O   UNL     1      -7.898  16.604  67.570  1.00  0.00    -0.163 OA 
BRANCH  13  14
HETATM   14  C   UNL     1      -6.564  16.106  67.483  1.00  0.00    -0.171 C  
BRANCH  14  15
HETATM   15  N   UNL     1      -6.396  15.035  68.440  1.00  0.00    -0.099 NA 
HETATM   16  C   UNL     1      -6.217  15.206  69.793  1.00  0.00    -0.147 A  
HETATM   17  N   UNL     1      -6.222  14.058  70.444  1.00  0.00    -0.156 NA 
HETATM   18  C   UNL     1      -6.418  13.102  69.472  1.00  0.00    -0.074 A  
HETATM   19  C   UNL     1      -6.521  13.702  68.242  1.00  0.00    -0.109 A  
HETATM   20  N   UNL     1      -6.733  13.004  67.121  1.00  0.00    -0.119 NA 
HETATM   21  C   UNL     1      -6.873  11.645  67.259  1.00  0.00    -0.129 C  
HETATM   22  N   UNL     1      -7.150  11.010  66.094  1.00  0.00    -0.293 NA 
HETATM   23  N   UNL     1      -6.795  10.973  68.371  1.00  0.00    -0.063 N  
HETATM   24  H2  UNL     1      -7.246  11.495  65.202  1.00  0.00     0.000 HD 
HETATM   25  H1  UNL     1      -7.253  10.000  66.196  1.00  0.00     0.000 HD 
HETATM   26  H   UNL     1      -6.915   9.961  68.364  1.00  0.00     0.000 HD 
HETATM   27  C   UNL     1      -6.547  11.639  69.578  1.00  0.00    -0.111 C  
HETATM   28  O   UNL     1      -6.452  11.050  70.647  1.00  0.00    -0.327 OA 
ENDBRANCH  14  15
ENDBRANCH  13  14
ENDBRANCH  12  13
BRANCH  12  29
HETATM   29  C   UNL     1      -8.900  18.420  66.353  1.00  0.00    -0.248 C  
HETATM   30  O   UNL     1      -7.914  19.242  65.726  1.00  0.00    -0.446 OA 
HETATM   31  H   UNL     1      -8.187  20.151  65.770  1.00  0.00     0.000 HD 
ENDBRANCH  12  29
ENDBRANCH  11  12
ENDBRANCH  10  11
ENDBRANCH   8  10
ENDBRANCH   4   8
TORSDOF 8
ENDMDL
MODEL      303
REMARK 921   NORMALIZED FREE ENERGY PREDICTED BY IDOCK:   -3.65 KCAL/MOL
REMARK 922        TOTAL FREE ENERGY PREDICTED BY IDOCK:   -6.57 KCAL/MOL
REMARK 923 INTER-LIGAND FREE ENERGY PREDICTED BY IDOCK:   -5.80 KCAL/MOL
REMARK 924 INTRA-LIGAND FREE ENERGY PREDICTED BY IDOCK:   -0.77 KCAL/MOL
REMARK 927      BINDING AFFINITY PREDICTED BY RF-SCORE:    0.00 PKD
ROOT
HETATM    1  C   UNL     1     -10.282   4.474  71.580  1.00  0.00    -0.214 C  
HETATM    2  C   UNL     1      -9.694   3.430  70.623  1.00  0.00    -0.176 C  
HETATM    3  C   UNL     1      -9.423   2.126  71.380  1.00  0.00    -0.205 C  
HETATM    4  C   UNL     1      -8.435   3.935  69.873  1.00  0.00    -0.060 C  
HETATM    5  N   UNL     1      -7.351   4.315  70.807  1.00  0.00    -0.044 NA 
HETATM    6  H1  UNL     1      -6.523   4.647  70.313  1.00  0.00     0.000 HD 
HETATM    7  H2  UNL     1      -7.122   3.550  71.441  1.00  0.00     0.000 HD 
ENDROOT
BRANCH   4   8
HETATM    8  C   UNL     1      -8.787   5.097  68.921  1.00  0.00    -0.092 C  
HETATM    9  O   UNL     1      -9.070   4.961  67.736  1.00  0.00    -0.111 OA 
BRANCH   8  10
HETATM   10  O   UNL     1      -8.672   6.309  69.542  1.00  0.00    -0.130 OA 
BRANCH  10  11
HETATM   11  C   UNL     1      -9.788   7.205  69.395  1.00  0.00    -0.161 C  
BRANCH  11  12
HETATM   12  C   UNL     1      -9.389   8.398  68.511  1.00  0.00    -0.139 C  
BRANCH  12  13
HETATM   13  O   UNL     1      -9.800   9.672  69.058  1.00  0.00    -0.169 OA 
BRANCH  13  14
HETATM   14  C   UNL     1     -10.895  10.255  68.353  1.00  0.00    -0.245 C  
BRANCH  14  15
HETATM   15  N   UNL     1     -11.599  11.157  69.238  1.00  0.00    -0.288 NA 
HETATM   16  C   UNL     1     -12.077  10.827  70.484  1.00  0.00    -0.366 A  
HETATM   17  N   UNL     1     -12.561  11.875  71.124  1.00  0.00    -0.348 NA 
HETATM   18  C   UNL     1     -12.386  12.930  70.256  1.00  0.00    -0.223 A  
HETATM   19  C   UNL     1     -11.798  12.488  69.097  1.00  0.00    -0.296 A  
HETATM   20  N   UNL     1     -11.497  13.313  68.088  1.00  0.00    -0.291 NA 
HETATM   21  C   UNL     1     -11.779  14.644  68.275  1.00  0.00    -0.328 C  
HETATM   22  N   UNL     1     -11.388  15.428  67.241  1.00  0.00    -0.273 NA 
HETATM   23  N   UNL     1     -12.331  15.171  69.329  1.00  0.00    -0.588 N  
HETATM   24  H2  UNL     1     -10.928  15.065  66.406  1.00  0.00     0.000 HD 
HETATM   25  H1  UNL     1     -11.598  16.417  67.379  1.00  0.00     0.000 HD 
HETATM   26  H   UNL     1     -12.497  16.177  69.367  1.00  0.00     0.000 HD 
HETATM   27  C   UNL     1     -12.698  14.361  70.410  1.00  0.00    -0.304 C  
HETATM   28  O   UNL     1     -13.232  14.809  71.417  1.00  0.00    -0.330 OA 
ENDBRANCH  14  15
ENDBRANCH  13  14
ENDBRANCH  12  13
BRANCH  12  29
HETATM   29  C   UNL     1     -10.027   8.266  67.120  1.00  0.00    -0.239 C  
HETATM   30  O   UNL     1      -9.164   7.504  66.273  1.00  0.00    -0.184 OA 
HETATM   31  H   UNL     1      -9.558   7.423  65.412  1.00  0.00     0.000 HD 
ENDBRANCH  12  29
ENDBRANCH  11  12
ENDBRANCH  10  11
ENDBRANCH   8  10
ENDBRANCH   4   8
TORSDOF 8
ENDMDL
MODEL      304
REMARK 921   NORMALIZED FREE ENERGY PREDICTED BY IDOCK:   -3.64 KCAL/MOL
REMARK 922        TOTAL FREE ENERGY PREDICTED BY IDOCK:   -6.56 KCAL/MOL
REMARK 923 INTER-LIGAND FREE ENERGY PREDICTED BY IDOCK:   -5.77 KCAL/MOL
REMARK 924 INTRA-LIGAND FREE ENERGY PREDICTED BY IDOCK:   -0.79 KCAL/MOL
REMARK 927      BINDING AFFINITY PREDICTED BY RF-SCORE:    0.00 PKD
ROOT
HETATM    1  C   UNL     1      -8.981   3.403  68.567  1.00  0.00    -0.185 C  
HETATM    2  C   UNL     1      -7.957   4.356  69.195  1.00  0.00    -0.068 C  
HETATM    3  C   UNL     1      -6.562   3.725  69.143  1.00  0.00    -0.040 C  
HETATM    4  C   UNL     1      -8.337   4.796  70.631  1.00  0.00    -0.096 C  
HETATM    5  N   UNL     1      -8.464   3.642  71.548  1.00  0.00    -0.072 NA 
HETATM    6  H1  UNL     1      -8.714   3.932  72.493  1.00  0.00     0.000 HD 
HETATM    7  H2  UNL     1      -7.617   3.073  71.548  1.00  0.00     0.000 HD 
ENDROOT
BRANCH   4   8
HETATM    8  C   UNL     1      -9.622   5.650  70.625  1.00  0.00    -0.168 C  
HETATM    9  O   UNL     1     -10.657   5.351  71.209  1.00  0.00    -0.235 OA 
BRANCH   8  10
HETATM   10  O   UNL     1      -9.491   6.752  69.827  1.00  0.00    -0.146 OA 
BRANCH  10  11
HETATM   11  C   UNL     1     -10.626   7.080  69.006  1.00  0.00    -0.217 C  
BRANCH  11  12
HETATM   12  C   UNL     1     -10.240   6.993  67.520  1.00  0.00    -0.199 C  
BRANCH  12  13
HETATM   13  O   UNL     1     -10.527   8.207  66.788  1.00  0.00    -0.326 OA 
BRANCH  13  14
HETATM   14  C   UNL     1     -10.444   9.380  67.595  1.00  0.00    -0.268 C  
BRANCH  14  15
HETATM   15  N   UNL     1     -10.302  10.534  66.736  1.00  0.00    -0.237 NA 
HETATM   16  C   UNL     1     -10.225  10.494  65.364  1.00  0.00    -0.270 A  
HETATM   17  N   UNL     1     -10.230  11.700  64.830  1.00  0.00    -0.262 NA 
HETATM   18  C   UNL     1     -10.319  12.561  65.902  1.00  0.00    -0.263 A  
HETATM   19  C   UNL     1     -10.359  11.844  67.072  1.00  0.00    -0.212 A  
HETATM   20  N   UNL     1     -10.465  12.434  68.268  1.00  0.00    -0.219 NA 
HETATM   21  C   UNL     1     -10.560  13.804  68.274  1.00  0.00    -0.255 C  
HETATM   22  N   UNL     1     -10.729  14.328  69.512  1.00  0.00    -0.428 NA 
HETATM   23  N   UNL     1     -10.534  14.580  67.229  1.00  0.00    -0.264 N  
HETATM   24  H2  UNL     1     -10.782  13.760  70.358  1.00  0.00     0.000 HD 
HETATM   25  H1  UNL     1     -10.799  15.345  69.517  1.00  0.00     0.000 HD 
HETATM   26  H   UNL     1     -10.613  15.590  67.344  1.00  0.00     0.000 HD 
HETATM   27  C   UNL     1     -10.397  14.030  65.949  1.00  0.00    -0.318 C  
HETATM   28  O   UNL     1     -10.354  14.720  64.937  1.00  0.00    -0.406 OA 
ENDBRANCH  14  15
ENDBRANCH  13  14
ENDBRANCH  12  13
BRANCH  12  29
HETATM   29  C   UNL     1     -11.006   5.850  66.837  1.00  0.00    -0.217 C  
HETATM   30  O   UNL     1     -10.246   5.368  65.727  1.00  0.00    -0.401 OA 
HETATM   31  H   UNL     1     -10.720   4.661  65.304  1.00  0.00     0.000 HD 
ENDBRANCH  12  29
ENDBRANCH  11  12
ENDBRANCH  10  11
ENDBRANCH   8  10
ENDBRANCH   4   8
TORSDOF 8
ENDMDL
MODEL      305
REMARK 921   NORMALIZED FREE ENERGY PREDICTED BY IDOCK:   -3.64 KCAL/MOL
REMARK 922        TOTAL FREE ENERGY PREDICTED BY IDOCK:   -6.55 KCAL/MOL
REMARK 923 INTER-LIGAND FREE ENERGY PREDICTED BY IDOCK:   -5.68 KCAL/MOL
REMARK 924 INTRA-LIGAND FREE ENERGY PREDICTED BY IDOCK:   -0.87 KCAL/MOL
REMARK 927      BINDING AFFINITY PREDICTED BY RF-SCORE:    0.00 PKD
ROOT
HETATM    1  C   UNL     1      -9.467  15.213  66.180  1.00  0.00    -0.354 C  
HETATM    2  C   UNL     1     -10.452  14.714  67.244  1.00  0.00    -0.266 C  
HETATM    3  C   UNL     1     -11.284  15.887  67.772  1.00  0.00    -0.258 C  
HETATM    4  C   UNL     1      -9.763  13.932  68.391  1.00  0.00    -0.226 C  
HETATM    5  N   UNL     1      -8.758  14.758  69.096  1.00  0.00    -0.342 NA 
HETATM    6  H1  UNL     1      -8.305  14.243  69.851  1.00  0.00     0.000 HD 
HETATM    7  H2  UNL     1      -9.165  15.629  69.435  1.00  0.00     0.000 HD 
ENDROOT
BRANCH   4   8
HETATM    8  C   UNL     1      -9.144  12.618  67.871  1.00  0.00    -0.200 C  
HETATM    9  O   UNL     1      -7.949  12.351  67.909  1.00  0.00    -0.131 OA 
BRANCH   8  10
HETATM   10  O   UNL     1     -10.085  11.813  67.293  1.00  0.00    -0.191 OA 
BRANCH  10  11
HETATM   11  C   UNL     1     -10.703  10.839  68.154  1.00  0.00    -0.214 C  
BRANCH  11  12
HETATM   12  C   UNL     1     -10.654   9.451  67.496  1.00  0.00    -0.267 C  
BRANCH  12  13
HETATM   13  O   UNL     1     -10.545   8.372  68.452  1.00  0.00    -0.190 OA 
BRANCH  13  14
HETATM   14  C   UNL     1     -10.207   8.820  69.764  1.00  0.00    -0.202 C  
BRANCH  14  15
HETATM   15  N   UNL     1     -10.701   7.866  70.731  1.00  0.00    -0.219 NA 
HETATM   16  C   UNL     1     -12.029   7.637  71.008  1.00  0.00    -0.273 A  
HETATM   17  N   UNL     1     -12.196   6.623  71.835  1.00  0.00    -0.345 NA 
HETATM   18  C   UNL     1     -10.923   6.171  72.102  1.00  0.00    -0.262 A  
HETATM   19  C   UNL     1     -10.005   6.937  71.427  1.00  0.00    -0.181 A  
HETATM   20  N   UNL     1      -8.690   6.702  71.494  1.00  0.00    -0.131 NA 
HETATM   21  C   UNL     1      -8.293   5.631  72.256  1.00  0.00    -0.119 C  
HETATM   22  N   UNL     1      -6.956   5.414  72.226  1.00  0.00    -0.078 NA 
HETATM   23  N   UNL     1      -9.073   4.841  72.935  1.00  0.00    -0.118 N  
HETATM   24  H2  UNL     1      -6.307   5.990  71.689  1.00  0.00     0.000 HD 
HETATM   25  H1  UNL     1      -6.660   4.619  72.793  1.00  0.00     0.000 HD 
HETATM   26  H   UNL     1      -8.674   4.070  73.471  1.00  0.00     0.000 HD 
HETATM   27  C   UNL     1     -10.458   5.047  72.931  1.00  0.00    -0.208 C  
HETATM   28  O   UNL     1     -11.230   4.338  73.565  1.00  0.00    -0.280 OA 
ENDBRANCH  14  15
ENDBRANCH  13  14
ENDBRANCH  12  13
BRANCH  12  29
HETATM   29  C   UNL     1      -9.446   9.353  66.551  1.00  0.00    -0.190 C  
HETATM   30  O   UNL     1      -9.879   9.558  65.205  1.00  0.00    -0.435 OA 
HETATM   31  H   UNL     1      -9.132   9.497  64.621  1.00  0.00     0.000 HD 
ENDBRANCH  12  29
ENDBRANCH  11  12
ENDBRANCH  10  11
ENDBRANCH   8  10
ENDBRANCH   4   8
TORSDOF 8
ENDMDL
MODEL      306
REMARK 921   NORMALIZED FREE ENERGY PREDICTED BY IDOCK:   -3.63 KCAL/MOL
REMARK 922        TOTAL FREE ENERGY PREDICTED BY IDOCK:   -6.55 KCAL/MOL
REMARK 923 INTER-LIGAND FREE ENERGY PREDICTED BY IDOCK:   -5.62 KCAL/MOL
REMARK 924 INTRA-LIGAND FREE ENERGY PREDICTED BY IDOCK:   -0.93 KCAL/MOL
REMARK 927      BINDING AFFINITY PREDICTED BY RF-SCORE:    0.00 PKD
ROOT
HETATM    1  C   UNL     1     -11.126  15.045  64.897  1.00  0.00    -0.425 C  
HETATM    2  C   UNL     1     -10.724  13.912  65.850  1.00  0.00    -0.286 C  
HETATM    3  C   UNL     1     -11.438  12.618  65.447  1.00  0.00    -0.373 C  
HETATM    4  C   UNL     1     -10.961  14.262  67.342  1.00  0.00    -0.295 C  
HETATM    5  N   UNL     1     -12.382  14.568  67.619  1.00  0.00    -0.585 NA 
HETATM    6  H1  UNL     1     -12.537  14.797  68.600  1.00  0.00     0.000 HD 
HETATM    7  H2  UNL     1     -12.991  13.809  67.316  1.00  0.00     0.000 HD 
ENDROOT
BRANCH   4   8
HETATM    8  C   UNL     1     -10.041  15.415  67.792  1.00  0.00    -0.227 C  
HETATM    9  O   UNL     1     -10.391  16.340  68.516  1.00  0.00    -0.239 OA 
BRANCH   8  10
HETATM   10  O   UNL     1      -8.801  15.320  67.226  1.00  0.00    -0.177 OA 
BRANCH  10  11
HETATM   11  C   UNL     1      -7.687  15.647  68.077  1.00  0.00    -0.126 C  
BRANCH  11  12
HETATM   12  C   UNL     1      -6.719  14.456  68.154  1.00  0.00    -0.127 C  
BRANCH  12  13
HETATM   13  O   UNL     1      -7.370  13.180  67.954  1.00  0.00    -0.101 OA 
BRANCH  13  14
HETATM   14  C   UNL     1      -6.479  12.073  68.069  1.00  0.00    -0.061 C  
BRANCH  14  15
HETATM   15  N   UNL     1      -6.662  11.198  66.933  1.00  0.00    -0.117 NA 
HETATM   16  C   UNL     1      -5.706  10.927  65.983  1.00  0.00    -0.149 A  
HETATM   17  N   UNL     1      -6.099   9.996  65.133  1.00  0.00    -0.098 NA 
HETATM   18  C   UNL     1      -7.363   9.646  65.554  1.00  0.00    -0.106 A  
HETATM   19  C   UNL     1      -7.709  10.388  66.656  1.00  0.00    -0.117 A  
HETATM   20  N   UNL     1      -8.882  10.234  67.281  1.00  0.00    -0.132 NA 
HETATM   21  C   UNL     1      -9.726   9.272  66.781  1.00  0.00    -0.200 C  
HETATM   22  N   UNL     1     -10.865   9.127  67.501  1.00  0.00    -0.454 NA 
HETATM   23  N   UNL     1      -9.500   8.515  65.748  1.00  0.00    -0.431 N  
HETATM   24  H2  UNL     1     -11.075   9.679  68.333  1.00  0.00     0.000 HD 
HETATM   25  H1  UNL     1     -11.492   8.413  67.131  1.00  0.00     0.000 HD 
HETATM   26  H   UNL     1     -10.196   7.827  65.459  1.00  0.00     0.000 HD 
HETATM   27  C   UNL     1      -8.304   8.642  65.031  1.00  0.00    -0.171 C  
HETATM   28  O   UNL     1      -8.052   7.961  64.044  1.00  0.00    -0.138 OA 
ENDBRANCH  14  15
ENDBRANCH  13  14
ENDBRANCH  12  13
BRANCH  12  29
HETATM   29  C   UNL     1      -6.035  14.414  69.529  1.00  0.00    -0.104 C  
HETATM   30  O   UNL     1      -7.031  14.408  70.554  1.00  0.00    -0.378 OA 
HETATM   31  H   UNL     1      -6.609  14.382  71.404  1.00  0.00     0.000 HD 
ENDBRANCH  12  29
ENDBRANCH  11  12
ENDBRANCH  10  11
ENDBRANCH   8  10
ENDBRANCH   4   8
TORSDOF 8
ENDMDL
MODEL      307
REMARK 921   NORMALIZED FREE ENERGY PREDICTED BY IDOCK:   -3.63 KCAL/MOL
REMARK 922        TOTAL FREE ENERGY PREDICTED BY IDOCK:   -6.54 KCAL/MOL
REMARK 923 INTER-LIGAND FREE ENERGY PREDICTED BY IDOCK:   -5.68 KCAL/MOL
REMARK 924 INTRA-LIGAND FREE ENERGY PREDICTED BY IDOCK:   -0.86 KCAL/MOL
REMARK 927      BINDING AFFINITY PREDICTED BY RF-SCORE:    0.00 PKD
ROOT
HETATM    1  C   UNL     1      -7.184   5.363  65.159  1.00  0.00    -0.067 C  
HETATM    2  C   UNL     1      -8.609   5.155  65.685  1.00  0.00    -0.139 C  
HETATM    3  C   UNL     1      -9.549   4.823  64.522  1.00  0.00     0.090 C  
HETATM    4  C   UNL     1      -9.127   6.350  66.524  1.00  0.00    -0.151 C  
HETATM    5  N   UNL     1      -9.142   7.608  65.743  1.00  0.00    -0.381 NA 
HETATM    6  H1  UNL     1      -9.483   8.394  66.295  1.00  0.00     0.000 HD 
HETATM    7  H2  UNL     1      -9.674   7.503  64.880  1.00  0.00     0.000 HD 
ENDROOT
BRANCH   4   8
HETATM    8  C   UNL     1      -8.314   6.508  67.825  1.00  0.00    -0.119 C  
HETATM    9  O   UNL     1      -7.908   5.574  68.507  1.00  0.00    -0.087 OA 
BRANCH   8  10
HETATM   10  O   UNL     1      -8.160   7.822  68.166  1.00  0.00    -0.120 OA 
BRANCH  10  11
HETATM   11  C   UNL     1      -8.426   8.156  69.541  1.00  0.00    -0.127 C  
BRANCH  11  12
HETATM   12  C   UNL     1      -9.942   8.173  69.792  1.00  0.00    -0.191 C  
BRANCH  12  13
HETATM   13  O   UNL     1     -10.436   9.470  70.200  1.00  0.00    -0.217 OA 
BRANCH  13  14
HETATM   14  C   UNL     1     -11.755   9.739  69.730  1.00  0.00     0.046 C  
BRANCH  14  15
HETATM   15  N   UNL     1     -11.897  11.161  69.510  1.00  0.00    -0.323 NA 
HETATM   16  C   UNL     1     -12.017  12.105  70.502  1.00  0.00    -0.216 A  
HETATM   17  N   UNL     1     -12.000  13.335  70.023  1.00  0.00    -0.339 NA 
HETATM   18  C   UNL     1     -11.859  13.181  68.662  1.00  0.00    -0.328 A  
HETATM   19  C   UNL     1     -11.800  11.846  68.347  1.00  0.00    -0.289 A  
HETATM   20  N   UNL     1     -11.644  11.414  67.091  1.00  0.00    -0.538 NA 
HETATM   21  C   UNL     1     -11.518  12.376  66.119  1.00  0.00    -0.379 C  
HETATM   22  N   UNL     1     -11.299  11.867  64.882  1.00  0.00    -0.303 NA 
HETATM   23  N   UNL     1     -11.558  13.663  66.303  1.00  0.00    -0.334 N  
HETATM   24  H2  UNL     1     -11.233  10.868  64.691  1.00  0.00     0.000 HD 
HETATM   25  H1  UNL     1     -11.205  12.582  64.159  1.00  0.00     0.000 HD 
HETATM   26  H   UNL     1     -11.452  14.295  65.509  1.00  0.00     0.000 HD 
HETATM   27  C   UNL     1     -11.746  14.184  67.590  1.00  0.00    -0.387 C  
HETATM   28  O   UNL     1     -11.804  15.387  67.811  1.00  0.00    -0.248 OA 
ENDBRANCH  14  15
ENDBRANCH  13  14
ENDBRANCH  12  13
BRANCH  12  29
HETATM   29  C   UNL     1     -10.309   7.172  70.898  1.00  0.00    -0.201 C  
HETATM   30  O   UNL     1     -11.224   6.204  70.378  1.00  0.00    -0.333 OA 
HETATM   31  H   UNL     1     -11.451   5.585  71.061  1.00  0.00     0.000 HD 
ENDBRANCH  12  29
ENDBRANCH  11  12
ENDBRANCH  10  11
ENDBRANCH   8  10
ENDBRANCH   4   8
TORSDOF 8
ENDMDL
MODEL      308
REMARK 921   NORMALIZED FREE ENERGY PREDICTED BY IDOCK:   -3.63 KCAL/MOL
REMARK 922        TOTAL FREE ENERGY PREDICTED BY IDOCK:   -6.54 KCAL/MOL
REMARK 923 INTER-LIGAND FREE ENERGY PREDICTED BY IDOCK:   -6.23 KCAL/MOL
REMARK 924 INTRA-LIGAND FREE ENERGY PREDICTED BY IDOCK:   -0.32 KCAL/MOL
REMARK 927      BINDING AFFINITY PREDICTED BY RF-SCORE:    0.00 PKD
ROOT
HETATM    1  C   UNL     1     -13.722  14.525  71.625  1.00  0.00    -0.486 C  
HETATM    2  C   UNL     1     -12.194  14.568  71.749  1.00  0.00    -0.385 C  
HETATM    3  C   UNL     1     -11.796  15.374  72.989  1.00  0.00    -0.532 C  
HETATM    4  C   UNL     1     -11.496  15.094  70.469  1.00  0.00    -0.304 C  
HETATM    5  N   UNL     1     -11.934  16.466  70.125  1.00  0.00    -0.233 NA 
HETATM    6  H1  UNL     1     -11.474  16.812  69.283  1.00  0.00     0.000 HD 
HETATM    7  H2  UNL     1     -11.802  17.105  70.909  1.00  0.00     0.000 HD 
ENDROOT
BRANCH   4   8
HETATM    8  C   UNL     1     -11.704  14.126  69.287  1.00  0.00    -0.323 C  
HETATM    9  O   UNL     1     -12.363  13.095  69.342  1.00  0.00    -0.187 OA 
BRANCH   8  10
HETATM   10  O   UNL     1     -11.002  14.522  68.183  1.00  0.00    -0.241 OA 
BRANCH  10  11
HETATM   11  C   UNL     1     -11.669  14.367  66.917  1.00  0.00    -0.402 C  
BRANCH  11  12
HETATM   12  C   UNL     1     -11.417  12.956  66.361  1.00  0.00    -0.341 C  
BRANCH  12  13
HETATM   13  O   UNL     1     -10.022  12.576  66.388  1.00  0.00    -0.240 OA 
BRANCH  13  14
HETATM   14  C   UNL     1      -9.785  11.281  65.838  1.00  0.00    -0.224 C  
BRANCH  14  15
HETATM   15  N   UNL     1      -9.748  10.313  66.911  1.00  0.00    -0.179 NA 
HETATM   16  C   UNL     1     -10.809   9.534  67.310  1.00  0.00    -0.118 A  
HETATM   17  N   UNL     1     -10.459   8.647  68.223  1.00  0.00    -0.209 NA 
HETATM   18  C   UNL     1      -9.112   8.857  68.421  1.00  0.00    -0.137 A  
HETATM   19  C   UNL     1      -8.677   9.882  67.619  1.00  0.00    -0.121 A  
HETATM   20  N   UNL     1      -7.401  10.282  67.599  1.00  0.00    -0.088 NA 
HETATM   21  C   UNL     1      -6.527   9.596  68.406  1.00  0.00    -0.052 C  
HETATM   22  N   UNL     1      -5.242  10.011  68.287  1.00  0.00    -0.036 NA 
HETATM   23  N   UNL     1      -6.829   8.612  69.203  1.00  0.00    -0.054 N  
HETATM   24  H2  UNL     1      -4.953  10.760  67.658  1.00  0.00     0.000 HD 
HETATM   25  H1  UNL     1      -4.593   9.503  68.887  1.00  0.00     0.000 HD 
HETATM   26  H   UNL     1      -6.101   8.169  69.762  1.00  0.00     0.000 HD 
HETATM   27  C   UNL     1      -8.152   8.162  69.294  1.00  0.00    -0.117 C  
HETATM   28  O   UNL     1      -8.486   7.249  70.039  1.00  0.00    -0.136 OA 
ENDBRANCH  14  15
ENDBRANCH  13  14
ENDBRANCH  12  13
BRANCH  12  29
HETATM   29  C   UNL     1     -11.891  12.867  64.902  1.00  0.00    -0.366 C  
HETATM   30  O   UNL     1     -13.257  12.446  64.872  1.00  0.00    -0.714 OA 
HETATM   31  H   UNL     1     -13.550  12.390  63.971  1.00  0.00     0.000 HD 
ENDBRANCH  12  29
ENDBRANCH  11  12
ENDBRANCH  10  11
ENDBRANCH   8  10
ENDBRANCH   4   8
TORSDOF 8
ENDMDL
MODEL      309
REMARK 921   NORMALIZED FREE ENERGY PREDICTED BY IDOCK:   -3.62 KCAL/MOL
REMARK 922        TOTAL FREE ENERGY PREDICTED BY IDOCK:   -6.53 KCAL/MOL
REMARK 923 INTER-LIGAND FREE ENERGY PREDICTED BY IDOCK:   -5.55 KCAL/MOL
REMARK 924 INTRA-LIGAND FREE ENERGY PREDICTED BY IDOCK:   -0.98 KCAL/MOL
REMARK 927      BINDING AFFINITY PREDICTED BY RF-SCORE:    0.00 PKD
ROOT
HETATM    1  C   UNL     1     -10.210  14.634  65.846  1.00  0.00    -0.344 C  
HETATM    2  C   UNL     1     -10.785  14.058  67.145  1.00  0.00    -0.283 C  
HETATM    3  C   UNL     1     -11.554  15.147  67.901  1.00  0.00    -0.326 C  
HETATM    4  C   UNL     1      -9.713  13.383  68.038  1.00  0.00    -0.222 C  
HETATM    5  N   UNL     1      -8.644  14.330  68.429  1.00  0.00    -0.171 NA 
HETATM    6  H1  UNL     1      -7.939  13.886  69.016  1.00  0.00     0.000 HD 
HETATM    7  H2  UNL     1      -9.030  15.160  68.877  1.00  0.00     0.000 HD 
ENDROOT
BRANCH   4   8
HETATM    8  C   UNL     1      -9.129  12.132  67.351  1.00  0.00    -0.181 C  
HETATM    9  O   UNL     1      -7.975  12.033  66.953  1.00  0.00    -0.162 OA 
BRANCH   8  10
HETATM   10  O   UNL     1     -10.080  11.166  67.173  1.00  0.00    -0.183 OA 
BRANCH  10  11
HETATM   11  C   UNL     1     -10.195  10.188  68.222  1.00  0.00    -0.166 C  
BRANCH  11  12
HETATM   12  C   UNL     1     -10.487   8.804  67.618  1.00  0.00    -0.244 C  
BRANCH  12  13
HETATM   13  O   UNL     1     -10.118   7.714  68.494  1.00  0.00    -0.178 OA 
BRANCH  13  14
HETATM   14  C   UNL     1     -10.873   6.527  68.256  1.00  0.00    -0.288 C  
BRANCH  14  15
HETATM   15  N   UNL     1     -10.425   5.493  69.162  1.00  0.00    -0.250 NA 
HETATM   16  C   UNL     1      -9.772   4.343  68.786  1.00  0.00    -0.129 A  
HETATM   17  N   UNL     1      -9.365   3.640  69.826  1.00  0.00    -0.159 NA 
HETATM   18  C   UNL     1      -9.767   4.369  70.924  1.00  0.00    -0.197 A  
HETATM   19  C   UNL     1     -10.421   5.504  70.515  1.00  0.00    -0.277 A  
HETATM   20  N   UNL     1     -10.902   6.404  71.381  1.00  0.00    -0.244 NA 
HETATM   21  C   UNL     1     -10.686   6.152  72.714  1.00  0.00    -0.239 C  
HETATM   22  N   UNL     1     -11.142   7.135  73.529  1.00  0.00    -0.547 NA 
HETATM   23  N   UNL     1     -10.080   5.114  73.211  1.00  0.00    -0.166 N  
HETATM   24  H2  UNL     1     -11.600   7.979  73.185  1.00  0.00     0.000 HD 
HETATM   25  H1  UNL     1     -10.982   6.948  74.519  1.00  0.00     0.000 HD 
HETATM   26  H   UNL     1      -9.972   5.023  74.221  1.00  0.00     0.000 HD 
HETATM   27  C   UNL     1      -9.577   4.120  72.362  1.00  0.00    -0.139 C  
HETATM   28  O   UNL     1      -9.012   3.118  72.784  1.00  0.00    -0.086 OA 
ENDBRANCH  14  15
ENDBRANCH  13  14
ENDBRANCH  12  13
BRANCH  12  29
HETATM   29  C   UNL     1      -9.711   8.623  66.304  1.00  0.00    -0.251 C  
HETATM   30  O   UNL     1      -8.322   8.862  66.537  1.00  0.00    -0.112 OA 
HETATM   31  H   UNL     1      -7.842   8.750  65.725  1.00  0.00     0.000 HD 
ENDBRANCH  12  29
ENDBRANCH  11  12
ENDBRANCH  10  11
ENDBRANCH   8  10
ENDBRANCH   4   8
TORSDOF 8
ENDMDL
MODEL      310
REMARK 921   NORMALIZED FREE ENERGY PREDICTED BY IDOCK:   -3.60 KCAL/MOL
REMARK 922        TOTAL FREE ENERGY PREDICTED BY IDOCK:   -6.50 KCAL/MOL
REMARK 923 INTER-LIGAND FREE ENERGY PREDICTED BY IDOCK:   -5.79 KCAL/MOL
REMARK 924 INTRA-LIGAND FREE ENERGY PREDICTED BY IDOCK:   -0.71 KCAL/MOL
REMARK 927      BINDING AFFINITY PREDICTED BY RF-SCORE:    0.00 PKD
ROOT
HETATM    1  C   UNL     1      -9.462   5.085  68.014  1.00  0.00    -0.165 C  
HETATM    2  C   UNL     1      -8.582   6.013  68.860  1.00  0.00    -0.116 C  
HETATM    3  C   UNL     1      -7.151   5.469  68.908  1.00  0.00    -0.061 C  
HETATM    4  C   UNL     1      -9.153   6.263  70.279  1.00  0.00    -0.154 C  
HETATM    5  N   UNL     1      -9.303   5.005  71.044  1.00  0.00    -0.146 NA 
HETATM    6  H1  UNL     1      -9.678   5.170  71.978  1.00  0.00     0.000 HD 
HETATM    7  H2  UNL     1      -8.425   4.488  71.084  1.00  0.00     0.000 HD 
ENDROOT
BRANCH   4   8
HETATM    8  C   UNL     1     -10.483   7.040  70.211  1.00  0.00    -0.208 C  
HETATM    9  O   UNL     1     -11.551   6.559  69.851  1.00  0.00    -0.409 OA 
BRANCH   8  10
HETATM   10  O   UNL     1     -10.314   8.358  70.533  1.00  0.00    -0.194 OA 
BRANCH  10  11
HETATM   11  C   UNL     1     -10.184   9.270  69.428  1.00  0.00    -0.210 C  
BRANCH  11  12
HETATM   12  C   UNL     1     -11.569   9.799  69.021  1.00  0.00     0.243 C  
BRANCH  12  13
HETATM   13  O   UNL     1     -11.616  10.273  67.655  1.00  0.00    -0.299 OA 
BRANCH  13  14
HETATM   14  C   UNL     1     -10.323  10.436  67.075  1.00  0.00    -0.240 C  
BRANCH  14  15
HETATM   15  N   UNL     1     -10.274  11.702  66.378  1.00  0.00    -0.215 NA 
HETATM   16  C   UNL     1     -10.831  11.946  65.145  1.00  0.00    -0.300 A  
HETATM   17  N   UNL     1     -10.750  13.220  64.807  1.00  0.00    -0.355 NA 
HETATM   18  C   UNL     1     -10.117  13.827  65.869  1.00  0.00    -0.313 A  
HETATM   19  C   UNL     1      -9.822  12.894  66.831  1.00  0.00    -0.235 A  
HETATM   20  N   UNL     1      -9.220  13.218  67.981  1.00  0.00    -0.211 NA 
HETATM   21  C   UNL     1      -8.931  14.547  68.172  1.00  0.00    -0.182 C  
HETATM   22  N   UNL     1      -8.382  14.811  69.383  1.00  0.00    -0.376 NA 
HETATM   23  N   UNL     1      -9.166  15.513  67.332  1.00  0.00    -0.200 N  
HETATM   24  H2  UNL     1      -8.203  14.093  70.085  1.00  0.00     0.000 HD 
HETATM   25  H1  UNL     1      -8.167  15.798  69.525  1.00  0.00     0.000 HD 
HETATM   26  H   UNL     1      -8.911  16.470  67.573  1.00  0.00     0.000 HD 
HETATM   27  C   UNL     1      -9.768  15.239  66.097  1.00  0.00    -0.314 C  
HETATM   28  O   UNL     1      -9.996  16.112  65.269  1.00  0.00    -0.487 OA 
ENDBRANCH  14  15
ENDBRANCH  13  14
ENDBRANCH  12  13
BRANCH  12  29
HETATM   29  C   UNL     1     -11.979  10.969  69.929  1.00  0.00    -0.351 C  
HETATM   30  O   UNL     1     -12.026  12.173  69.160  1.00  0.00    -0.299 OA 
HETATM   31  H   UNL     1     -12.279  12.896  69.721  1.00  0.00     0.000 HD 
ENDBRANCH  12  29
ENDBRANCH  11  12
ENDBRANCH  10  11
ENDBRANCH   8  10
ENDBRANCH   4   8
TORSDOF 8
ENDMDL
MODEL      311
REMARK 921   NORMALIZED FREE ENERGY PREDICTED BY IDOCK:   -3.60 KCAL/MOL
REMARK 922        TOTAL FREE ENERGY PREDICTED BY IDOCK:   -6.50 KCAL/MOL
REMARK 923 INTER-LIGAND FREE ENERGY PREDICTED BY IDOCK:   -5.85 KCAL/MOL
REMARK 924 INTRA-LIGAND FREE ENERGY PREDICTED BY IDOCK:   -0.65 KCAL/MOL
REMARK 927      BINDING AFFINITY PREDICTED BY RF-SCORE:    0.00 PKD
ROOT
HETATM    1  C   UNL     1      -8.926   3.766  68.696  1.00  0.00    -0.176 C  
HETATM    2  C   UNL     1      -7.913   4.518  69.568  1.00  0.00    -0.061 C  
HETATM    3  C   UNL     1      -6.494   4.040  69.242  1.00  0.00    -0.033 C  
HETATM    4  C   UNL     1      -8.223   4.417  71.083  1.00  0.00    -0.082 C  
HETATM    5  N   UNL     1      -8.231   3.014  71.553  1.00  0.00    -0.059 NA 
HETATM    6  H1  UNL     1      -8.435   2.948  72.550  1.00  0.00     0.000 HD 
HETATM    7  H2  UNL     1      -7.358   2.540  71.321  1.00  0.00     0.000 HD 
ENDROOT
BRANCH   4   8
HETATM    8  C   UNL     1      -9.547   5.131  71.425  1.00  0.00    -0.161 C  
HETATM    9  O   UNL     1     -10.453   4.633  72.083  1.00  0.00    -0.197 OA 
BRANCH   8  10
HETATM   10  O   UNL     1      -9.619   6.365  70.842  1.00  0.00    -0.174 OA 
BRANCH  10  11
HETATM   11  C   UNL     1     -10.317   7.379  71.587  1.00  0.00    -0.196 C  
BRANCH  11  12
HETATM   12  C   UNL     1     -11.596   7.791  70.839  1.00  0.00    -0.274 C  
BRANCH  12  13
HETATM   13  O   UNL     1     -11.609   9.187  70.464  1.00  0.00    -0.263 OA 
BRANCH  13  14
HETATM   14  C   UNL     1     -10.432   9.589  69.766  1.00  0.00    -0.231 C  
BRANCH  14  15
HETATM   15  N   UNL     1     -10.769  10.648  68.842  1.00  0.00    -0.203 NA 
HETATM   16  C   UNL     1     -12.013  11.221  68.717  1.00  0.00    -0.282 A  
HETATM   17  N   UNL     1     -12.006  12.250  67.891  1.00  0.00    -0.480 NA 
HETATM   18  C   UNL     1     -10.699  12.352  67.466  1.00  0.00    -0.228 A  
HETATM   19  C   UNL     1      -9.942  11.366  68.047  1.00  0.00    -0.182 A  
HETATM   20  N   UNL     1      -8.629  11.246  67.821  1.00  0.00    -0.124 NA 
HETATM   21  C   UNL     1      -8.058  12.181  66.992  1.00  0.00    -0.154 C  
HETATM   22  N   UNL     1      -6.717  12.038  66.860  1.00  0.00    -0.334 NA 
HETATM   23  N   UNL     1      -8.678  13.155  66.391  1.00  0.00    -0.422 N  
HETATM   24  H2  UNL     1      -6.183  11.307  67.331  1.00  0.00     0.000 HD 
HETATM   25  H1  UNL     1      -6.293  12.732  66.244  1.00  0.00     0.000 HD 
HETATM   26  H   UNL     1      -8.158  13.798  65.794  1.00  0.00     0.000 HD 
HETATM   27  C   UNL     1     -10.058  13.321  66.562  1.00  0.00    -0.275 C  
HETATM   28  O   UNL     1     -10.687  14.214  66.007  1.00  0.00    -0.290 OA 
ENDBRANCH  14  15
ENDBRANCH  13  14
ENDBRANCH  12  13
BRANCH  12  29
HETATM   29  C   UNL     1     -12.831   7.538  71.718  1.00  0.00    -0.327 C  
HETATM   30  O   UNL     1     -14.005   7.564  70.904  1.00  0.00    -0.639 OA 
HETATM   31  H   UNL     1     -14.768   7.408  71.448  1.00  0.00     0.000 HD 
ENDBRANCH  12  29
ENDBRANCH  11  12
ENDBRANCH  10  11
ENDBRANCH   8  10
ENDBRANCH   4   8
TORSDOF 8
ENDMDL
MODEL      312
REMARK 921   NORMALIZED FREE ENERGY PREDICTED BY IDOCK:   -3.60 KCAL/MOL
REMARK 922        TOTAL FREE ENERGY PREDICTED BY IDOCK:   -6.50 KCAL/MOL
REMARK 923 INTER-LIGAND FREE ENERGY PREDICTED BY IDOCK:   -5.84 KCAL/MOL
REMARK 924 INTRA-LIGAND FREE ENERGY PREDICTED BY IDOCK:   -0.65 KCAL/MOL
REMARK 927      BINDING AFFINITY PREDICTED BY RF-SCORE:    0.00 PKD
ROOT
HETATM    1  C   UNL     1     -11.824  14.330  67.037  1.00  0.00    -0.455 C  
HETATM    2  C   UNL     1     -11.224  14.447  68.443  1.00  0.00    -0.294 C  
HETATM    3  C   UNL     1     -11.878  15.614  69.191  1.00  0.00    -0.378 C  
HETATM    4  C   UNL     1      -9.678  14.560  68.436  1.00  0.00    -0.224 C  
HETATM    5  N   UNL     1      -9.213  15.741  67.675  1.00  0.00    -0.199 NA 
HETATM    6  H1  UNL     1      -8.196  15.815  67.671  1.00  0.00     0.000 HD 
HETATM    7  H2  UNL     1      -9.645  16.598  68.020  1.00  0.00     0.000 HD 
ENDROOT
BRANCH   4   8
HETATM    8  C   UNL     1      -9.031  13.263  67.908  1.00  0.00    -0.199 C  
HETATM    9  O   UNL     1      -8.304  12.531  68.569  1.00  0.00    -0.147 OA 
BRANCH   8  10
HETATM   10  O   UNL     1      -9.309  13.065  66.584  1.00  0.00    -0.245 OA 
BRANCH  10  11
HETATM   11  C   UNL     1      -9.042  11.749  66.069  1.00  0.00    -0.155 C  
BRANCH  11  12
HETATM   12  C   UNL     1     -10.307  11.177  65.409  1.00  0.00    -0.271 C  
BRANCH  12  13
HETATM   13  O   UNL     1     -10.249   9.746  65.215  1.00  0.00    -0.216 OA 
BRANCH  13  14
HETATM   14  C   UNL     1      -9.039   9.165  65.696  1.00  0.00    -0.219 C  
BRANCH  14  15
HETATM   15  N   UNL     1      -9.349   8.255  66.776  1.00  0.00    -0.169 NA 
HETATM   16  C   UNL     1      -9.889   7.000  66.620  1.00  0.00    -0.156 A  
HETATM   17  N   UNL     1      -9.947   6.338  67.761  1.00  0.00    -0.120 NA 
HETATM   18  C   UNL     1      -9.416   7.200  68.696  1.00  0.00    -0.140 A  
HETATM   19  C   UNL     1      -9.053   8.377  68.091  1.00  0.00    -0.138 A  
HETATM   20  N   UNL     1      -8.491   9.385  68.768  1.00  0.00    -0.120 NA 
HETATM   21  C   UNL     1      -8.266   9.178  70.107  1.00  0.00    -0.155 C  
HETATM   22  N   UNL     1      -7.636  10.214  70.714  1.00  0.00    -0.355 NA 
HETATM   23  N   UNL     1      -8.567   8.106  70.780  1.00  0.00    -0.130 N  
HETATM   24  H2  UNL     1      -7.357  11.064  70.224  1.00  0.00     0.000 HD 
HETATM   25  H1  UNL     1      -7.469  10.061  71.708  1.00  0.00     0.000 HD 
HETATM   26  H   UNL     1      -8.355   8.054  71.776  1.00  0.00     0.000 HD 
HETATM   27  C   UNL     1      -9.182   7.024  70.139  1.00  0.00    -0.152 C  
HETATM   28  O   UNL     1      -9.497   6.000  70.733  1.00  0.00    -0.165 OA 
ENDBRANCH  14  15
ENDBRANCH  13  14
ENDBRANCH  12  13
BRANCH  12  29
HETATM   29  C   UNL     1     -10.525  11.821  64.031  1.00  0.00    -0.368 C  
HETATM   30  O   UNL     1     -10.791  10.800  63.067  1.00  0.00    -0.676 OA 
HETATM   31  H   UNL     1     -10.925  11.198  62.215  1.00  0.00     0.000 HD 
ENDBRANCH  12  29
ENDBRANCH  11  12
ENDBRANCH  10  11
ENDBRANCH   8  10
ENDBRANCH   4   8
TORSDOF 8
ENDMDL
MODEL      313
REMARK 921   NORMALIZED FREE ENERGY PREDICTED BY IDOCK:   -3.57 KCAL/MOL
REMARK 922        TOTAL FREE ENERGY PREDICTED BY IDOCK:   -6.46 KCAL/MOL
REMARK 923 INTER-LIGAND FREE ENERGY PREDICTED BY IDOCK:   -6.06 KCAL/MOL
REMARK 924 INTRA-LIGAND FREE ENERGY PREDICTED BY IDOCK:   -0.40 KCAL/MOL
REMARK 927      BINDING AFFINITY PREDICTED BY RF-SCORE:    0.00 PKD
ROOT
HETATM    1  C   UNL     1      -7.736  10.953  64.588  1.00  0.00     0.378 C  
HETATM    2  C   UNL     1      -8.982  10.112  64.894  1.00  0.00    -0.230 C  
HETATM    3  C   UNL     1      -8.719   8.647  64.533  1.00  0.00    -0.034 C  
HETATM    4  C   UNL     1     -10.263  10.654  64.212  1.00  0.00    -0.320 C  
HETATM    5  N   UNL     1     -10.129  10.696  62.738  1.00  0.00    -0.746 NA 
HETATM    6  H1  UNL     1     -10.973  11.053  62.290  1.00  0.00     0.000 HD 
HETATM    7  H2  UNL     1      -9.868   9.785  62.363  1.00  0.00     0.000 HD 
ENDROOT
BRANCH   4   8
HETATM    8  C   UNL     1     -10.650  12.036  64.779  1.00  0.00    -0.297 C  
HETATM    9  O   UNL     1     -10.998  12.993  64.098  1.00  0.00    -0.373 OA 
BRANCH   8  10
HETATM   10  O   UNL     1     -10.486  12.087  66.135  1.00  0.00    -0.225 OA 
BRANCH  10  11
HETATM   11  C   UNL     1     -11.490  11.420  66.921  1.00  0.00    -0.119 C  
BRANCH  11  12
HETATM   12  C   UNL     1     -11.912  12.313  68.099  1.00  0.00    -0.195 C  
BRANCH  12  13
HETATM   13  O   UNL     1     -10.975  13.382  68.365  1.00  0.00    -0.247 OA 
BRANCH  13  14
HETATM   14  C   UNL     1     -11.522  14.677  68.127  1.00  0.00    -0.323 C  
BRANCH  14  15
HETATM   15  N   UNL     1     -10.454  15.651  68.145  1.00  0.00    -0.253 NA 
HETATM   16  C   UNL     1     -10.597  16.972  68.499  1.00  0.00    -0.370 A  
HETATM   17  N   UNL     1      -9.438  17.601  68.552  1.00  0.00    -0.291 NA 
HETATM   18  C   UNL     1      -8.503  16.644  68.223  1.00  0.00    -0.203 A  
HETATM   19  C   UNL     1      -9.128  15.449  67.969  1.00  0.00    -0.175 A  
HETATM   20  N   UNL     1      -8.450  14.343  67.643  1.00  0.00    -0.172 NA 
HETATM   21  C   UNL     1      -7.082  14.449  67.598  1.00  0.00    -0.183 C  
HETATM   22  N   UNL     1      -6.458  13.276  67.326  1.00  0.00    -0.455 NA 
HETATM   23  N   UNL     1      -6.387  15.527  67.821  1.00  0.00    -0.150 N  
HETATM   24  H2  UNL     1      -6.957  12.401  67.170  1.00  0.00     0.000 HD 
HETATM   25  H1  UNL     1      -5.442  13.355  67.293  1.00  0.00     0.000 HD 
HETATM   26  H   UNL     1      -5.369  15.497  67.763  1.00  0.00     0.000 HD 
HETATM   27  C   UNL     1      -7.035  16.727  68.140  1.00  0.00    -0.157 C  
HETATM   28  O   UNL     1      -6.425  17.770  68.344  1.00  0.00    -0.188 OA 
ENDBRANCH  14  15
ENDBRANCH  13  14
ENDBRANCH  12  13
BRANCH  12  29
HETATM   29  C   UNL     1     -12.033  11.477  69.383  1.00  0.00    -0.325 C  
HETATM   30  O   UNL     1     -11.505  10.170  69.149  1.00  0.00    -0.408 OA 
HETATM   31  H   UNL     1     -11.580   9.653  69.943  1.00  0.00     0.000 HD 
ENDBRANCH  12  29
ENDBRANCH  11  12
ENDBRANCH  10  11
ENDBRANCH   8  10
ENDBRANCH   4   8
TORSDOF 8
ENDMDL
MODEL      314
REMARK 921   NORMALIZED FREE ENERGY PREDICTED BY IDOCK:   -3.57 KCAL/MOL
REMARK 922        TOTAL FREE ENERGY PREDICTED BY IDOCK:   -6.46 KCAL/MOL
REMARK 923 INTER-LIGAND FREE ENERGY PREDICTED BY IDOCK:   -5.76 KCAL/MOL
REMARK 924 INTRA-LIGAND FREE ENERGY PREDICTED BY IDOCK:   -0.70 KCAL/MOL
REMARK 927      BINDING AFFINITY PREDICTED BY RF-SCORE:    0.00 PKD
ROOT
HETATM    1  C   UNL     1      -8.463   7.621  66.918  1.00  0.00    -0.126 C  
HETATM    2  C   UNL     1      -7.744   8.700  67.737  1.00  0.00    -0.102 C  
HETATM    3  C   UNL     1      -6.291   8.826  67.269  1.00  0.00    -0.057 C  
HETATM    4  C   UNL     1      -7.840   8.467  69.266  1.00  0.00    -0.104 C  
HETATM    5  N   UNL     1      -7.252   7.168  69.664  1.00  0.00    -0.074 NA 
HETATM    6  H1  UNL     1      -7.315   7.015  70.671  1.00  0.00     0.000 HD 
HETATM    7  H2  UNL     1      -6.291   7.080  69.336  1.00  0.00     0.000 HD 
ENDROOT
BRANCH   4   8
HETATM    8  C   UNL     1      -9.298   8.596  69.755  1.00  0.00    -0.165 C  
HETATM    9  O   UNL     1     -10.161   7.741  69.596  1.00  0.00    -0.196 OA 
BRANCH   8  10
HETATM   10  O   UNL     1      -9.530   9.815  70.327  1.00  0.00    -0.249 OA 
BRANCH  10  11
HETATM   11  C   UNL     1      -9.975  10.857  69.440  1.00  0.00    -0.057 C  
BRANCH  11  12
HETATM   12  C   UNL     1     -11.505  10.813  69.304  1.00  0.00    -0.298 C  
BRANCH  12  13
HETATM   13  O   UNL     1     -11.992  11.507  68.133  1.00  0.00    -0.571 OA 
BRANCH  13  14
HETATM   14  C   UNL     1     -10.949  12.092  67.356  1.00  0.00    -0.261 C  
BRANCH  14  15
HETATM   15  N   UNL     1     -10.983  13.527  67.523  1.00  0.00    -0.264 NA 
HETATM   16  C   UNL     1     -12.111  14.263  67.799  1.00  0.00    -0.281 A  
HETATM   17  N   UNL     1     -11.833  15.533  68.028  1.00  0.00    -0.191 NA 
HETATM   18  C   UNL     1     -10.464  15.623  67.900  1.00  0.00    -0.267 A  
HETATM   19  C   UNL     1      -9.944  14.392  67.585  1.00  0.00    -0.224 A  
HETATM   20  N   UNL     1      -8.631  14.191  67.421  1.00  0.00    -0.198 NA 
HETATM   21  C   UNL     1      -7.813  15.278  67.610  1.00  0.00    -0.159 C  
HETATM   22  N   UNL     1      -6.495  14.987  67.492  1.00  0.00    -0.283 NA 
HETATM   23  N   UNL     1      -8.197  16.485  67.910  1.00  0.00    -0.166 N  
HETATM   24  H2  UNL     1      -6.144  14.053  67.284  1.00  0.00     0.000 HD 
HETATM   25  H1  UNL     1      -5.887  15.795  67.631  1.00  0.00     0.000 HD 
HETATM   26  H   UNL     1      -7.504  17.224  68.029  1.00  0.00     0.000 HD 
HETATM   27  C   UNL     1      -9.558  16.771  68.068  1.00  0.00    -0.234 C  
HETATM   28  O   UNL     1      -9.968  17.894  68.337  1.00  0.00    -0.325 OA 
ENDBRANCH  14  15
ENDBRANCH  13  14
ENDBRANCH  12  13
BRANCH  12  29
HETATM   29  C   UNL     1     -12.167  11.460  70.531  1.00  0.00    -0.386 C  
HETATM   30  O   UNL     1     -11.841  12.850  70.568  1.00  0.00    -0.521 OA 
HETATM   31  H   UNL     1     -12.249  13.250  71.327  1.00  0.00     0.000 HD 
ENDBRANCH  12  29
ENDBRANCH  11  12
ENDBRANCH  10  11
ENDBRANCH   8  10
ENDBRANCH   4   8
TORSDOF 8
ENDMDL
MODEL      315
REMARK 921   NORMALIZED FREE ENERGY PREDICTED BY IDOCK:   -3.57 KCAL/MOL
REMARK 922        TOTAL FREE ENERGY PREDICTED BY IDOCK:   -6.45 KCAL/MOL
REMARK 923 INTER-LIGAND FREE ENERGY PREDICTED BY IDOCK:   -5.75 KCAL/MOL
REMARK 924 INTRA-LIGAND FREE ENERGY PREDICTED BY IDOCK:   -0.70 KCAL/MOL
REMARK 927      BINDING AFFINITY PREDICTED BY RF-SCORE:    0.00 PKD
ROOT
HETATM    1  C   UNL     1     -11.039  15.989  68.013  1.00  0.00    -0.334 C  
HETATM    2  C   UNL     1     -10.564  15.300  66.728  1.00  0.00    -0.304 C  
HETATM    3  C   UNL     1     -10.759  16.238  65.533  1.00  0.00    -0.326 C  
HETATM    4  C   UNL     1     -11.232  13.921  66.495  1.00  0.00    -0.321 C  
HETATM    5  N   UNL     1     -12.705  14.031  66.399  1.00  0.00    -0.477 NA 
HETATM    6  H1  UNL     1     -13.145  13.123  66.245  1.00  0.00     0.000 HD 
HETATM    7  H2  UNL     1     -12.982  14.702  65.682  1.00  0.00     0.000 HD 
ENDROOT
BRANCH   4   8
HETATM    8  C   UNL     1     -10.815  12.912  67.585  1.00  0.00    -0.232 C  
HETATM    9  O   UNL     1     -11.518  12.586  68.533  1.00  0.00    -0.257 OA 
BRANCH   8  10
HETATM   10  O   UNL     1      -9.532  12.479  67.404  1.00  0.00    -0.177 OA 
BRANCH  10  11
HETATM   11  C   UNL     1      -8.916  11.830  68.532  1.00  0.00    -0.132 C  
BRANCH  11  12
HETATM   12  C   UNL     1      -8.726  10.334  68.236  1.00  0.00    -0.126 C  
BRANCH  12  13
HETATM   13  O   UNL     1      -8.712   9.517  69.429  1.00  0.00    -0.143 OA 
BRANCH  13  14
HETATM   14  C   UNL     1      -8.630   8.121  69.149  1.00  0.00    -0.136 C  
BRANCH  14  15
HETATM   15  N   UNL     1      -9.627   7.423  69.930  1.00  0.00    -0.164 NA 
HETATM   16  C   UNL     1     -10.591   6.589  69.416  1.00  0.00    -0.245 A  
HETATM   17  N   UNL     1     -11.284   5.986  70.363  1.00  0.00    -0.337 NA 
HETATM   18  C   UNL     1     -10.741   6.444  71.543  1.00  0.00    -0.238 A  
HETATM   19  C   UNL     1      -9.727   7.330  71.277  1.00  0.00    -0.166 A  
HETATM   20  N   UNL     1      -9.014   7.914  72.246  1.00  0.00    -0.141 NA 
HETATM   21  C   UNL     1      -9.327   7.564  73.537  1.00  0.00    -0.263 C  
HETATM   22  N   UNL     1      -8.524   8.143  74.463  1.00  0.00    -0.423 NA 
HETATM   23  N   UNL     1     -10.264   6.739  73.904  1.00  0.00    -0.339 N  
HETATM   24  H2  UNL     1      -7.760   8.776  74.224  1.00  0.00     0.000 HD 
HETATM   25  H1  UNL     1      -8.756   7.885  75.422  1.00  0.00     0.000 HD 
HETATM   26  H   UNL     1     -10.414   6.547  74.894  1.00  0.00     0.000 HD 
HETATM   27  C   UNL     1     -11.066   6.114  72.941  1.00  0.00    -0.247 C  
HETATM   28  O   UNL     1     -11.968   5.340  73.238  1.00  0.00    -0.071 OA 
ENDBRANCH  14  15
ENDBRANCH  13  14
ENDBRANCH  12  13
BRANCH  12  29
HETATM   29  C   UNL     1      -7.396  10.101  67.503  1.00  0.00    -0.089 C  
HETATM   30  O   UNL     1      -6.537  11.224  67.710  1.00  0.00    -0.064 OA 
HETATM   31  H   UNL     1      -5.715  11.081  67.257  1.00  0.00     0.000 HD 
ENDBRANCH  12  29
ENDBRANCH  11  12
ENDBRANCH  10  11
ENDBRANCH   8  10
ENDBRANCH   4   8
TORSDOF 8
ENDMDL
MODEL      316
REMARK 921   NORMALIZED FREE ENERGY PREDICTED BY IDOCK:   -3.57 KCAL/MOL
REMARK 922        TOTAL FREE ENERGY PREDICTED BY IDOCK:   -6.45 KCAL/MOL
REMARK 923 INTER-LIGAND FREE ENERGY PREDICTED BY IDOCK:   -5.05 KCAL/MOL
REMARK 924 INTRA-LIGAND FREE ENERGY PREDICTED BY IDOCK:   -1.39 KCAL/MOL
REMARK 927      BINDING AFFINITY PREDICTED BY RF-SCORE:    0.00 PKD
ROOT
HETATM    1  C   UNL     1     -10.393   5.382  69.375  1.00  0.00    -0.339 C  
HETATM    2  C   UNL     1      -9.104   5.746  70.122  1.00  0.00    -0.155 C  
HETATM    3  C   UNL     1      -7.888   5.261  69.325  1.00  0.00    -0.088 C  
HETATM    4  C   UNL     1      -9.081   5.228  71.582  1.00  0.00    -0.138 C  
HETATM    5  N   UNL     1      -9.210   3.754  71.648  1.00  0.00    -0.113 NA 
HETATM    6  H1  UNL     1      -9.194   3.414  72.609  1.00  0.00     0.000 HD 
HETATM    7  H2  UNL     1      -8.498   3.294  71.081  1.00  0.00     0.000 HD 
ENDROOT
BRANCH   4   8
HETATM    8  C   UNL     1     -10.164   5.923  72.433  1.00  0.00    -0.188 C  
HETATM    9  O   UNL     1     -10.989   5.335  73.122  1.00  0.00    -0.257 OA 
BRANCH   8  10
HETATM   10  O   UNL     1     -10.138   7.280  72.268  1.00  0.00    -0.184 OA 
BRANCH  10  11
HETATM   11  C   UNL     1     -11.335   7.987  72.641  1.00  0.00    -0.405 C  
BRANCH  11  12
HETATM   12  C   UNL     1     -12.312   8.025  71.455  1.00  0.00    -0.308 C  
BRANCH  12  13
HETATM   13  O   UNL     1     -12.395   9.327  70.830  1.00  0.00    -0.264 OA 
BRANCH  13  14
HETATM   14  C   UNL     1     -11.127   9.969  70.707  1.00  0.00    -0.334 C  
BRANCH  14  15
HETATM   15  N   UNL     1     -10.438   9.436  69.554  1.00  0.00    -0.210 NA 
HETATM   16  C   UNL     1     -11.010   9.218  68.322  1.00  0.00     0.008 A  
HETATM   17  N   UNL     1     -10.121   8.849  67.419  1.00  0.00    -0.208 NA 
HETATM   18  C   UNL     1      -8.920   8.831  68.094  1.00  0.00    -0.141 A  
HETATM   19  C   UNL     1      -9.116   9.188  69.405  1.00  0.00    -0.148 A  
HETATM   20  N   UNL     1      -8.109   9.270  70.281  1.00  0.00    -0.135 NA 
HETATM   21  C   UNL     1      -6.850   9.005  69.801  1.00  0.00    -0.050 C  
HETATM   22  N   UNL     1      -5.873   9.170  70.726  1.00  0.00    -0.037 NA 
HETATM   23  N   UNL     1      -6.550   8.661  68.582  1.00  0.00    -0.054 N  
HETATM   24  H2  UNL     1      -6.056   9.464  71.686  1.00  0.00     0.000 HD 
HETATM   25  H1  UNL     1      -4.938   8.973  70.370  1.00  0.00     0.000 HD 
HETATM   26  H   UNL     1      -5.577   8.486  68.328  1.00  0.00     0.000 HD 
HETATM   27  C   UNL     1      -7.559   8.529  67.620  1.00  0.00    -0.098 C  
HETATM   28  O   UNL     1      -7.327   8.194  66.465  1.00  0.00    -0.078 OA 
ENDBRANCH  14  15
ENDBRANCH  13  14
ENDBRANCH  12  13
BRANCH  12  29
HETATM   29  C   UNL     1     -13.727   7.646  71.919  1.00  0.00    -0.256 C  
HETATM   30  O   UNL     1     -14.120   8.503  72.993  1.00  0.00    -0.874 OA 
HETATM   31  H   UNL     1     -14.994   8.268  73.280  1.00  0.00     0.000 HD 
ENDBRANCH  12  29
ENDBRANCH  11  12
ENDBRANCH  10  11
ENDBRANCH   8  10
ENDBRANCH   4   8
TORSDOF 8
ENDMDL
MODEL      317
REMARK 921   NORMALIZED FREE ENERGY PREDICTED BY IDOCK:   -3.54 KCAL/MOL
REMARK 922        TOTAL FREE ENERGY PREDICTED BY IDOCK:   -6.42 KCAL/MOL
REMARK 923 INTER-LIGAND FREE ENERGY PREDICTED BY IDOCK:   -5.64 KCAL/MOL
REMARK 924 INTRA-LIGAND FREE ENERGY PREDICTED BY IDOCK:   -0.77 KCAL/MOL
REMARK 927      BINDING AFFINITY PREDICTED BY RF-SCORE:    0.00 PKD
ROOT
HETATM    1  C   UNL     1     -10.751   8.084  67.325  1.00  0.00    -0.280 C  
HETATM    2  C   UNL     1      -9.896   7.758  68.556  1.00  0.00    -0.181 C  
HETATM    3  C   UNL     1     -10.024   6.270  68.897  1.00  0.00    -0.179 C  
HETATM    4  C   UNL     1     -10.217   8.659  69.774  1.00  0.00    -0.206 C  
HETATM    5  N   UNL     1     -11.631   8.538  70.194  1.00  0.00    -0.461 NA 
HETATM    6  H1  UNL     1     -11.842   9.132  70.996  1.00  0.00     0.000 HD 
HETATM    7  H2  UNL     1     -11.882   7.567  70.376  1.00  0.00     0.000 HD 
ENDROOT
BRANCH   4   8
HETATM    8  C   UNL     1      -9.840  10.128  69.490  1.00  0.00    -0.232 C  
HETATM    9  O   UNL     1     -10.647  11.013  69.227  1.00  0.00    -0.219 OA 
BRANCH   8  10
HETATM   10  O   UNL     1      -8.486  10.311  69.495  1.00  0.00    -0.165 OA 
BRANCH  10  11
HETATM   11  C   UNL     1      -7.916  10.868  68.297  1.00  0.00    -0.121 C  
BRANCH  11  12
HETATM   12  C   UNL     1      -7.406  12.292  68.573  1.00  0.00    -0.105 C  
BRANCH  12  13
HETATM   13  O   UNL     1      -8.211  13.315  67.943  1.00  0.00    -0.137 OA 
BRANCH  13  14
HETATM   14  C   UNL     1      -7.441  14.237  67.174  1.00  0.00     0.093 C  
BRANCH  14  15
HETATM   15  N   UNL     1      -7.715  15.580  67.634  1.00  0.00    -0.144 NA 
HETATM   16  C   UNL     1      -6.983  16.253  68.584  1.00  0.00    -0.148 A  
HETATM   17  N   UNL     1      -7.375  17.507  68.716  1.00  0.00    -0.255 NA 
HETATM   18  C   UNL     1      -8.401  17.654  67.809  1.00  0.00    -0.226 A  
HETATM   19  C   UNL     1      -8.612  16.469  67.148  1.00  0.00    -0.186 A  
HETATM   20  N   UNL     1      -9.542  16.338  66.196  1.00  0.00    -0.310 NA 
HETATM   21  C   UNL     1     -10.268  17.461  65.885  1.00  0.00    -0.256 C  
HETATM   22  N   UNL     1     -11.145  17.271  64.868  1.00  0.00    -0.817 NA 
HETATM   23  N   UNL     1     -10.152  18.630  66.444  1.00  0.00    -0.382 N  
HETATM   24  H2  UNL     1     -11.254  16.381  64.382  1.00  0.00     0.000 HD 
HETATM   25  H1  UNL     1     -11.686  18.105  64.637  1.00  0.00     0.000 HD 
HETATM   26  H   UNL     1     -10.744  19.402  66.136  1.00  0.00     0.000 HD 
HETATM   27  C   UNL     1      -9.217  18.830  67.467  1.00  0.00    -0.283 C  
HETATM   28  O   UNL     1      -9.081  19.908  68.033  1.00  0.00    -0.330 OA 
ENDBRANCH  14  15
ENDBRANCH  13  14
ENDBRANCH  12  13
BRANCH  12  29
HETATM   29  C   UNL     1      -5.969  12.451  68.053  1.00  0.00    -0.072 C  
HETATM   30  O   UNL     1      -5.313  11.182  68.072  1.00  0.00    -0.043 OA 
HETATM   31  H   UNL     1      -4.425  11.281  67.751  1.00  0.00     0.000 HD 
ENDBRANCH  12  29
ENDBRANCH  11  12
ENDBRANCH  10  11
ENDBRANCH   8  10
ENDBRANCH   4   8
TORSDOF 8
ENDMDL
MODEL      318
REMARK 921   NORMALIZED FREE ENERGY PREDICTED BY IDOCK:   -3.54 KCAL/MOL
REMARK 922        TOTAL FREE ENERGY PREDICTED BY IDOCK:   -6.41 KCAL/MOL
REMARK 923 INTER-LIGAND FREE ENERGY PREDICTED BY IDOCK:   -6.31 KCAL/MOL
REMARK 924 INTRA-LIGAND FREE ENERGY PREDICTED BY IDOCK:   -0.10 KCAL/MOL
REMARK 927      BINDING AFFINITY PREDICTED BY RF-SCORE:    0.00 PKD
ROOT
HETATM    1  C   UNL     1     -10.299   8.732  67.192  1.00  0.00    -0.364 C  
HETATM    2  C   UNL     1      -9.957   7.550  68.107  1.00  0.00    -0.198 C  
HETATM    3  C   UNL     1     -10.714   6.301  67.644  1.00  0.00    -0.391 C  
HETATM    4  C   UNL     1     -10.202   7.851  69.607  1.00  0.00    -0.207 C  
HETATM    5  N   UNL     1     -11.614   8.203  69.876  1.00  0.00    -0.422 NA 
HETATM    6  H1  UNL     1     -11.775   8.401  70.863  1.00  0.00     0.000 HD 
HETATM    7  H2  UNL     1     -12.248   7.481  69.536  1.00  0.00     0.000 HD 
ENDROOT
BRANCH   4   8
HETATM    8  C   UNL     1      -9.245   8.949  70.114  1.00  0.00    -0.180 C  
HETATM    9  O   UNL     1      -9.588  10.088  70.407  1.00  0.00    -0.150 OA 
BRANCH   8  10
HETATM   10  O   UNL     1      -7.948   8.518  70.129  1.00  0.00    -0.097 OA 
BRANCH  10  11
HETATM   11  C   UNL     1      -7.066   9.123  69.166  1.00  0.00    -0.062 C  
BRANCH  11  12
HETATM   12  C   UNL     1      -7.596  10.511  68.771  1.00  0.00    -0.101 C  
BRANCH  12  13
HETATM   13  O   UNL     1      -7.694  10.695  67.340  1.00  0.00    -0.103 OA 
BRANCH  13  14
HETATM   14  C   UNL     1      -7.858  12.061  66.962  1.00  0.00    -0.138 C  
BRANCH  14  15
HETATM   15  N   UNL     1      -9.091  12.201  66.219  1.00  0.00    -0.182 NA 
HETATM   16  C   UNL     1      -9.487  11.384  65.187  1.00  0.00    -0.199 A  
HETATM   17  N   UNL     1     -10.711  11.659  64.777  1.00  0.00    -0.296 NA 
HETATM   18  C   UNL     1     -11.128  12.696  65.582  1.00  0.00    -0.292 A  
HETATM   19  C   UNL     1     -10.131  13.031  66.465  1.00  0.00    -0.270 A  
HETATM   20  N   UNL     1     -10.278  13.998  67.377  1.00  0.00    -0.247 NA 
HETATM   21  C   UNL     1     -11.496  14.632  67.411  1.00  0.00    -0.369 C  
HETATM   22  N   UNL     1     -11.596  15.554  68.400  1.00  0.00    -0.367 NA 
HETATM   23  N   UNL     1     -12.507  14.397  66.627  1.00  0.00    -0.500 N  
HETATM   24  H2  UNL     1     -10.841  15.756  69.055  1.00  0.00     0.000 HD 
HETATM   25  H1  UNL     1     -12.500  16.026  68.426  1.00  0.00     0.000 HD 
HETATM   26  H   UNL     1     -13.372  14.927  66.737  1.00  0.00     0.000 HD 
HETATM   27  C   UNL     1     -12.411  13.416  65.631  1.00  0.00    -0.464 C  
HETATM   28  O   UNL     1     -13.331  13.168  64.861  1.00  0.00    -0.553 OA 
ENDBRANCH  14  15
ENDBRANCH  13  14
ENDBRANCH  12  13
BRANCH  12  29
HETATM   29  C   UNL     1      -6.668  11.609  69.314  1.00  0.00    -0.115 C  
HETATM   30  O   UNL     1      -5.312  11.164  69.240  1.00  0.00    -0.041 OA 
HETATM   31  H   UNL     1      -4.739  11.842  69.576  1.00  0.00     0.000 HD 
ENDBRANCH  12  29
ENDBRANCH  11  12
ENDBRANCH  10  11
ENDBRANCH   8  10
ENDBRANCH   4   8
TORSDOF 8
ENDMDL
MODEL      319
REMARK 921   NORMALIZED FREE ENERGY PREDICTED BY IDOCK:   -3.54 KCAL/MOL
REMARK 922        TOTAL FREE ENERGY PREDICTED BY IDOCK:   -6.41 KCAL/MOL
REMARK 923 INTER-LIGAND FREE ENERGY PREDICTED BY IDOCK:   -5.78 KCAL/MOL
REMARK 924 INTRA-LIGAND FREE ENERGY PREDICTED BY IDOCK:   -0.62 KCAL/MOL
REMARK 927      BINDING AFFINITY PREDICTED BY RF-SCORE:    0.00 PKD
ROOT
HETATM    1  C   UNL     1      -9.690   4.098  68.394  1.00  0.00    -0.150 C  
HETATM    2  C   UNL     1      -8.516   4.734  69.148  1.00  0.00    -0.087 C  
HETATM    3  C   UNL     1      -7.215   4.011  68.788  1.00  0.00    -0.055 C  
HETATM    4  C   UNL     1      -8.739   4.793  70.680  1.00  0.00    -0.108 C  
HETATM    5  N   UNL     1      -8.939   3.447  71.262  1.00  0.00    -0.089 NA 
HETATM    6  H1  UNL     1      -9.085   3.486  72.271  1.00  0.00     0.000 HD 
HETATM    7  H2  UNL     1      -8.169   2.822  71.024  1.00  0.00     0.000 HD 
ENDROOT
BRANCH   4   8
HETATM    8  C   UNL     1      -9.908   5.735  71.034  1.00  0.00    -0.178 C  
HETATM    9  O   UNL     1     -11.004   5.361  71.434  1.00  0.00    -0.190 OA 
BRANCH   8  10
HETATM   10  O   UNL     1      -9.598   7.041  70.776  1.00  0.00    -0.165 OA 
BRANCH  10  11
HETATM   11  C   UNL     1     -10.522   7.760  69.939  1.00  0.00    -0.232 C  
BRANCH  11  12
HETATM   12  C   UNL     1      -9.754   8.523  68.847  1.00  0.00    -0.170 C  
BRANCH  12  13
HETATM   13  O   UNL     1     -10.455   9.697  68.376  1.00  0.00    -0.205 OA 
BRANCH  13  14
HETATM   14  C   UNL     1     -11.326  10.259  69.356  1.00  0.00    -0.221 C  
BRANCH  14  15
HETATM   15  N   UNL     1     -11.232  11.700  69.300  1.00  0.00    -0.259 NA 
HETATM   16  C   UNL     1     -10.546  12.411  68.343  1.00  0.00    -0.236 A  
HETATM   17  N   UNL     1     -10.736  13.712  68.458  1.00  0.00    -0.250 NA 
HETATM   18  C   UNL     1     -11.586  13.850  69.534  1.00  0.00    -0.301 A  
HETATM   19  C   UNL     1     -11.887  12.615  70.052  1.00  0.00    -0.285 A  
HETATM   20  N   UNL     1     -12.710  12.459  71.094  1.00  0.00    -0.313 NA 
HETATM   21  C   UNL     1     -13.271  13.600  71.614  1.00  0.00    -0.367 C  
HETATM   22  N   UNL     1     -14.143  13.361  72.624  1.00  0.00    -0.716 NA 
HETATM   23  N   UNL     1     -13.058  14.816  71.202  1.00  0.00    -0.361 N  
HETATM   24  H2  UNL     1     -14.362  12.425  72.964  1.00  0.00     0.000 HD 
HETATM   25  H1  UNL     1     -14.559  14.208  73.010  1.00  0.00     0.000 HD 
HETATM   26  H   UNL     1     -13.528  15.598  71.660  1.00  0.00     0.000 HD 
HETATM   27  C   UNL     1     -12.185  15.054  70.133  1.00  0.00    -0.343 C  
HETATM   28  O   UNL     1     -11.943  16.181  69.720  1.00  0.00    -0.244 OA 
ENDBRANCH  14  15
ENDBRANCH  13  14
ENDBRANCH  12  13
BRANCH  12  29
HETATM   29  C   UNL     1      -9.512   7.613  67.633  1.00  0.00    -0.142 C  
HETATM   30  O   UNL     1      -8.163   7.766  67.187  1.00  0.00    -0.115 OA 
HETATM   31  H   UNL     1      -8.013   7.204  66.437  1.00  0.00     0.000 HD 
ENDBRANCH  12  29
ENDBRANCH  11  12
ENDBRANCH  10  11
ENDBRANCH   8  10
ENDBRANCH   4   8
TORSDOF 8
ENDMDL
MODEL      320
REMARK 921   NORMALIZED FREE ENERGY PREDICTED BY IDOCK:   -3.52 KCAL/MOL
REMARK 922        TOTAL FREE ENERGY PREDICTED BY IDOCK:   -6.38 KCAL/MOL
REMARK 923 INTER-LIGAND FREE ENERGY PREDICTED BY IDOCK:   -5.82 KCAL/MOL
REMARK 924 INTRA-LIGAND FREE ENERGY PREDICTED BY IDOCK:   -0.56 KCAL/MOL
REMARK 927      BINDING AFFINITY PREDICTED BY RF-SCORE:    0.00 PKD
ROOT
HETATM    1  C   UNL     1     -11.734  15.182  67.277  1.00  0.00    -0.169 C  
HETATM    2  C   UNL     1     -10.298  15.062  66.752  1.00  0.00    -0.270 C  
HETATM    3  C   UNL     1      -9.450  16.217  67.293  1.00  0.00    -0.231 C  
HETATM    4  C   UNL     1     -10.222  14.964  65.208  1.00  0.00    -0.373 C  
HETATM    5  N   UNL     1     -10.819  16.148  64.549  1.00  0.00    -0.892 NA 
HETATM    6  H1  UNL     1     -10.769  16.083  63.532  1.00  0.00     0.000 HD 
HETATM    7  H2  UNL     1     -10.396  17.012  64.886  1.00  0.00     0.000 HD 
ENDROOT
BRANCH   4   8
HETATM    8  C   UNL     1     -10.869  13.657  64.703  1.00  0.00    -0.407 C  
HETATM    9  O   UNL     1     -12.033  13.335  64.909  1.00  0.00    -0.344 OA 
BRANCH   8  10
HETATM   10  O   UNL     1      -9.962  12.864  64.058  1.00  0.00    -0.294 OA 
BRANCH  10  11
HETATM   11  C   UNL     1      -9.420  11.770  64.820  1.00  0.00    -0.011 C  
BRANCH  11  12
HETATM   12  C   UNL     1      -9.278  10.528  63.926  1.00  0.00    -0.256 C  
BRANCH  12  13
HETATM   13  O   UNL     1      -9.612   9.297  64.607  1.00  0.00    -0.001 OA 
BRANCH  13  14
HETATM   14  C   UNL     1      -8.487   8.680  65.229  1.00  0.00    -0.179 C  
BRANCH  14  15
HETATM   15  N   UNL     1      -8.832   8.332  66.590  1.00  0.00    -0.137 NA 
HETATM   16  C   UNL     1      -8.997   9.230  67.617  1.00  0.00    -0.119 A  
HETATM   17  N   UNL     1      -9.438   8.651  68.718  1.00  0.00    -0.142 NA 
HETATM   18  C   UNL     1      -9.568   7.320  68.389  1.00  0.00    -0.139 A  
HETATM   19  C   UNL     1      -9.193   7.124  67.083  1.00  0.00    -0.134 A  
HETATM   20  N   UNL     1      -9.241   5.922  66.498  1.00  0.00    -0.142 NA 
HETATM   21  C   UNL     1      -9.713   4.883  67.262  1.00  0.00    -0.170 C  
HETATM   22  N   UNL     1      -9.795   3.711  66.586  1.00  0.00    -0.399 NA 
HETATM   23  N   UNL     1     -10.096   4.955  68.503  1.00  0.00    -0.118 N  
HETATM   24  H2  UNL     1      -9.532   3.610  65.606  1.00  0.00     0.000 HD 
HETATM   25  H1  UNL     1     -10.146   2.939  67.153  1.00  0.00     0.000 HD 
HETATM   26  H   UNL     1     -10.433   4.119  68.981  1.00  0.00     0.000 HD 
HETATM   27  C   UNL     1     -10.045   6.177  69.185  1.00  0.00    -0.170 C  
HETATM   28  O   UNL     1     -10.381   6.291  70.358  1.00  0.00    -0.192 OA 
ENDBRANCH  14  15
ENDBRANCH  13  14
ENDBRANCH  12  13
BRANCH  12  29
HETATM   29  C   UNL     1      -7.833  10.398  63.421  1.00  0.00    -0.093 C  
HETATM   30  O   UNL     1      -7.589  11.386  62.417  1.00  0.00    -0.439 OA 
HETATM   31  H   UNL     1      -6.696  11.305  62.106  1.00  0.00     0.000 HD 
ENDBRANCH  12  29
ENDBRANCH  11  12
ENDBRANCH  10  11
ENDBRANCH   8  10
ENDBRANCH   4   8
TORSDOF 8
ENDMDL
MODEL      321
REMARK 921   NORMALIZED FREE ENERGY PREDICTED BY IDOCK:   -3.51 KCAL/MOL
REMARK 922        TOTAL FREE ENERGY PREDICTED BY IDOCK:   -6.37 KCAL/MOL
REMARK 923 INTER-LIGAND FREE ENERGY PREDICTED BY IDOCK:   -5.57 KCAL/MOL
REMARK 924 INTRA-LIGAND FREE ENERGY PREDICTED BY IDOCK:   -0.80 KCAL/MOL
REMARK 927      BINDING AFFINITY PREDICTED BY RF-SCORE:    0.00 PKD
ROOT
HETATM    1  C   UNL     1     -10.480   5.280  69.292  1.00  0.00    -0.255 C  
HETATM    2  C   UNL     1      -9.056   5.843  69.391  1.00  0.00    -0.134 C  
HETATM    3  C   UNL     1      -8.158   5.170  68.348  1.00  0.00    -0.086 C  
HETATM    4  C   UNL     1      -8.461   5.740  70.818  1.00  0.00    -0.125 C  
HETATM    5  N   UNL     1      -8.398   4.339  71.291  1.00  0.00    -0.081 NA 
HETATM    6  H1  UNL     1      -8.006   4.272  72.230  1.00  0.00     0.000 HD 
HETATM    7  H2  UNL     1      -7.890   3.748  70.634  1.00  0.00     0.000 HD 
ENDROOT
BRANCH   4   8
HETATM    8  C   UNL     1      -9.239   6.632  71.808  1.00  0.00    -0.148 C  
HETATM    9  O   UNL     1      -9.727   6.238  72.860  1.00  0.00    -0.157 OA 
BRANCH   8  10
HETATM   10  O   UNL     1      -9.382   7.905  71.333  1.00  0.00    -0.139 OA 
BRANCH  10  11
HETATM   11  C   UNL     1     -10.394   8.709  71.965  1.00  0.00    -0.346 C  
BRANCH  11  12
HETATM   12  C   UNL     1     -11.724   8.568  71.207  1.00  0.00    -0.284 C  
BRANCH  12  13
HETATM   13  O   UNL     1     -11.985   9.670  70.307  1.00  0.00    -0.177 OA 
BRANCH  13  14
HETATM   14  C   UNL     1     -10.873  10.553  70.170  1.00  0.00    -0.227 C  
BRANCH  14  15
HETATM   15  N   UNL     1     -10.501  10.631  68.775  1.00  0.00    -0.182 NA 
HETATM   16  C   UNL     1     -10.329   9.550  67.943  1.00  0.00    -0.227 A  
HETATM   17  N   UNL     1     -10.119   9.914  66.692  1.00  0.00    -0.223 NA 
HETATM   18  C   UNL     1     -10.163  11.291  66.713  1.00  0.00    -0.226 A  
HETATM   19  C   UNL     1     -10.394  11.730  67.993  1.00  0.00    -0.198 A  
HETATM   20  N   UNL     1     -10.502  13.029  68.295  1.00  0.00    -0.244 NA 
HETATM   21  C   UNL     1     -10.398  13.915  67.250  1.00  0.00    -0.257 C  
HETATM   22  N   UNL     1     -10.582  15.206  67.619  1.00  0.00    -0.258 NA 
HETATM   23  N   UNL     1     -10.182  13.611  66.004  1.00  0.00    -0.300 N  
HETATM   24  H2  UNL     1     -10.779  15.492  68.578  1.00  0.00     0.000 HD 
HETATM   25  H1  UNL     1     -10.504  15.865  66.844  1.00  0.00     0.000 HD 
HETATM   26  H   UNL     1     -10.122  14.349  65.303  1.00  0.00     0.000 HD 
HETATM   27  C   UNL     1     -10.030  12.272  65.623  1.00  0.00    -0.251 C  
HETATM   28  O   UNL     1      -9.812  11.937  64.465  1.00  0.00    -0.242 OA 
ENDBRANCH  14  15
ENDBRANCH  13  14
ENDBRANCH  12  13
BRANCH  12  29
HETATM   29  C   UNL     1     -12.896   8.496  72.199  1.00  0.00    -0.369 C  
HETATM   30  O   UNL     1     -14.032   7.922  71.549  1.00  0.00    -0.431 OA 
HETATM   31  H   UNL     1     -14.756   7.878  72.162  1.00  0.00     0.000 HD 
ENDBRANCH  12  29
ENDBRANCH  11  12
ENDBRANCH  10  11
ENDBRANCH   8  10
ENDBRANCH   4   8
TORSDOF 8
ENDMDL
MODEL      322
REMARK 921   NORMALIZED FREE ENERGY PREDICTED BY IDOCK:   -3.50 KCAL/MOL
REMARK 922        TOTAL FREE ENERGY PREDICTED BY IDOCK:   -6.35 KCAL/MOL
REMARK 923 INTER-LIGAND FREE ENERGY PREDICTED BY IDOCK:   -5.39 KCAL/MOL
REMARK 924 INTRA-LIGAND FREE ENERGY PREDICTED BY IDOCK:   -0.96 KCAL/MOL
REMARK 927      BINDING AFFINITY PREDICTED BY RF-SCORE:    0.00 PKD
ROOT
HETATM    1  C   UNL     1      -9.377   8.167  73.018  1.00  0.00    -0.335 C  
HETATM    2  C   UNL     1     -10.265   8.260  71.770  1.00  0.00    -0.297 C  
HETATM    3  C   UNL     1     -11.203   9.465  71.889  1.00  0.00    -0.233 C  
HETATM    4  C   UNL     1     -11.041   6.951  71.479  1.00  0.00    -0.244 C  
HETATM    5  N   UNL     1     -11.925   6.571  72.604  1.00  0.00    -0.509 NA 
HETATM    6  H1  UNL     1     -12.436   5.709  72.412  1.00  0.00     0.000 HD 
HETATM    7  H2  UNL     1     -12.560   7.330  72.850  1.00  0.00     0.000 HD 
ENDROOT
BRANCH   4   8
HETATM    8  C   UNL     1     -10.076   5.804  71.114  1.00  0.00    -0.203 C  
HETATM    9  O   UNL     1      -9.928   4.784  71.775  1.00  0.00    -0.175 OA 
BRANCH   8  10
HETATM   10  O   UNL     1      -9.347   6.098  69.996  1.00  0.00    -0.152 OA 
BRANCH  10  11
HETATM   11  C   UNL     1      -9.931   5.713  68.738  1.00  0.00    -0.167 C  
BRANCH  11  12
HETATM   12  C   UNL     1      -8.823   5.418  67.714  1.00  0.00    -0.105 C  
BRANCH  12  13
HETATM   13  O   UNL     1      -7.858   6.489  67.597  1.00  0.00    -0.107 OA 
BRANCH  13  14
HETATM   14  C   UNL     1      -7.866   7.111  66.314  1.00  0.00    -0.107 C  
BRANCH  14  15
HETATM   15  N   UNL     1      -8.586   8.362  66.400  1.00  0.00    -0.121 NA 
HETATM   16  C   UNL     1      -9.533   8.792  65.500  1.00  0.00    -0.026 A  
HETATM   17  N   UNL     1     -10.121   9.906  65.892  1.00  0.00    -0.268 NA 
HETATM   18  C   UNL     1      -9.534  10.209  67.101  1.00  0.00    -0.158 A  
HETATM   19  C   UNL     1      -8.589   9.263  67.410  1.00  0.00    -0.122 A  
HETATM   20  N   UNL     1      -7.878   9.305  68.543  1.00  0.00    -0.089 NA 
HETATM   21  C   UNL     1      -8.158  10.335  69.407  1.00  0.00    -0.163 C  
HETATM   22  N   UNL     1      -7.448  10.278  70.561  1.00  0.00    -0.442 NA 
HETATM   23  N   UNL     1      -9.030  11.282  69.218  1.00  0.00    -0.380 N  
HETATM   24  H2  UNL     1      -6.772   9.542  70.767  1.00  0.00     0.000 HD 
HETATM   25  H1  UNL     1      -7.654  11.043  71.203  1.00  0.00     0.000 HD 
HETATM   26  H   UNL     1      -9.161  12.002  69.928  1.00  0.00     0.000 HD 
HETATM   27  C   UNL     1      -9.788  11.314  68.041  1.00  0.00    -0.178 C  
HETATM   28  O   UNL     1     -10.610  12.192  67.812  1.00  0.00    -0.197 OA 
ENDBRANCH  14  15
ENDBRANCH  13  14
ENDBRANCH  12  13
BRANCH  12  29
HETATM   29  C   UNL     1      -9.432   5.193  66.322  1.00  0.00    -0.156 C  
HETATM   30  O   UNL     1     -10.850   5.055  66.440  1.00  0.00    -0.454 OA 
HETATM   31  H   UNL     1     -11.226   4.916  65.580  1.00  0.00     0.000 HD 
ENDBRANCH  12  29
ENDBRANCH  11  12
ENDBRANCH  10  11
ENDBRANCH   8  10
ENDBRANCH   4   8
TORSDOF 8
ENDMDL
MODEL      323
REMARK 921   NORMALIZED FREE ENERGY PREDICTED BY IDOCK:   -3.49 KCAL/MOL
REMARK 922        TOTAL FREE ENERGY PREDICTED BY IDOCK:   -6.34 KCAL/MOL
REMARK 923 INTER-LIGAND FREE ENERGY PREDICTED BY IDOCK:   -6.20 KCAL/MOL
REMARK 924 INTRA-LIGAND FREE ENERGY PREDICTED BY IDOCK:   -0.15 KCAL/MOL
REMARK 927      BINDING AFFINITY PREDICTED BY RF-SCORE:    0.00 PKD
ROOT
HETATM    1  C   UNL     1     -10.706   9.397  71.395  1.00  0.00    -0.407 C  
HETATM    2  C   UNL     1     -11.947   8.506  71.255  1.00  0.00    -0.334 C  
HETATM    3  C   UNL     1     -13.125   9.136  72.004  1.00  0.00    -0.497 C  
HETATM    4  C   UNL     1     -11.697   7.043  71.699  1.00  0.00    -0.297 C  
HETATM    5  N   UNL     1     -11.271   6.959  73.114  1.00  0.00    -0.509 NA 
HETATM    6  H1  UNL     1     -11.107   5.996  73.405  1.00  0.00     0.000 HD 
HETATM    7  H2  UNL     1     -11.937   7.424  73.730  1.00  0.00     0.000 HD 
ENDROOT
BRANCH   4   8
HETATM    8  C   UNL     1     -10.684   6.347  70.766  1.00  0.00    -0.250 C  
HETATM    9  O   UNL     1      -9.467   6.424  70.883  1.00  0.00    -0.173 OA 
BRANCH   8  10
HETATM   10  O   UNL     1     -11.310   5.688  69.745  1.00  0.00    -0.160 OA 
BRANCH  10  11
HETATM   11  C   UNL     1     -10.989   6.131  68.414  1.00  0.00    -0.305 C  
BRANCH  11  12
HETATM   12  C   UNL     1      -9.515   5.828  68.102  1.00  0.00    -0.111 C  
BRANCH  12  13
HETATM   13  O   UNL     1      -9.067   6.409  66.856  1.00  0.00    -0.126 OA 
BRANCH  13  14
HETATM   14  C   UNL     1      -8.365   7.638  67.033  1.00  0.00    -0.124 C  
BRANCH  14  15
HETATM   15  N   UNL     1      -9.246   8.736  66.705  1.00  0.00    -0.165 NA 
HETATM   16  C   UNL     1     -10.116   9.339  67.582  1.00  0.00    -0.214 A  
HETATM   17  N   UNL     1     -10.702  10.397  67.054  1.00  0.00    -0.256 NA 
HETATM   18  C   UNL     1     -10.185  10.487  65.780  1.00  0.00    -0.243 A  
HETATM   19  C   UNL     1      -9.294   9.465  65.566  1.00  0.00    -0.251 A  
HETATM   20  N   UNL     1      -8.630   9.326  64.413  1.00  0.00    -0.192 NA 
HETATM   21  C   UNL     1      -8.860  10.278  63.450  1.00  0.00    -0.221 C  
HETATM   22  N   UNL     1      -8.106  10.111  62.336  1.00  0.00    -0.133 NA 
HETATM   23  N   UNL     1      -9.678  11.285  63.546  1.00  0.00    -0.302 N  
HETATM   24  H2  UNL     1      -7.433   9.353  62.224  1.00  0.00     0.000 HD 
HETATM   25  H1  UNL     1      -8.277  10.818  61.620  1.00  0.00     0.000 HD 
HETATM   26  H   UNL     1      -9.775  11.938  62.769  1.00  0.00     0.000 HD 
HETATM   27  C   UNL     1     -10.426  11.474  64.715  1.00  0.00    -0.299 C  
HETATM   28  O   UNL     1     -11.218  12.399  64.847  1.00  0.00    -0.295 OA 
ENDBRANCH  14  15
ENDBRANCH  13  14
ENDBRANCH  12  13
BRANCH  12  29
HETATM   29  C   UNL     1      -9.291   4.311  68.010  1.00  0.00    -0.152 C  
HETATM   30  O   UNL     1     -10.178   3.759  67.036  1.00  0.00    -0.182 OA 
HETATM   31  H   UNL     1     -10.040   2.821  66.979  1.00  0.00     0.000 HD 
ENDBRANCH  12  29
ENDBRANCH  11  12
ENDBRANCH  10  11
ENDBRANCH   8  10
ENDBRANCH   4   8
TORSDOF 8
ENDMDL
MODEL      324
REMARK 921   NORMALIZED FREE ENERGY PREDICTED BY IDOCK:   -3.49 KCAL/MOL
REMARK 922        TOTAL FREE ENERGY PREDICTED BY IDOCK:   -6.34 KCAL/MOL
REMARK 923 INTER-LIGAND FREE ENERGY PREDICTED BY IDOCK:   -5.25 KCAL/MOL
REMARK 924 INTRA-LIGAND FREE ENERGY PREDICTED BY IDOCK:   -1.09 KCAL/MOL
REMARK 927      BINDING AFFINITY PREDICTED BY RF-SCORE:    0.00 PKD
ROOT
HETATM    1  C   UNL     1      -7.667  10.150  64.450  1.00  0.00    -0.134 C  
HETATM    2  C   UNL     1      -9.132   9.695  64.463  1.00  0.00    -0.287 C  
HETATM    3  C   UNL     1     -10.031  10.826  63.956  1.00  0.00    -0.403 C  
HETATM    4  C   UNL     1      -9.591   9.167  65.846  1.00  0.00    -0.273 C  
HETATM    5  N   UNL     1      -9.455  10.195  66.902  1.00  0.00    -0.165 NA 
HETATM    6  H1  UNL     1      -9.758   9.848  67.812  1.00  0.00     0.000 HD 
HETATM    7  H2  UNL     1      -9.947  11.052  66.651  1.00  0.00     0.000 HD 
ENDROOT
BRANCH   4   8
HETATM    8  C   UNL     1      -8.839   7.874  66.223  1.00  0.00    -0.159 C  
HETATM    9  O   UNL     1      -9.015   6.787  65.684  1.00  0.00    -0.085 OA 
BRANCH   8  10
HETATM   10  O   UNL     1      -8.002   8.070  67.285  1.00  0.00    -0.117 OA 
BRANCH  10  11
HETATM   11  C   UNL     1      -8.174   7.179  68.402  1.00  0.00    -0.125 C  
BRANCH  11  12
HETATM   12  C   UNL     1      -7.104   6.076  68.362  1.00  0.00    -0.082 C  
BRANCH  12  13
HETATM   13  O   UNL     1      -7.658   4.744  68.464  1.00  0.00    -0.072 OA 
BRANCH  13  14
HETATM   14  C   UNL     1      -9.082   4.736  68.548  1.00  0.00    -0.117 C  
BRANCH  14  15
HETATM   15  N   UNL     1      -9.472   4.479  69.916  1.00  0.00    -0.156 NA 
HETATM   16  C   UNL     1      -8.850   3.590  70.761  1.00  0.00    -0.081 A  
HETATM   17  N   UNL     1      -9.331   3.651  71.989  1.00  0.00    -0.114 NA 
HETATM   18  C   UNL     1     -10.303   4.626  71.939  1.00  0.00    -0.150 A  
HETATM   19  C   UNL     1     -10.392   5.131  70.665  1.00  0.00    -0.235 A  
HETATM   20  N   UNL     1     -11.247   6.107  70.341  1.00  0.00    -0.353 NA 
HETATM   21  C   UNL     1     -12.024   6.608  71.356  1.00  0.00    -0.353 C  
HETATM   22  N   UNL     1     -12.818   7.637  70.970  1.00  0.00    -0.550 NA 
HETATM   23  N   UNL     1     -12.021   6.208  72.594  1.00  0.00    -0.528 N  
HETATM   24  H2  UNL     1     -12.836   8.003  70.019  1.00  0.00     0.000 HD 
HETATM   25  H1  UNL     1     -13.395   8.009  71.724  1.00  0.00     0.000 HD 
HETATM   26  H   UNL     1     -12.641   6.650  73.273  1.00  0.00     0.000 HD 
HETATM   27  C   UNL     1     -11.171   5.170  72.996  1.00  0.00    -0.322 C  
HETATM   28  O   UNL     1     -11.143   4.750  74.146  1.00  0.00    -0.302 OA 
ENDBRANCH  14  15
ENDBRANCH  13  14
ENDBRANCH  12  13
BRANCH  12  29
HETATM   29  C   UNL     1      -6.113   6.254  69.523  1.00  0.00    -0.029 C  
HETATM   30  O   UNL     1      -6.821   6.195  70.763  1.00  0.00    -0.058 OA 
HETATM   31  H   UNL     1      -6.208   6.305  71.481  1.00  0.00     0.000 HD 
ENDBRANCH  12  29
ENDBRANCH  11  12
ENDBRANCH  10  11
ENDBRANCH   8  10
ENDBRANCH   4   8
TORSDOF 8
ENDMDL
MODEL      325
REMARK 921   NORMALIZED FREE ENERGY PREDICTED BY IDOCK:   -3.49 KCAL/MOL
REMARK 922        TOTAL FREE ENERGY PREDICTED BY IDOCK:   -6.34 KCAL/MOL
REMARK 923 INTER-LIGAND FREE ENERGY PREDICTED BY IDOCK:   -5.35 KCAL/MOL
REMARK 924 INTRA-LIGAND FREE ENERGY PREDICTED BY IDOCK:   -0.99 KCAL/MOL
REMARK 927      BINDING AFFINITY PREDICTED BY RF-SCORE:    0.00 PKD
ROOT
HETATM    1  C   UNL     1     -12.111  14.400  67.113  1.00  0.00    -0.367 C  
HETATM    2  C   UNL     1     -11.354  14.330  65.781  1.00  0.00    -0.326 C  
HETATM    3  C   UNL     1     -12.315  14.615  64.622  1.00  0.00    -0.390 C  
HETATM    4  C   UNL     1     -10.593  12.994  65.584  1.00  0.00    -0.282 C  
HETATM    5  N   UNL     1     -11.505  11.829  65.618  1.00  0.00    -0.249 NA 
HETATM    6  H1  UNL     1     -11.004  10.950  65.488  1.00  0.00     0.000 HD 
HETATM    7  H2  UNL     1     -12.259  11.929  64.939  1.00  0.00     0.000 HD 
ENDROOT
BRANCH   4   8
HETATM    8  C   UNL     1      -9.458  12.847  66.618  1.00  0.00    -0.255 C  
HETATM    9  O   UNL     1      -8.522  13.629  66.737  1.00  0.00    -0.117 OA 
BRANCH   8  10
HETATM   10  O   UNL     1      -9.582  11.694  67.342  1.00  0.00    -0.166 OA 
BRANCH  10  11
HETATM   11  C   UNL     1      -9.425  11.819  68.766  1.00  0.00    -0.026 C  
BRANCH  11  12
HETATM   12  C   UNL     1     -10.440  10.917  69.487  1.00  0.00    -0.138 C  
BRANCH  12  13
HETATM   13  O   UNL     1     -10.395   9.542  69.041  1.00  0.00    -0.192 OA 
BRANCH  13  14
HETATM   14  C   UNL     1      -9.328   8.799  69.626  1.00  0.00    -0.158 C  
BRANCH  14  15
HETATM   15  N   UNL     1      -9.877   7.674  70.349  1.00  0.00    -0.183 NA 
HETATM   16  C   UNL     1     -11.201   7.302  70.344  1.00  0.00    -0.276 A  
HETATM   17  N   UNL     1     -11.400   6.164  70.983  1.00  0.00    -0.303 NA 
HETATM   18  C   UNL     1     -10.151   5.780  71.418  1.00  0.00    -0.198 A  
HETATM   19  C   UNL     1      -9.217   6.710  71.032  1.00  0.00    -0.160 A  
HETATM   20  N   UNL     1      -7.915   6.573  71.309  1.00  0.00    -0.107 NA 
HETATM   21  C   UNL     1      -7.545   5.434  71.981  1.00  0.00    -0.099 C  
HETATM   22  N   UNL     1      -6.206   5.331  72.170  1.00  0.00    -0.030 NA 
HETATM   23  N   UNL     1      -8.342   4.491  72.393  1.00  0.00    -0.108 N  
HETATM   24  H2  UNL     1      -5.540   6.031  71.844  1.00  0.00     0.000 HD 
HETATM   25  H1  UNL     1      -5.931   4.486  72.670  1.00  0.00     0.000 HD 
HETATM   26  H   UNL     1      -7.962   3.683  72.885  1.00  0.00     0.000 HD 
HETATM   27  C   UNL     1      -9.719   4.585  72.161  1.00  0.00    -0.163 C  
HETATM   28  O   UNL     1     -10.510   3.730  72.541  1.00  0.00    -0.160 OA 
ENDBRANCH  14  15
ENDBRANCH  13  14
ENDBRANCH  12  13
BRANCH  12  29
HETATM   29  C   UNL     1     -11.868  11.432  69.253  1.00  0.00    -0.349 C  
HETATM   30  O   UNL     1     -12.315  11.019  67.959  1.00  0.00    -0.544 OA 
HETATM   31  H   UNL     1     -13.198  11.337  67.815  1.00  0.00     0.000 HD 
ENDBRANCH  12  29
ENDBRANCH  11  12
ENDBRANCH  10  11
ENDBRANCH   8  10
ENDBRANCH   4   8
TORSDOF 8
ENDMDL
MODEL      326
REMARK 921   NORMALIZED FREE ENERGY PREDICTED BY IDOCK:   -3.49 KCAL/MOL
REMARK 922        TOTAL FREE ENERGY PREDICTED BY IDOCK:   -6.34 KCAL/MOL
REMARK 923 INTER-LIGAND FREE ENERGY PREDICTED BY IDOCK:   -5.75 KCAL/MOL
REMARK 924 INTRA-LIGAND FREE ENERGY PREDICTED BY IDOCK:   -0.59 KCAL/MOL
REMARK 927      BINDING AFFINITY PREDICTED BY RF-SCORE:    0.00 PKD
ROOT
HETATM    1  C   UNL     1      -6.922   7.732  71.559  1.00  0.00    -0.058 C  
HETATM    2  C   UNL     1      -7.469   7.932  70.141  1.00  0.00    -0.078 C  
HETATM    3  C   UNL     1      -6.350   7.714  69.117  1.00  0.00    -0.036 C  
HETATM    4  C   UNL     1      -8.170   9.300  69.947  1.00  0.00    -0.145 C  
HETATM    5  N   UNL     1      -7.256  10.433  70.214  1.00  0.00    -0.397 NA 
HETATM    6  H1  UNL     1      -7.718  11.333  70.086  1.00  0.00     0.000 HD 
HETATM    7  H2  UNL     1      -6.410  10.367  69.648  1.00  0.00     0.000 HD 
ENDROOT
BRANCH   4   8
HETATM    8  C   UNL     1      -9.446   9.395  70.810  1.00  0.00    -0.241 C  
HETATM    9  O   UNL     1      -9.462   9.332  72.034  1.00  0.00    -0.246 OA 
BRANCH   8  10
HETATM   10  O   UNL     1     -10.570   9.485  70.038  1.00  0.00    -0.211 OA 
BRANCH  10  11
HETATM   11  C   UNL     1     -10.453  10.265  68.835  1.00  0.00    -0.211 C  
BRANCH  11  12
HETATM   12  C   UNL     1     -11.076  11.654  69.048  1.00  0.00    -0.241 C  
BRANCH  12  13
HETATM   13  O   UNL     1     -10.095  12.684  69.306  1.00  0.00     0.230 OA 
BRANCH  13  14
HETATM   14  C   UNL     1      -9.527  13.225  68.115  1.00  0.00    -0.222 C  
BRANCH  14  15
HETATM   15  N   UNL     1      -9.174  14.608  68.346  1.00  0.00    -0.191 NA 
HETATM   16  C   UNL     1      -8.269  15.046  69.283  1.00  0.00    -0.165 A  
HETATM   17  N   UNL     1      -8.044  16.343  69.189  1.00  0.00    -0.231 NA 
HETATM   18  C   UNL     1      -8.833  16.763  68.142  1.00  0.00    -0.223 A  
HETATM   19  C   UNL     1      -9.530  15.698  67.627  1.00  0.00    -0.211 A  
HETATM   20  N   UNL     1     -10.361  15.823  66.586  1.00  0.00    -0.285 NA 
HETATM   21  C   UNL     1     -10.468  17.074  66.030  1.00  0.00    -0.274 C  
HETATM   22  N   UNL     1     -11.275  17.113  64.941  1.00  0.00    -0.689 NA 
HETATM   23  N   UNL     1      -9.856  18.149  66.434  1.00  0.00    -0.349 N  
HETATM   24  H2  UNL     1     -11.755  16.293  64.571  1.00  0.00     0.000 HD 
HETATM   25  H1  UNL     1     -11.355  18.042  64.528  1.00  0.00     0.000 HD 
HETATM   26  H   UNL     1     -10.006  19.033  65.947  1.00  0.00     0.000 HD 
HETATM   27  C   UNL     1      -8.994  18.095  67.535  1.00  0.00    -0.257 C  
HETATM   28  O   UNL     1      -8.407  19.083  67.961  1.00  0.00    -0.283 OA 
ENDBRANCH  14  15
ENDBRANCH  13  14
ENDBRANCH  12  13
BRANCH  12  29
HETATM   29  C   UNL     1     -12.041  11.626  70.243  1.00  0.00    -0.358 C  
HETATM   30  O   UNL     1     -13.075  10.671  69.997  1.00  0.00    -0.376 OA 
HETATM   31  H   UNL     1     -13.671  10.654  70.737  1.00  0.00     0.000 HD 
ENDBRANCH  12  29
ENDBRANCH  11  12
ENDBRANCH  10  11
ENDBRANCH   8  10
ENDBRANCH   4   8
TORSDOF 8
ENDMDL
MODEL      327
REMARK 921   NORMALIZED FREE ENERGY PREDICTED BY IDOCK:   -3.49 KCAL/MOL
REMARK 922        TOTAL FREE ENERGY PREDICTED BY IDOCK:   -6.33 KCAL/MOL
REMARK 923 INTER-LIGAND FREE ENERGY PREDICTED BY IDOCK:   -5.94 KCAL/MOL
REMARK 924 INTRA-LIGAND FREE ENERGY PREDICTED BY IDOCK:   -0.39 KCAL/MOL
REMARK 927      BINDING AFFINITY PREDICTED BY RF-SCORE:    0.00 PKD
ROOT
HETATM    1  C   UNL     1      -9.937  14.156  68.461  1.00  0.00    -0.235 C  
HETATM    2  C   UNL     1     -11.136  13.352  67.944  1.00  0.00    -0.289 C  
HETATM    3  C   UNL     1     -12.121  14.287  67.236  1.00  0.00    -0.390 C  
HETATM    4  C   UNL     1     -11.827  12.515  69.050  1.00  0.00    -0.296 C  
HETATM    5  N   UNL     1     -12.328  13.364  70.154  1.00  0.00    -0.287 NA 
HETATM    6  H1  UNL     1     -12.783  12.813  70.881  1.00  0.00     0.000 HD 
HETATM    7  H2  UNL     1     -12.944  14.099  69.807  1.00  0.00     0.000 HD 
ENDROOT
BRANCH   4   8
HETATM    8  C   UNL     1     -10.889  11.409  69.574  1.00  0.00    -0.108 C  
HETATM    9  O   UNL     1      -9.886  11.016  68.991  1.00  0.00    -0.200 OA 
BRANCH   8  10
HETATM   10  O   UNL     1     -11.354  10.866  70.739  1.00  0.00    -0.191 OA 
BRANCH  10  11
HETATM   11  C   UNL     1     -11.533   9.438  70.747  1.00  0.00    -0.300 C  
BRANCH  11  12
HETATM   12  C   UNL     1     -11.758   8.946  72.186  1.00  0.00    -0.341 C  
BRANCH  12  13
HETATM   13  O   UNL     1     -10.801   7.944  72.600  1.00  0.00    -0.306 OA 
BRANCH  13  14
HETATM   14  C   UNL     1      -9.643   7.900  71.769  1.00  0.00    -0.165 C  
BRANCH  14  15
HETATM   15  N   UNL     1      -9.606   6.631  71.078  1.00  0.00    -0.171 NA 
HETATM   16  C   UNL     1      -9.361   6.470  69.734  1.00  0.00    -0.147 A  
HETATM   17  N   UNL     1      -9.256   5.198  69.397  1.00  0.00    -0.107 NA 
HETATM   18  C   UNL     1      -9.436   4.505  70.574  1.00  0.00    -0.176 A  
HETATM   19  C   UNL     1      -9.654   5.385  71.604  1.00  0.00    -0.150 A  
HETATM   20  N   UNL     1      -9.841   4.978  72.865  1.00  0.00    -0.151 NA 
HETATM   21  C   UNL     1      -9.778   3.625  73.091  1.00  0.00    -0.117 C  
HETATM   22  N   UNL     1      -9.911   3.289  74.398  1.00  0.00    -0.113 NA 
HETATM   23  N   UNL     1      -9.576   2.704  72.193  1.00  0.00    -0.114 N  
HETATM   24  H2  UNL     1     -10.044   3.975  75.140  1.00  0.00     0.000 HD 
HETATM   25  H1  UNL     1      -9.864   2.285  74.566  1.00  0.00     0.000 HD 
HETATM   26  H   UNL     1      -9.546   1.723  72.468  1.00  0.00     0.000 HD 
HETATM   27  C   UNL     1      -9.401   3.059  70.850  1.00  0.00    -0.150 C  
HETATM   28  O   UNL     1      -9.222   2.229  69.967  1.00  0.00    -0.100 OA 
ENDBRANCH  14  15
ENDBRANCH  13  14
ENDBRANCH  12  13
BRANCH  12  29
HETATM   29  C   UNL     1     -13.159   8.331  72.325  1.00  0.00    -0.237 C  
HETATM   30  O   UNL     1     -13.992   9.212  73.081  1.00  0.00    -1.101 OA 
HETATM   31  H   UNL     1     -14.858   8.832  73.167  1.00  0.00     0.000 HD 
ENDBRANCH  12  29
ENDBRANCH  11  12
ENDBRANCH  10  11
ENDBRANCH   8  10
ENDBRANCH   4   8
TORSDOF 8
ENDMDL
MODEL      328
REMARK 921   NORMALIZED FREE ENERGY PREDICTED BY IDOCK:   -3.49 KCAL/MOL
REMARK 922        TOTAL FREE ENERGY PREDICTED BY IDOCK:   -6.33 KCAL/MOL
REMARK 923 INTER-LIGAND FREE ENERGY PREDICTED BY IDOCK:   -5.75 KCAL/MOL
REMARK 924 INTRA-LIGAND FREE ENERGY PREDICTED BY IDOCK:   -0.59 KCAL/MOL
REMARK 927      BINDING AFFINITY PREDICTED BY RF-SCORE:    0.00 PKD
ROOT
HETATM    1  C   UNL     1     -11.761  15.186  67.247  1.00  0.00    -0.169 C  
HETATM    2  C   UNL     1     -10.324  15.163  66.713  1.00  0.00    -0.273 C  
HETATM    3  C   UNL     1      -9.542  16.353  67.279  1.00  0.00    -0.235 C  
HETATM    4  C   UNL     1     -10.252  15.107  65.166  1.00  0.00    -0.351 C  
HETATM    5  N   UNL     1     -10.921  16.270  64.539  1.00  0.00    -0.980 NA 
HETATM    6  H1  UNL     1     -10.873  16.233  63.521  1.00  0.00     0.000 HD 
HETATM    7  H2  UNL     1     -10.547  17.149  64.896  1.00  0.00     0.000 HD 
ENDROOT
BRANCH   4   8
HETATM    8  C   UNL     1     -10.824  13.777  64.633  1.00  0.00    -0.406 C  
HETATM    9  O   UNL     1     -11.993  13.429  64.748  1.00  0.00    -0.359 OA 
BRANCH   8  10
HETATM   10  O   UNL     1      -9.849  12.997  64.078  1.00  0.00    -0.232 OA 
BRANCH  10  11
HETATM   11  C   UNL     1      -9.356  11.920  64.894  1.00  0.00     0.122 C  
BRANCH  11  12
HETATM   12  C   UNL     1     -10.296  10.708  64.787  1.00  0.00    -0.283 C  
BRANCH  12  13
HETATM   13  O   UNL     1     -10.420   9.974  66.026  1.00  0.00    -0.186 OA 
BRANCH  13  14
HETATM   14  C   UNL     1      -9.460   8.926  66.154  1.00  0.00    -0.251 C  
BRANCH  14  15
HETATM   15  N   UNL     1      -8.818   9.029  67.445  1.00  0.00    -0.119 NA 
HETATM   16  C   UNL     1      -7.885   9.978  67.789  1.00  0.00    -0.094 A  
HETATM   17  N   UNL     1      -7.563   9.917  69.068  1.00  0.00    -0.081 NA 
HETATM   18  C   UNL     1      -8.325   8.888  69.575  1.00  0.00    -0.119 A  
HETATM   19  C   UNL     1      -9.092   8.340  68.577  1.00  0.00    -0.136 A  
HETATM   20  N   UNL     1      -9.942   7.332  68.800  1.00  0.00    -0.162 NA 
HETATM   21  C   UNL     1     -10.035   6.879  70.094  1.00  0.00    -0.178 C  
HETATM   22  N   UNL     1     -10.960   5.902  70.258  1.00  0.00    -0.326 NA 
HETATM   23  N   UNL     1      -9.359   7.323  71.114  1.00  0.00    -0.156 N  
HETATM   24  H2  UNL     1     -11.532   5.540  69.496  1.00  0.00     0.000 HD 
HETATM   25  H1  UNL     1     -11.030   5.566  71.218  1.00  0.00     0.000 HD 
HETATM   26  H   UNL     1      -9.505   6.916  72.037  1.00  0.00     0.000 HD 
HETATM   27  C   UNL     1      -8.432   8.359  70.945  1.00  0.00    -0.140 C  
HETATM   28  O   UNL     1      -7.763   8.801  71.871  1.00  0.00    -0.265 OA 
ENDBRANCH  14  15
ENDBRANCH  13  14
ENDBRANCH  12  13
BRANCH  12  29
HETATM   29  C   UNL     1      -9.781   9.729  63.721  1.00  0.00     0.356 C  
HETATM   30  O   UNL     1      -9.984  10.291  62.423  1.00  0.00    -0.725 OA 
HETATM   31  H   UNL     1      -9.667   9.686  61.763  1.00  0.00     0.000 HD 
ENDBRANCH  12  29
ENDBRANCH  11  12
ENDBRANCH  10  11
ENDBRANCH   8  10
ENDBRANCH   4   8
TORSDOF 8
ENDMDL
MODEL      329
REMARK 921   NORMALIZED FREE ENERGY PREDICTED BY IDOCK:   -3.48 KCAL/MOL
REMARK 922        TOTAL FREE ENERGY PREDICTED BY IDOCK:   -6.33 KCAL/MOL
REMARK 923 INTER-LIGAND FREE ENERGY PREDICTED BY IDOCK:   -5.62 KCAL/MOL
REMARK 924 INTRA-LIGAND FREE ENERGY PREDICTED BY IDOCK:   -0.70 KCAL/MOL
REMARK 927      BINDING AFFINITY PREDICTED BY RF-SCORE:    0.00 PKD
ROOT
HETATM    1  C   UNL     1      -9.984  10.964  63.446  1.00  0.00    -0.414 C  
HETATM    2  C   UNL     1     -11.139  11.626  64.208  1.00  0.00    -0.406 C  
HETATM    3  C   UNL     1     -11.653  12.836  63.422  1.00  0.00    -0.506 C  
HETATM    4  C   UNL     1     -10.769  12.000  65.666  1.00  0.00    -0.272 C  
HETATM    5  N   UNL     1      -9.627  12.940  65.723  1.00  0.00    -0.453 NA 
HETATM    6  H1  UNL     1      -9.384  13.186  66.682  1.00  0.00     0.000 HD 
HETATM    7  H2  UNL     1      -9.803  13.772  65.160  1.00  0.00     0.000 HD 
ENDROOT
BRANCH   4   8
HETATM    8  C   UNL     1     -10.498  10.737  66.510  1.00  0.00    -0.240 C  
HETATM    9  O   UNL     1     -10.829   9.603  66.187  1.00  0.00     0.119 OA 
BRANCH   8  10
HETATM   10  O   UNL     1      -9.904  11.046  67.701  1.00  0.00    -0.170 OA 
BRANCH  10  11
HETATM   11  C   UNL     1     -10.792  11.295  68.806  1.00  0.00    -0.208 C  
BRANCH  11  12
HETATM   12  C   UNL     1     -10.643  10.184  69.858  1.00  0.00    -0.285 C  
BRANCH  12  13
HETATM   13  O   UNL     1     -10.707   8.854  69.292  1.00  0.00    -0.224 OA 
BRANCH  13  14
HETATM   14  C   UNL     1      -9.535   8.082  69.546  1.00  0.00    -0.160 C  
BRANCH  14  15
HETATM   15  N   UNL     1      -9.523   6.937  68.663  1.00  0.00    -0.135 NA 
HETATM   16  C   UNL     1     -10.119   5.728  68.931  1.00  0.00    -0.186 A  
HETATM   17  N   UNL     1     -10.065   4.907  67.898  1.00  0.00    -0.120 NA 
HETATM   18  C   UNL     1      -9.409   5.618  66.917  1.00  0.00    -0.125 A  
HETATM   19  C   UNL     1      -9.073   6.862  67.389  1.00  0.00    -0.122 A  
HETATM   20  N   UNL     1      -8.443   7.768  66.632  1.00  0.00    -0.124 NA 
HETATM   21  C   UNL     1      -8.166   7.403  65.337  1.00  0.00    -0.134 C  
HETATM   22  N   UNL     1      -7.586   8.390  64.611  1.00  0.00    -0.098 NA 
HETATM   23  N   UNL     1      -8.438   6.255  64.787  1.00  0.00    -0.326 N  
HETATM   24  H2  UNL     1      -7.377   9.314  64.989  1.00  0.00     0.000 HD 
HETATM   25  H1  UNL     1      -7.380   8.119  63.649  1.00  0.00     0.000 HD 
HETATM   26  H   UNL     1      -8.189   6.086  63.813  1.00  0.00     0.000 HD 
HETATM   27  C   UNL     1      -9.072   5.253  65.531  1.00  0.00    -0.139 C  
HETATM   28  O   UNL     1      -9.337   4.152  65.062  1.00  0.00    -0.145 OA 
ENDBRANCH  14  15
ENDBRANCH  13  14
ENDBRANCH  12  13
BRANCH  12  29
HETATM   29  C   UNL     1     -11.760  10.291  70.907  1.00  0.00    -0.379 C  
HETATM   30  O   UNL     1     -11.549   9.313  71.927  1.00  0.00    -0.372 OA 
HETATM   31  H   UNL     1     -12.240   9.380  72.576  1.00  0.00     0.000 HD 
ENDBRANCH  12  29
ENDBRANCH  11  12
ENDBRANCH  10  11
ENDBRANCH   8  10
ENDBRANCH   4   8
TORSDOF 8
ENDMDL
MODEL      330
REMARK 921   NORMALIZED FREE ENERGY PREDICTED BY IDOCK:   -3.48 KCAL/MOL
REMARK 922        TOTAL FREE ENERGY PREDICTED BY IDOCK:   -6.32 KCAL/MOL
REMARK 923 INTER-LIGAND FREE ENERGY PREDICTED BY IDOCK:   -5.52 KCAL/MOL
REMARK 924 INTRA-LIGAND FREE ENERGY PREDICTED BY IDOCK:   -0.80 KCAL/MOL
REMARK 927      BINDING AFFINITY PREDICTED BY RF-SCORE:    0.00 PKD
ROOT
HETATM    1  C   UNL     1      -8.525   5.154  64.430  1.00  0.00    -0.138 C  
HETATM    2  C   UNL     1      -7.299   5.866  65.016  1.00  0.00    -0.072 C  
HETATM    3  C   UNL     1      -6.508   4.895  65.899  1.00  0.00    -0.040 C  
HETATM    4  C   UNL     1      -7.657   7.171  65.771  1.00  0.00    -0.094 C  
HETATM    5  N   UNL     1      -8.584   6.921  66.898  1.00  0.00    -0.114 NA 
HETATM    6  H1  UNL     1      -8.819   7.780  67.395  1.00  0.00     0.000 HD 
HETATM    7  H2  UNL     1      -8.212   6.216  67.534  1.00  0.00     0.000 HD 
ENDROOT
BRANCH   4   8
HETATM    8  C   UNL     1      -8.224   8.231  64.804  1.00  0.00    -0.144 C  
HETATM    9  O   UNL     1      -7.772   8.467  63.691  1.00  0.00    -0.126 OA 
BRANCH   8  10
HETATM   10  O   UNL     1      -9.253   8.930  65.372  1.00  0.00    -0.205 OA 
BRANCH  10  11
HETATM   11  C   UNL     1      -9.266  10.348  65.129  1.00  0.00    -0.208 C  
BRANCH  11  12
HETATM   12  C   UNL     1      -9.087  11.108  66.453  1.00  0.00    -0.187 C  
BRANCH  12  13
HETATM   13  O   UNL     1      -9.989  12.231  66.590  1.00  0.00    -0.209 OA 
BRANCH  13  14
HETATM   14  C   UNL     1      -9.373  13.372  67.184  1.00  0.00    -0.240 C  
BRANCH  14  15
HETATM   15  N   UNL     1      -9.789  14.558  66.470  1.00  0.00    -0.273 NA 
HETATM   16  C   UNL     1     -10.703  14.581  65.442  1.00  0.00    -0.361 A  
HETATM   17  N   UNL     1     -10.992  15.811  65.062  1.00  0.00    -0.424 NA 
HETATM   18  C   UNL     1     -10.237  16.621  65.882  1.00  0.00    -0.340 A  
HETATM   19  C   UNL     1      -9.496  15.851  66.743  1.00  0.00    -0.235 A  
HETATM   20  N   UNL     1      -8.686  16.385  67.664  1.00  0.00    -0.182 NA 
HETATM   21  C   UNL     1      -8.647  17.756  67.729  1.00  0.00    -0.237 C  
HETATM   22  N   UNL     1      -7.858  18.227  68.725  1.00  0.00    -0.291 NA 
HETATM   23  N   UNL     1      -9.305  18.581  66.966  1.00  0.00    -0.281 N  
HETATM   24  H2  UNL     1      -7.343  17.622  69.364  1.00  0.00     0.000 HD 
HETATM   25  H1  UNL     1      -7.828  19.245  68.774  1.00  0.00     0.000 HD 
HETATM   26  H   UNL     1      -9.205  19.587  67.099  1.00  0.00     0.000 HD 
HETATM   27  C   UNL     1     -10.150  18.088  65.964  1.00  0.00    -0.266 C  
HETATM   28  O   UNL     1     -10.778  18.824  65.213  1.00  0.00    -0.541 OA 
ENDBRANCH  14  15
ENDBRANCH  13  14
ENDBRANCH  12  13
BRANCH  12  29
HETATM   29  C   UNL     1      -7.655  11.651  66.566  1.00  0.00     0.016 C  
HETATM   30  O   UNL     1      -6.807  10.945  65.657  1.00  0.00    -0.330 OA 
HETATM   31  H   UNL     1      -5.921  11.280  65.727  1.00  0.00     0.000 HD 
ENDBRANCH  12  29
ENDBRANCH  11  12
ENDBRANCH  10  11
ENDBRANCH   8  10
ENDBRANCH   4   8
TORSDOF 8
ENDMDL
MODEL      331
REMARK 921   NORMALIZED FREE ENERGY PREDICTED BY IDOCK:   -3.47 KCAL/MOL
REMARK 922        TOTAL FREE ENERGY PREDICTED BY IDOCK:   -6.30 KCAL/MOL
REMARK 923 INTER-LIGAND FREE ENERGY PREDICTED BY IDOCK:   -5.76 KCAL/MOL
REMARK 924 INTRA-LIGAND FREE ENERGY PREDICTED BY IDOCK:   -0.55 KCAL/MOL
REMARK 927      BINDING AFFINITY PREDICTED BY RF-SCORE:    0.00 PKD
ROOT
HETATM    1  C   UNL     1      -9.939  14.156  68.452  1.00  0.00    -0.235 C  
HETATM    2  C   UNL     1     -11.123  13.361  67.889  1.00  0.00    -0.289 C  
HETATM    3  C   UNL     1     -12.084  14.306  67.162  1.00  0.00    -0.412 C  
HETATM    4  C   UNL     1     -11.849  12.511  68.962  1.00  0.00    -0.296 C  
HETATM    5  N   UNL     1     -12.382  13.346  70.061  1.00  0.00    -0.269 NA 
HETATM    6  H1  UNL     1     -12.861  12.787  70.766  1.00  0.00     0.000 HD 
HETATM    7  H2  UNL     1     -12.986  14.087  69.704  1.00  0.00     0.000 HD 
ENDROOT
BRANCH   4   8
HETATM    8  C   UNL     1     -10.929  11.396  69.501  1.00  0.00    -0.166 C  
HETATM    9  O   UNL     1      -9.901  11.019  68.952  1.00  0.00    -0.193 OA 
BRANCH   8  10
HETATM   10  O   UNL     1     -11.438  10.828  70.635  1.00  0.00    -0.325 OA 
BRANCH  10  11
HETATM   11  C   UNL     1     -11.578   9.396  70.619  1.00  0.00    -0.269 C  
BRANCH  11  12
HETATM   12  C   UNL     1     -11.875   8.882  72.037  1.00  0.00    -0.368 C  
BRANCH  12  13
HETATM   13  O   UNL     1     -10.891   7.937  72.517  1.00  0.00    -0.284 OA 
BRANCH  13  14
HETATM   14  C   UNL     1      -9.668   7.985  71.785  1.00  0.00    -0.176 C  
BRANCH  14  15
HETATM   15  N   UNL     1      -9.485   6.731  71.088  1.00  0.00    -0.163 NA 
HETATM   16  C   UNL     1     -10.368   5.677  71.115  1.00  0.00    -0.232 A  
HETATM   17  N   UNL     1     -10.015   4.711  70.288  1.00  0.00    -0.241 NA 
HETATM   18  C   UNL     1      -8.855   5.161  69.696  1.00  0.00    -0.102 A  
HETATM   19  C   UNL     1      -8.528   6.399  70.191  1.00  0.00    -0.135 A  
HETATM   20  N   UNL     1      -7.453   7.075  69.772  1.00  0.00    -0.095 NA 
HETATM   21  C   UNL     1      -6.695   6.483  68.793  1.00  0.00    -0.057 C  
HETATM   22  N   UNL     1      -5.661   7.252  68.371  1.00  0.00    -0.022 NA 
HETATM   23  N   UNL     1      -6.911   5.318  68.253  1.00  0.00    -0.055 N  
HETATM   24  H2  UNL     1      -5.466   8.180  68.745  1.00  0.00     0.000 HD 
HETATM   25  H1  UNL     1      -5.097   6.812  67.644  1.00  0.00     0.000 HD 
HETATM   26  H   UNL     1      -6.284   4.969  67.528  1.00  0.00     0.000 HD 
HETATM   27  C   UNL     1      -8.003   4.545  68.665  1.00  0.00    -0.078 C  
HETATM   28  O   UNL     1      -8.239   3.438  68.197  1.00  0.00    -0.077 OA 
ENDBRANCH  14  15
ENDBRANCH  13  14
ENDBRANCH  12  13
BRANCH  12  29
HETATM   29  C   UNL     1     -13.242   8.182  72.074  1.00  0.00    -0.283 C  
HETATM   30  O   UNL     1     -14.175   9.001  72.781  1.00  0.00    -0.933 OA 
HETATM   31  H   UNL     1     -15.020   8.569  72.804  1.00  0.00     0.000 HD 
ENDBRANCH  12  29
ENDBRANCH  11  12
ENDBRANCH  10  11
ENDBRANCH   8  10
ENDBRANCH   4   8
TORSDOF 8
ENDMDL
MODEL      332
REMARK 921   NORMALIZED FREE ENERGY PREDICTED BY IDOCK:   -3.44 KCAL/MOL
REMARK 922        TOTAL FREE ENERGY PREDICTED BY IDOCK:   -6.26 KCAL/MOL
REMARK 923 INTER-LIGAND FREE ENERGY PREDICTED BY IDOCK:   -5.14 KCAL/MOL
REMARK 924 INTRA-LIGAND FREE ENERGY PREDICTED BY IDOCK:   -1.12 KCAL/MOL
REMARK 927      BINDING AFFINITY PREDICTED BY RF-SCORE:    0.00 PKD
ROOT
HETATM    1  C   UNL     1      -8.048   4.677  72.214  1.00  0.00    -0.102 C  
HETATM    2  C   UNL     1      -9.338   4.169  71.558  1.00  0.00    -0.207 C  
HETATM    3  C   UNL     1      -9.163   2.706  71.136  1.00  0.00    -0.196 C  
HETATM    4  C   UNL     1      -9.811   5.057  70.380  1.00  0.00    -0.230 C  
HETATM    5  N   UNL     1      -8.793   5.142  69.308  1.00  0.00    -0.095 NA 
HETATM    6  H1  UNL     1      -9.105   5.726  68.533  1.00  0.00     0.000 HD 
HETATM    7  H2  UNL     1      -8.516   4.215  68.985  1.00  0.00     0.000 HD 
ENDROOT
BRANCH   4   8
HETATM    8  C   UNL     1     -10.222   6.459  70.874  1.00  0.00    -0.189 C  
HETATM    9  O   UNL     1     -11.180   6.685  71.604  1.00  0.00    -0.244 OA 
BRANCH   8  10
HETATM   10  O   UNL     1      -9.427   7.434  70.340  1.00  0.00    -0.165 OA 
BRANCH  10  11
HETATM   11  C   UNL     1     -10.097   8.631  69.904  1.00  0.00    -0.194 C  
BRANCH  11  12
HETATM   12  C   UNL     1      -9.620   9.014  68.493  1.00  0.00    -0.153 C  
BRANCH  12  13
HETATM   13  O   UNL     1      -9.774  10.422  68.205  1.00  0.00    -0.148 OA 
BRANCH  13  14
HETATM   14  C   UNL     1      -8.843  11.242  68.910  1.00  0.00    -0.047 C  
BRANCH  14  15
HETATM   15  N   UNL     1      -8.779  12.539  68.274  1.00  0.00    -0.185 NA 
HETATM   16  C   UNL     1      -7.816  12.930  67.375  1.00  0.00    -0.170 A  
HETATM   17  N   UNL     1      -8.074  14.116  66.855  1.00  0.00    -0.008 NA 
HETATM   18  C   UNL     1      -9.258  14.507  67.439  1.00  0.00    -0.200 A  
HETATM   19  C   UNL     1      -9.688  13.540  68.313  1.00  0.00    -0.224 A  
HETATM   20  N   UNL     1     -10.828  13.657  69.005  1.00  0.00    -0.235 NA 
HETATM   21  C   UNL     1     -11.572  14.789  68.779  1.00  0.00    -0.320 C  
HETATM   22  N   UNL     1     -12.742  14.810  69.463  1.00  0.00    -0.570 NA 
HETATM   23  N   UNL     1     -11.262  15.765  67.976  1.00  0.00    -0.349 N  
HETATM   24  H2  UNL     1     -13.041  14.058  70.084  1.00  0.00     0.000 HD 
HETATM   25  H1  UNL     1     -13.295  15.651  69.296  1.00  0.00     0.000 HD 
HETATM   26  H   UNL     1     -11.888  16.564  67.881  1.00  0.00     0.000 HD 
HETATM   27  C   UNL     1     -10.070  15.720  67.243  1.00  0.00    -0.247 C  
HETATM   28  O   UNL     1      -9.729  16.620  66.485  1.00  0.00    -0.247 OA 
ENDBRANCH  14  15
ENDBRANCH  13  14
ENDBRANCH  12  13
BRANCH  12  29
HETATM   29  C   UNL     1     -10.417   8.237  67.434  1.00  0.00    -0.283 C  
HETATM   30  O   UNL     1      -9.907   6.905  67.338  1.00  0.00    -0.131 OA 
HETATM   31  H   UNL     1     -10.399   6.425  66.683  1.00  0.00     0.000 HD 
ENDBRANCH  12  29
ENDBRANCH  11  12
ENDBRANCH  10  11
ENDBRANCH   8  10
ENDBRANCH   4   8
TORSDOF 8
ENDMDL
MODEL      333
REMARK 921   NORMALIZED FREE ENERGY PREDICTED BY IDOCK:   -3.43 KCAL/MOL
REMARK 922        TOTAL FREE ENERGY PREDICTED BY IDOCK:   -6.25 KCAL/MOL
REMARK 923 INTER-LIGAND FREE ENERGY PREDICTED BY IDOCK:   -5.29 KCAL/MOL
REMARK 924 INTRA-LIGAND FREE ENERGY PREDICTED BY IDOCK:   -0.96 KCAL/MOL
REMARK 927      BINDING AFFINITY PREDICTED BY RF-SCORE:    0.00 PKD
ROOT
HETATM    1  C   UNL     1     -12.479  14.702  64.324  1.00  0.00    -0.267 C  
HETATM    2  C   UNL     1     -11.351  14.608  65.359  1.00  0.00    -0.344 C  
HETATM    3  C   UNL     1     -10.471  15.859  65.282  1.00  0.00    -0.403 C  
HETATM    4  C   UNL     1     -10.518  13.307  65.233  1.00  0.00    -0.313 C  
HETATM    5  N   UNL     1      -9.885  13.183  63.901  1.00  0.00    -0.677 NA 
HETATM    6  H1  UNL     1      -9.337  12.327  63.819  1.00  0.00     0.000 HD 
HETATM    7  H2  UNL     1      -9.324  14.005  63.679  1.00  0.00     0.000 HD 
ENDROOT
BRANCH   4   8
HETATM    8  C   UNL     1     -11.375  12.067  65.564  1.00  0.00    -0.328 C  
HETATM    9  O   UNL     1     -11.548  11.121  64.806  1.00  0.00     0.090 OA 
BRANCH   8  10
HETATM   10  O   UNL     1     -11.980  12.185  66.784  1.00  0.00    -0.606 OA 
BRANCH  10  11
HETATM   11  C   UNL     1     -11.692  11.148  67.738  1.00  0.00    -0.139 C  
BRANCH  11  12
HETATM   12  C   UNL     1     -10.700  11.665  68.792  1.00  0.00    -0.219 C  
BRANCH  12  13
HETATM   13  O   UNL     1      -9.838  10.629  69.318  1.00  0.00    -0.218 OA 
BRANCH  13  14
HETATM   14  C   UNL     1      -9.613   9.567  68.393  1.00  0.00    -0.142 C  
BRANCH  14  15
HETATM   15  N   UNL     1      -9.517   8.321  69.120  1.00  0.00    -0.155 NA 
HETATM   16  C   UNL     1      -9.708   8.180  70.474  1.00  0.00    -0.174 A  
HETATM   17  N   UNL     1      -9.689   6.915  70.850  1.00  0.00    -0.178 NA 
HETATM   18  C   UNL     1      -9.481   6.205  69.688  1.00  0.00    -0.145 A  
HETATM   19  C   UNL     1      -9.372   7.069  68.627  1.00  0.00    -0.136 A  
HETATM   20  N   UNL     1      -9.185   6.642  67.374  1.00  0.00    -0.121 NA 
HETATM   21  C   UNL     1      -9.133   5.282  67.187  1.00  0.00    -0.112 C  
HETATM   22  N   UNL     1      -9.007   4.920  65.887  1.00  0.00    -0.129 NA 
HETATM   23  N   UNL     1      -9.226   4.375  68.116  1.00  0.00    -0.128 N  
HETATM   24  H2  UNL     1      -8.957   5.592  65.121  1.00  0.00     0.000 HD 
HETATM   25  H1  UNL     1      -8.968   3.910  65.748  1.00  0.00     0.000 HD 
HETATM   26  H   UNL     1      -9.175   3.387  67.869  1.00  0.00     0.000 HD 
HETATM   27  C   UNL     1      -9.394   4.754  69.453  1.00  0.00    -0.134 C  
HETATM   28  O   UNL     1      -9.473   3.938  70.364  1.00  0.00    -0.149 OA 
ENDBRANCH  14  15
ENDBRANCH  13  14
ENDBRANCH  12  13
BRANCH  12  29
HETATM   29  C   UNL     1     -11.457  12.281  69.978  1.00  0.00    -0.053 C  
HETATM   30  O   UNL     1     -12.512  13.112  69.488  1.00  0.00    -0.109 OA 
HETATM   31  H   UNL     1     -12.980  13.493  70.222  1.00  0.00     0.000 HD 
ENDBRANCH  12  29
ENDBRANCH  11  12
ENDBRANCH  10  11
ENDBRANCH   8  10
ENDBRANCH   4   8
TORSDOF 8
ENDMDL
MODEL      334
REMARK 921   NORMALIZED FREE ENERGY PREDICTED BY IDOCK:   -3.40 KCAL/MOL
REMARK 922        TOTAL FREE ENERGY PREDICTED BY IDOCK:   -6.21 KCAL/MOL
REMARK 923 INTER-LIGAND FREE ENERGY PREDICTED BY IDOCK:   -5.52 KCAL/MOL
REMARK 924 INTRA-LIGAND FREE ENERGY PREDICTED BY IDOCK:   -0.69 KCAL/MOL
REMARK 927      BINDING AFFINITY PREDICTED BY RF-SCORE:    0.00 PKD
ROOT
HETATM    1  C   UNL     1      -7.502   6.889  63.235  1.00  0.00    -0.087 C  
HETATM    2  C   UNL     1      -7.927   8.227  63.852  1.00  0.00    -0.146 C  
HETATM    3  C   UNL     1      -7.117   9.367  63.227  1.00  0.00    -0.095 C  
HETATM    4  C   UNL     1      -7.840   8.238  65.399  1.00  0.00    -0.113 C  
HETATM    5  N   UNL     1      -6.466   7.966  65.877  1.00  0.00    -0.042 NA 
HETATM    6  H1  UNL     1      -6.409   7.974  66.895  1.00  0.00     0.000 HD 
HETATM    7  H2  UNL     1      -5.795   8.614  65.464  1.00  0.00     0.000 HD 
ENDROOT
BRANCH   4   8
HETATM    8  C   UNL     1      -8.853   7.252  66.017  1.00  0.00    -0.136 C  
HETATM    9  O   UNL     1      -8.980   6.082  65.675  1.00  0.00    -0.144 OA 
BRANCH   8  10
HETATM   10  O   UNL     1      -9.647   7.863  66.947  1.00  0.00    -0.174 OA 
BRANCH  10  11
HETATM   11  C   UNL     1     -10.181   9.148  66.579  1.00  0.00    -0.252 C  
BRANCH  11  12
HETATM   12  C   UNL     1     -10.763   9.847  67.819  1.00  0.00    -0.277 C  
BRANCH  12  13
HETATM   13  O   UNL     1     -11.663  10.930  67.489  1.00  0.00    -0.543 OA 
BRANCH  13  14
HETATM   14  C   UNL     1     -11.392  11.514  66.216  1.00  0.00    -0.153 C  
BRANCH  14  15
HETATM   15  N   UNL     1     -11.105  12.920  66.393  1.00  0.00    -0.278 NA 
HETATM   16  C   UNL     1     -12.051  13.915  66.466  1.00  0.00    -0.449 A  
HETATM   17  N   UNL     1     -11.518  15.086  66.760  1.00  0.00    -0.300 NA 
HETATM   18  C   UNL     1     -10.169  14.838  66.887  1.00  0.00    -0.257 A  
HETATM   19  C   UNL     1      -9.916  13.508  66.658  1.00  0.00    -0.282 A  
HETATM   20  N   UNL     1      -8.685  12.991  66.736  1.00  0.00    -0.151 NA 
HETATM   21  C   UNL     1      -7.675  13.853  67.087  1.00  0.00     0.029 C  
HETATM   22  N   UNL     1      -6.468  13.248  67.210  1.00  0.00    -0.455 NA 
HETATM   23  N   UNL     1      -7.800  15.125  67.326  1.00  0.00    -0.198 N  
HETATM   24  H2  UNL     1      -6.324  12.250  67.058  1.00  0.00     0.000 HD 
HETATM   25  H1  UNL     1      -5.717  13.888  67.470  1.00  0.00     0.000 HD 
HETATM   26  H   UNL     1      -6.982  15.678  67.581  1.00  0.00     0.000 HD 
HETATM   27  C   UNL     1      -9.056  15.738  67.235  1.00  0.00    -0.207 C  
HETATM   28  O   UNL     1      -9.222  16.934  67.438  1.00  0.00    -0.219 OA 
ENDBRANCH  14  15
ENDBRANCH  13  14
ENDBRANCH  12  13
BRANCH  12  29
HETATM   29  C   UNL     1      -9.633  10.432  68.679  1.00  0.00    -0.166 C  
HETATM   30  O   UNL     1     -10.133  11.540  69.430  1.00  0.00    -0.422 OA 
HETATM   31  H   UNL     1      -9.434  11.902  69.961  1.00  0.00     0.000 HD 
ENDBRANCH  12  29
ENDBRANCH  11  12
ENDBRANCH  10  11
ENDBRANCH   8  10
ENDBRANCH   4   8
TORSDOF 8
ENDMDL
MODEL      335
REMARK 921   NORMALIZED FREE ENERGY PREDICTED BY IDOCK:   -3.40 KCAL/MOL
REMARK 922        TOTAL FREE ENERGY PREDICTED BY IDOCK:   -6.21 KCAL/MOL
REMARK 923 INTER-LIGAND FREE ENERGY PREDICTED BY IDOCK:   -5.42 KCAL/MOL
REMARK 924 INTRA-LIGAND FREE ENERGY PREDICTED BY IDOCK:   -0.79 KCAL/MOL
REMARK 927      BINDING AFFINITY PREDICTED BY RF-SCORE:    0.00 PKD
ROOT
HETATM    1  C   UNL     1     -11.601  14.955  73.514  1.00  0.00     0.065 C  
HETATM    2  C   UNL     1     -11.840  14.942  72.000  1.00  0.00    -0.404 C  
HETATM    3  C   UNL     1     -11.543  16.327  71.416  1.00  0.00    -0.424 C  
HETATM    4  C   UNL     1     -13.255  14.443  71.611  1.00  0.00    -0.350 C  
HETATM    5  N   UNL     1     -14.319  15.285  72.203  1.00  0.00    -0.562 NA 
HETATM    6  H1  UNL     1     -15.250  14.957  71.947  1.00  0.00     0.000 HD 
HETATM    7  H2  UNL     1     -14.193  16.267  71.960  1.00  0.00     0.000 HD 
ENDROOT
BRANCH   4   8
HETATM    8  C   UNL     1     -13.441  12.959  71.988  1.00  0.00    -0.473 C  
HETATM    9  O   UNL     1     -14.383  12.520  72.636  1.00  0.00    -0.096 OA 
BRANCH   8  10
HETATM   10  O   UNL     1     -12.384  12.198  71.572  1.00  0.00    -0.112 OA 
BRANCH  10  11
HETATM   11  C   UNL     1     -12.515  11.584  70.277  1.00  0.00    -0.205 C  
BRANCH  11  12
HETATM   12  C   UNL     1     -11.158  11.022  69.824  1.00  0.00    -0.235 C  
BRANCH  12  13
HETATM   13  O   UNL     1     -10.914  11.198  68.410  1.00  0.00    -0.194 OA 
BRANCH  13  14
HETATM   14  C   UNL     1     -10.503   9.997  67.760  1.00  0.00    -0.234 C  
BRANCH  14  15
HETATM   15  N   UNL     1      -9.953  10.325  66.463  1.00  0.00    -0.215 NA 
HETATM   16  C   UNL     1     -10.059  11.551  65.849  1.00  0.00    -0.231 A  
HETATM   17  N   UNL     1      -9.355  11.610  64.734  1.00  0.00    -0.061 NA 
HETATM   18  C   UNL     1      -8.763  10.371  64.624  1.00  0.00    -0.187 A  
HETATM   19  C   UNL     1      -9.134   9.582  65.684  1.00  0.00    -0.201 A  
HETATM   20  N   UNL     1      -8.687   8.330  65.835  1.00  0.00    -0.152 NA 
HETATM   21  C   UNL     1      -7.806   7.872  64.886  1.00  0.00    -0.126 C  
HETATM   22  N   UNL     1      -7.344   6.622  65.137  1.00  0.00    -0.077 NA 
HETATM   23  N   UNL     1      -7.387   8.531  63.845  1.00  0.00    -0.100 N  
HETATM   24  H2  UNL     1      -7.623   6.076  65.952  1.00  0.00     0.000 HD 
HETATM   25  H1  UNL     1      -6.691   6.281  64.432  1.00  0.00     0.000 HD 
HETATM   26  H   UNL     1      -6.729   8.096  63.199  1.00  0.00     0.000 HD 
HETATM   27  C   UNL     1      -7.838   9.836  63.612  1.00  0.00    -0.142 C  
HETATM   28  O   UNL     1      -7.482  10.491  62.639  1.00  0.00    -0.142 OA 
ENDBRANCH  14  15
ENDBRANCH  13  14
ENDBRANCH  12  13
BRANCH  12  29
HETATM   29  C   UNL     1     -11.080   9.517  70.121  1.00  0.00    -0.255 C  
HETATM   30  O   UNL     1     -11.566   9.268  71.442  1.00  0.00    -0.310 OA 
HETATM   31  H   UNL     1     -11.518   8.337  71.625  1.00  0.00     0.000 HD 
ENDBRANCH  12  29
ENDBRANCH  11  12
ENDBRANCH  10  11
ENDBRANCH   8  10
ENDBRANCH   4   8
TORSDOF 8
ENDMDL
MODEL      336
REMARK 921   NORMALIZED FREE ENERGY PREDICTED BY IDOCK:   -3.39 KCAL/MOL
REMARK 922        TOTAL FREE ENERGY PREDICTED BY IDOCK:   -6.19 KCAL/MOL
REMARK 923 INTER-LIGAND FREE ENERGY PREDICTED BY IDOCK:   -5.87 KCAL/MOL
REMARK 924 INTRA-LIGAND FREE ENERGY PREDICTED BY IDOCK:   -0.32 KCAL/MOL
REMARK 927      BINDING AFFINITY PREDICTED BY RF-SCORE:    0.00 PKD
ROOT
HETATM    1  C   UNL     1      -8.095   6.442  62.428  1.00  0.00    -0.097 C  
HETATM    2  C   UNL     1      -7.856   7.542  63.470  1.00  0.00    -0.112 C  
HETATM    3  C   UNL     1      -6.900   8.596  62.901  1.00  0.00    -0.090 C  
HETATM    4  C   UNL     1      -7.363   6.993  64.832  1.00  0.00    -0.084 C  
HETATM    5  N   UNL     1      -6.091   6.247  64.700  1.00  0.00    -0.029 NA 
HETATM    6  H1  UNL     1      -5.768   5.886  65.597  1.00  0.00     0.000 HD 
HETATM    7  H2  UNL     1      -5.374   6.815  64.249  1.00  0.00     0.000 HD 
ENDROOT
BRANCH   4   8
HETATM    8  C   UNL     1      -8.451   6.130  65.506  1.00  0.00    -0.149 C  
HETATM    9  O   UNL     1      -8.969   5.144  64.996  1.00  0.00    -0.156 OA 
BRANCH   8  10
HETATM   10  O   UNL     1      -8.820   6.643  66.718  1.00  0.00    -0.122 OA 
BRANCH  10  11
HETATM   11  C   UNL     1      -9.226   8.024  66.725  1.00  0.00    -0.165 C  
BRANCH  11  12
HETATM   12  C   UNL     1      -8.927   8.650  68.097  1.00  0.00    -0.141 C  
BRANCH  12  13
HETATM   13  O   UNL     1     -10.120   9.030  68.820  1.00  0.00    -0.186 OA 
BRANCH  13  14
HETATM   14  C   UNL     1     -11.011   9.833  68.047  1.00  0.00    -0.180 C  
BRANCH  14  15
HETATM   15  N   UNL     1     -11.320  11.039  68.782  1.00  0.00    -0.258 NA 
HETATM   16  C   UNL     1     -11.126  12.318  68.317  1.00  0.00    -0.240 A  
HETATM   17  N   UNL     1     -11.616  13.225  69.142  1.00  0.00    -0.299 NA 
HETATM   18  C   UNL     1     -12.153  12.502  70.183  1.00  0.00    -0.292 A  
HETATM   19  C   UNL     1     -11.968  11.160  69.964  1.00  0.00    -0.367 A  
HETATM   20  N   UNL     1     -12.412  10.228  70.814  1.00  0.00    -0.329 NA 
HETATM   21  C   UNL     1     -13.094  10.676  71.919  1.00  0.00    -0.458 C  
HETATM   22  N   UNL     1     -13.571   9.677  72.701  1.00  0.00    -0.667 NA 
HETATM   23  N   UNL     1     -13.328  11.920  72.224  1.00  0.00    -0.548 N  
HETATM   24  H2  UNL     1     -13.436   8.689  72.490  1.00  0.00     0.000 HD 
HETATM   25  H1  UNL     1     -14.078  10.010  73.521  1.00  0.00     0.000 HD 
HETATM   26  H   UNL     1     -13.849  12.146  73.072  1.00  0.00     0.000 HD 
HETATM   27  C   UNL     1     -12.867  12.947  71.392  1.00  0.00    -0.283 C  
HETATM   28  O   UNL     1     -13.051  14.131  71.645  1.00  0.00    -0.318 OA 
ENDBRANCH  14  15
ENDBRANCH  13  14
ENDBRANCH  12  13
BRANCH  12  29
HETATM   29  C   UNL     1      -8.068   9.913  67.929  1.00  0.00    -0.109 C  
HETATM   30  O   UNL     1      -8.198  10.734  69.092  1.00  0.00    -0.188 OA 
HETATM   31  H   UNL     1      -7.668  11.515  68.988  1.00  0.00     0.000 HD 
ENDBRANCH  12  29
ENDBRANCH  11  12
ENDBRANCH  10  11
ENDBRANCH   8  10
ENDBRANCH   4   8
TORSDOF 8
ENDMDL
MODEL      337
REMARK 921   NORMALIZED FREE ENERGY PREDICTED BY IDOCK:   -3.38 KCAL/MOL
REMARK 922        TOTAL FREE ENERGY PREDICTED BY IDOCK:   -6.18 KCAL/MOL
REMARK 923 INTER-LIGAND FREE ENERGY PREDICTED BY IDOCK:   -6.41 KCAL/MOL
REMARK 924 INTRA-LIGAND FREE ENERGY PREDICTED BY IDOCK:    0.24 KCAL/MOL
REMARK 927      BINDING AFFINITY PREDICTED BY RF-SCORE:    0.00 PKD
ROOT
HETATM    1  C   UNL     1      -7.782  19.515  67.026  1.00  0.00    -0.278 C  
HETATM    2  C   UNL     1      -8.904  18.575  67.482  1.00  0.00    -0.276 C  
HETATM    3  C   UNL     1      -9.668  19.207  68.650  1.00  0.00    -0.478 C  
HETATM    4  C   UNL     1      -8.401  17.150  67.825  1.00  0.00    -0.202 C  
HETATM    5  N   UNL     1      -7.392  17.166  68.908  1.00  0.00    -0.242 NA 
HETATM    6  H1  UNL     1      -7.061  16.228  69.134  1.00  0.00     0.000 HD 
HETATM    7  H2  UNL     1      -7.746  17.643  69.737  1.00  0.00     0.000 HD 
ENDROOT
BRANCH   4   8
HETATM    8  C   UNL     1      -7.862  16.436  66.568  1.00  0.00    -0.288 C  
HETATM    9  O   UNL     1      -6.686  16.142  66.388  1.00  0.00    -0.086 OA 
BRANCH   8  10
HETATM   10  O   UNL     1      -8.847  16.234  65.643  1.00  0.00    -0.374 OA 
BRANCH  10  11
HETATM   11  C   UNL     1     -10.101  16.892  65.898  1.00  0.00    -0.283 C  
BRANCH  11  12
HETATM   12  C   UNL     1     -11.265  15.930  65.609  1.00  0.00     0.003 C  
BRANCH  12  13
HETATM   13  O   UNL     1     -11.038  14.595  66.115  1.00  0.00    -0.323 OA 
BRANCH  13  14
HETATM   14  C   UNL     1     -11.662  14.362  67.376  1.00  0.00    -0.397 C  
BRANCH  14  15
HETATM   15  N   UNL     1     -11.069  13.194  67.988  1.00  0.00    -0.252 NA 
HETATM   16  C   UNL     1     -11.771  12.148  68.540  1.00  0.00    -0.330 A  
HETATM   17  N   UNL     1     -10.981  11.158  68.909  1.00  0.00    -0.208 NA 
HETATM   18  C   UNL     1      -9.711  11.578  68.577  1.00  0.00    -0.189 A  
HETATM   19  C   UNL     1      -9.766  12.829  68.016  1.00  0.00    -0.220 A  
HETATM   20  N   UNL     1      -8.672  13.468  67.585  1.00  0.00    -0.181 NA 
HETATM   21  C   UNL     1      -7.480  12.797  67.704  1.00  0.00    -0.144 C  
HETATM   22  N   UNL     1      -6.425  13.476  67.189  1.00  0.00    -0.432 NA 
HETATM   23  N   UNL     1      -7.312  11.613  68.217  1.00  0.00    -0.087 N  
HETATM   24  H2  UNL     1      -6.510  14.394  66.754  1.00  0.00     0.000 HD 
HETATM   25  H1  UNL     1      -5.539  12.978  67.278  1.00  0.00     0.000 HD 
HETATM   26  H   UNL     1      -6.379  11.203  68.258  1.00  0.00     0.000 HD 
HETATM   27  C   UNL     1      -8.411  10.900  68.713  1.00  0.00    -0.151 C  
HETATM   28  O   UNL     1      -8.302   9.789  69.217  1.00  0.00    -0.120 OA 
ENDBRANCH  14  15
ENDBRANCH  13  14
ENDBRANCH  12  13
BRANCH  12  29
HETATM   29  C   UNL     1     -11.496  15.815  64.094  1.00  0.00    -0.072 C  
HETATM   30  O   UNL     1     -11.916  14.486  63.778  1.00  0.00    -0.804 OA 
HETATM   31  H   UNL     1     -12.058  14.415  62.841  1.00  0.00     0.000 HD 
ENDBRANCH  12  29
ENDBRANCH  11  12
ENDBRANCH  10  11
ENDBRANCH   8  10
ENDBRANCH   4   8
TORSDOF 8
ENDMDL
MODEL      338
REMARK 921   NORMALIZED FREE ENERGY PREDICTED BY IDOCK:   -3.37 KCAL/MOL
REMARK 922        TOTAL FREE ENERGY PREDICTED BY IDOCK:   -6.17 KCAL/MOL
REMARK 923 INTER-LIGAND FREE ENERGY PREDICTED BY IDOCK:   -5.68 KCAL/MOL
REMARK 924 INTRA-LIGAND FREE ENERGY PREDICTED BY IDOCK:   -0.49 KCAL/MOL
REMARK 927      BINDING AFFINITY PREDICTED BY RF-SCORE:    0.00 PKD
ROOT
HETATM    1  C   UNL     1      -8.306   8.510  67.584  1.00  0.00    -0.129 C  
HETATM    2  C   UNL     1      -9.155   9.771  67.385  1.00  0.00    -0.148 C  
HETATM    3  C   UNL     1      -8.543  10.639  66.280  1.00  0.00    -0.156 C  
HETATM    4  C   UNL     1      -9.371  10.571  68.694  1.00  0.00    -0.172 C  
HETATM    5  N   UNL     1      -8.090  11.010  69.291  1.00  0.00    -0.359 NA 
HETATM    6  H1  UNL     1      -8.233  11.537  70.153  1.00  0.00     0.000 HD 
HETATM    7  H2  UNL     1      -7.531  11.539  68.623  1.00  0.00     0.000 HD 
ENDROOT
BRANCH   4   8
HETATM    8  C   UNL     1     -10.212   9.763  69.704  1.00  0.00    -0.233 C  
HETATM    9  O   UNL     1     -11.387   9.990  69.968  1.00  0.00    -0.253 OA 
BRANCH   8  10
HETATM   10  O   UNL     1      -9.465   8.803  70.326  1.00  0.00    -0.160 OA 
BRANCH  10  11
HETATM   11  C   UNL     1      -9.582   8.736  71.759  1.00  0.00    -0.301 C  
BRANCH  11  12
HETATM   12  C   UNL     1      -9.700   7.270  72.207  1.00  0.00    -0.149 C  
BRANCH  12  13
HETATM   13  O   UNL     1     -10.684   6.523  71.455  1.00  0.00    -0.225 OA 
BRANCH  13  14
HETATM   14  C   UNL     1     -10.638   5.121  71.713  1.00  0.00    -0.168 C  
BRANCH  14  15
HETATM   15  N   UNL     1     -10.010   4.455  70.594  1.00  0.00    -0.208 NA 
HETATM   16  C   UNL     1      -9.283   3.291  70.674  1.00  0.00    -0.137 A  
HETATM   17  N   UNL     1      -8.936   2.838  69.484  1.00  0.00    -0.095 NA 
HETATM   18  C   UNL     1      -9.465   3.746  68.593  1.00  0.00    -0.147 A  
HETATM   19  C   UNL     1     -10.121   4.741  69.276  1.00  0.00    -0.147 A  
HETATM   20  N   UNL     1     -10.745   5.745  68.651  1.00  0.00    -0.248 NA 
HETATM   21  C   UNL     1     -10.724   5.724  67.278  1.00  0.00    -0.261 C  
HETATM   22  N   UNL     1     -11.430   6.734  66.712  1.00  0.00    -0.653 NA 
HETATM   23  N   UNL     1     -10.137   4.834  66.532  1.00  0.00    -0.236 N  
HETATM   24  H2  UNL     1     -11.928   7.440  67.254  1.00  0.00     0.000 HD 
HETATM   25  H1  UNL     1     -11.415   6.719  65.692  1.00  0.00     0.000 HD 
HETATM   26  H   UNL     1     -10.183   4.911  65.516  1.00  0.00     0.000 HD 
HETATM   27  C   UNL     1      -9.442   3.771  67.121  1.00  0.00    -0.202 C  
HETATM   28  O   UNL     1      -8.862   2.917  66.462  1.00  0.00    -0.131 OA 
ENDBRANCH  14  15
ENDBRANCH  13  14
ENDBRANCH  12  13
BRANCH  12  29
HETATM   29  C   UNL     1     -10.099   7.197  73.689  1.00  0.00    -0.346 C  
HETATM   30  O   UNL     1      -9.097   7.837  74.482  1.00  0.00    -0.419 OA 
HETATM   31  H   UNL     1      -9.344   7.792  75.398  1.00  0.00     0.000 HD 
ENDBRANCH  12  29
ENDBRANCH  11  12
ENDBRANCH  10  11
ENDBRANCH   8  10
ENDBRANCH   4   8
TORSDOF 8
ENDMDL
MODEL      339
REMARK 921   NORMALIZED FREE ENERGY PREDICTED BY IDOCK:   -3.37 KCAL/MOL
REMARK 922        TOTAL FREE ENERGY PREDICTED BY IDOCK:   -6.17 KCAL/MOL
REMARK 923 INTER-LIGAND FREE ENERGY PREDICTED BY IDOCK:   -4.96 KCAL/MOL
REMARK 924 INTRA-LIGAND FREE ENERGY PREDICTED BY IDOCK:   -1.21 KCAL/MOL
REMARK 927      BINDING AFFINITY PREDICTED BY RF-SCORE:    0.00 PKD
ROOT
HETATM    1  C   UNL     1      -5.551  11.730  68.830  1.00  0.00    -0.049 C  
HETATM    2  C   UNL     1      -6.513  12.136  67.706  1.00  0.00    -0.095 C  
HETATM    3  C   UNL     1      -7.403  13.291  68.178  1.00  0.00    -0.120 C  
HETATM    4  C   UNL     1      -7.348  10.949  67.163  1.00  0.00    -0.105 C  
HETATM    5  N   UNL     1      -8.170  10.320  68.221  1.00  0.00    -0.113 NA 
HETATM    6  H1  UNL     1      -8.719   9.539  67.863  1.00  0.00     0.000 HD 
HETATM    7  H2  UNL     1      -8.763  11.007  68.687  1.00  0.00     0.000 HD 
ENDROOT
BRANCH   4   8
HETATM    8  C   UNL     1      -6.444   9.911  66.465  1.00  0.00    -0.071 C  
HETATM    9  O   UNL     1      -5.352   9.548  66.885  1.00  0.00    -0.044 OA 
BRANCH   8  10
HETATM   10  O   UNL     1      -6.979   9.496  65.278  1.00  0.00    -0.085 OA 
BRANCH  10  11
HETATM   11  C   UNL     1      -6.889  10.426  64.183  1.00  0.00     0.017 C  
BRANCH  11  12
HETATM   12  C   UNL     1      -8.202  10.422  63.383  1.00  0.00    -0.142 C  
BRANCH  12  13
HETATM   13  O   UNL     1      -8.914  11.679  63.453  1.00  0.00     0.016 OA 
BRANCH  13  14
HETATM   14  C   UNL     1     -10.283  11.526  63.822  1.00  0.00    -0.382 C  
BRANCH  14  15
HETATM   15  N   UNL     1     -10.592  12.453  64.887  1.00  0.00    -0.284 NA 
HETATM   16  C   UNL     1     -10.764  13.808  64.730  1.00  0.00    -0.416 A  
HETATM   17  N   UNL     1     -11.166  14.391  65.844  1.00  0.00    -0.318 NA 
HETATM   18  C   UNL     1     -11.264  13.368  66.762  1.00  0.00    -0.310 A  
HETATM   19  C   UNL     1     -10.907  12.180  66.175  1.00  0.00    -0.282 A  
HETATM   20  N   UNL     1     -10.930  11.019  66.839  1.00  0.00    -0.272 NA 
HETATM   21  C   UNL     1     -11.357  11.064  68.144  1.00  0.00    -0.307 C  
HETATM   22  N   UNL     1     -11.418   9.845  68.734  1.00  0.00    -0.491 NA 
HETATM   23  N   UNL     1     -11.718  12.130  68.797  1.00  0.00    -0.306 N  
HETATM   24  H2  UNL     1     -11.170   8.979  68.256  1.00  0.00     0.000 HD 
HETATM   25  H1  UNL     1     -11.734   9.878  69.703  1.00  0.00     0.000 HD 
HETATM   26  H   UNL     1     -12.021  12.053  69.768  1.00  0.00     0.000 HD 
HETATM   27  C   UNL     1     -11.691  13.382  68.170  1.00  0.00    -0.362 C  
HETATM   28  O   UNL     1     -12.008  14.414  68.748  1.00  0.00    -0.319 OA 
ENDBRANCH  14  15
ENDBRANCH  13  14
ENDBRANCH  12  13
BRANCH  12  29
HETATM   29  C   UNL     1      -9.144   9.329  63.913  1.00  0.00     0.059 C  
HETATM   30  O   UNL     1      -8.979   8.143  63.134  1.00  0.00    -0.177 OA 
HETATM   31  H   UNL     1      -9.562   7.467  63.461  1.00  0.00     0.000 HD 
ENDBRANCH  12  29
ENDBRANCH  11  12
ENDBRANCH  10  11
ENDBRANCH   8  10
ENDBRANCH   4   8
TORSDOF 8
ENDMDL
MODEL      340
REMARK 921   NORMALIZED FREE ENERGY PREDICTED BY IDOCK:   -3.37 KCAL/MOL
REMARK 922        TOTAL FREE ENERGY PREDICTED BY IDOCK:   -6.16 KCAL/MOL
REMARK 923 INTER-LIGAND FREE ENERGY PREDICTED BY IDOCK:   -5.61 KCAL/MOL
REMARK 924 INTRA-LIGAND FREE ENERGY PREDICTED BY IDOCK:   -0.56 KCAL/MOL
REMARK 927      BINDING AFFINITY PREDICTED BY RF-SCORE:    0.00 PKD
ROOT
HETATM    1  C   UNL     1     -11.262  16.318  68.921  1.00  0.00    -0.337 C  
HETATM    2  C   UNL     1     -10.391  15.259  68.235  1.00  0.00    -0.234 C  
HETATM    3  C   UNL     1      -9.668  15.879  67.035  1.00  0.00    -0.235 C  
HETATM    4  C   UNL     1     -11.182  13.986  67.838  1.00  0.00    -0.273 C  
HETATM    5  N   UNL     1     -12.291  14.293  66.908  1.00  0.00    -0.571 NA 
HETATM    6  H1  UNL     1     -12.811  13.456  66.647  1.00  0.00     0.000 HD 
HETATM    7  H2  UNL     1     -11.957  14.793  66.084  1.00  0.00     0.000 HD 
ENDROOT
BRANCH   4   8
HETATM    8  C   UNL     1     -11.690  13.238  69.088  1.00  0.00    -0.329 C  
HETATM    9  O   UNL     1     -12.604  13.626  69.805  1.00  0.00    -0.201 OA 
BRANCH   8  10
HETATM   10  O   UNL     1     -10.945  12.121  69.343  1.00  0.00    -0.167 OA 
BRANCH  10  11
HETATM   11  C   UNL     1     -11.675  10.889  69.479  1.00  0.00    -0.328 C  
BRANCH  11  12
HETATM   12  C   UNL     1     -10.770   9.809  70.096  1.00  0.00    -0.289 C  
BRANCH  12  13
HETATM   13  O   UNL     1     -10.095   9.001  69.105  1.00  0.00    -0.184 OA 
BRANCH  13  14
HETATM   14  C   UNL     1     -10.348   9.428  67.768  1.00  0.00    -0.238 C  
BRANCH  14  15
HETATM   15  N   UNL     1      -9.087   9.652  67.096  1.00  0.00    -0.134 NA 
HETATM   16  C   UNL     1      -8.716   9.079  65.902  1.00  0.00    -0.166 A  
HETATM   17  N   UNL     1      -7.570   9.558  65.456  1.00  0.00    -0.102 NA 
HETATM   18  C   UNL     1      -7.184  10.485  66.400  1.00  0.00    -0.129 A  
HETATM   19  C   UNL     1      -8.114  10.539  67.408  1.00  0.00    -0.111 A  
HETATM   20  N   UNL     1      -7.994  11.372  68.447  1.00  0.00    -0.135 NA 
HETATM   21  C   UNL     1      -6.900  12.203  68.449  1.00  0.00    -0.073 C  
HETATM   22  N   UNL     1      -6.877  13.064  69.495  1.00  0.00    -0.325 NA 
HETATM   23  N   UNL     1      -5.961  12.237  67.548  1.00  0.00    -0.121 N  
HETATM   24  H2  UNL     1      -7.603  13.092  70.212  1.00  0.00     0.000 HD 
HETATM   25  H1  UNL     1      -6.065  13.680  69.497  1.00  0.00     0.000 HD 
HETATM   26  H   UNL     1      -5.188  12.896  67.644  1.00  0.00     0.000 HD 
HETATM   27  C   UNL     1      -6.010  11.372  66.448  1.00  0.00    -0.099 C  
HETATM   28  O   UNL     1      -5.143  11.358  65.583  1.00  0.00    -0.302 OA 
ENDBRANCH  14  15
ENDBRANCH  13  14
ENDBRANCH  12  13
BRANCH  12  29
HETATM   29  C   UNL     1     -11.598   8.861  70.977  1.00  0.00    -0.293 C  
HETATM   30  O   UNL     1     -10.892   7.630  71.143  1.00  0.00    -0.231 OA 
HETATM   31  H   UNL     1     -11.404   7.044  71.687  1.00  0.00     0.000 HD 
ENDBRANCH  12  29
ENDBRANCH  11  12
ENDBRANCH  10  11
ENDBRANCH   8  10
ENDBRANCH   4   8
TORSDOF 8
ENDMDL
MODEL      341
REMARK 921   NORMALIZED FREE ENERGY PREDICTED BY IDOCK:   -3.36 KCAL/MOL
REMARK 922        TOTAL FREE ENERGY PREDICTED BY IDOCK:   -6.15 KCAL/MOL
REMARK 923 INTER-LIGAND FREE ENERGY PREDICTED BY IDOCK:   -5.97 KCAL/MOL
REMARK 924 INTRA-LIGAND FREE ENERGY PREDICTED BY IDOCK:   -0.18 KCAL/MOL
REMARK 927      BINDING AFFINITY PREDICTED BY RF-SCORE:    0.00 PKD
ROOT
HETATM    1  C   UNL     1      -7.002   4.364  71.285  1.00  0.00    -0.036 C  
HETATM    2  C   UNL     1      -8.240   4.128  70.411  1.00  0.00    -0.068 C  
HETATM    3  C   UNL     1      -7.981   2.964  69.448  1.00  0.00    -0.055 C  
HETATM    4  C   UNL     1      -8.708   5.402  69.663  1.00  0.00    -0.103 C  
HETATM    5  N   UNL     1      -7.655   5.939  68.773  1.00  0.00    -0.089 NA 
HETATM    6  H1  UNL     1      -7.964   6.777  68.281  1.00  0.00     0.000 HD 
HETATM    7  H2  UNL     1      -7.323   5.229  68.121  1.00  0.00     0.000 HD 
ENDROOT
BRANCH   4   8
HETATM    8  C   UNL     1      -9.204   6.475  70.655  1.00  0.00    -0.162 C  
HETATM    9  O   UNL     1     -10.343   6.533  71.103  1.00  0.00    -0.201 OA 
BRANCH   8  10
HETATM   10  O   UNL     1      -8.235   7.401  70.921  1.00  0.00    -0.111 OA 
BRANCH  10  11
HETATM   11  C   UNL     1      -8.693   8.732  71.217  1.00  0.00    -0.215 C  
BRANCH  11  12
HETATM   12  C   UNL     1      -8.746   9.568  69.928  1.00  0.00    -0.210 C  
BRANCH  12  13
HETATM   13  O   UNL     1      -9.167   8.805  68.774  1.00  0.00    -0.141 OA 
BRANCH  13  14
HETATM   14  C   UNL     1     -10.482   9.138  68.334  1.00  0.00    -0.199 C  
BRANCH  14  15
HETATM   15  N   UNL     1     -10.942  10.301  69.058  1.00  0.00    -0.222 NA 
HETATM   16  C   UNL     1     -10.851  11.598  68.609  1.00  0.00    -0.213 A  
HETATM   17  N   UNL     1     -11.465  12.446  69.411  1.00  0.00    -0.280 NA 
HETATM   18  C   UNL     1     -11.981  11.665  70.422  1.00  0.00    -0.358 A  
HETATM   19  C   UNL     1     -11.656  10.349  70.206  1.00  0.00    -0.327 A  
HETATM   20  N   UNL     1     -12.050   9.371  71.030  1.00  0.00    -0.301 NA 
HETATM   21  C   UNL     1     -12.826   9.742  72.100  1.00  0.00    -0.360 C  
HETATM   22  N   UNL     1     -13.242   8.695  72.853  1.00  0.00    -0.744 NA 
HETATM   23  N   UNL     1     -13.194  10.954  72.399  1.00  0.00    -0.448 N  
HETATM   24  H2  UNL     1     -13.002   7.726  72.645  1.00  0.00     0.000 HD 
HETATM   25  H1  UNL     1     -13.818   8.970  73.649  1.00  0.00     0.000 HD 
HETATM   26  H   UNL     1     -13.775  11.122  73.221  1.00  0.00     0.000 HD 
HETATM   27  C   UNL     1     -12.794  12.028  71.595  1.00  0.00    -0.294 C  
HETATM   28  O   UNL     1     -13.103  13.188  71.843  1.00  0.00    -0.392 OA 
ENDBRANCH  14  15
ENDBRANCH  13  14
ENDBRANCH  12  13
BRANCH  12  29
HETATM   29  C   UNL     1      -7.359  10.150  69.615  1.00  0.00    -0.138 C  
HETATM   30  O   UNL     1      -6.593  10.227  70.819  1.00  0.00    -0.302 OA 
HETATM   31  H   UNL     1      -5.736  10.587  70.625  1.00  0.00     0.000 HD 
ENDBRANCH  12  29
ENDBRANCH  11  12
ENDBRANCH  10  11
ENDBRANCH   8  10
ENDBRANCH   4   8
TORSDOF 8
ENDMDL
MODEL      342
REMARK 921   NORMALIZED FREE ENERGY PREDICTED BY IDOCK:   -3.36 KCAL/MOL
REMARK 922        TOTAL FREE ENERGY PREDICTED BY IDOCK:   -6.15 KCAL/MOL
REMARK 923 INTER-LIGAND FREE ENERGY PREDICTED BY IDOCK:   -5.47 KCAL/MOL
REMARK 924 INTRA-LIGAND FREE ENERGY PREDICTED BY IDOCK:   -0.68 KCAL/MOL
REMARK 927      BINDING AFFINITY PREDICTED BY RF-SCORE:    0.00 PKD
ROOT
HETATM    1  C   UNL     1      -7.939   5.900  69.371  1.00  0.00    -0.102 C  
HETATM    2  C   UNL     1      -7.183   7.229  69.259  1.00  0.00    -0.081 C  
HETATM    3  C   UNL     1      -5.948   7.202  70.166  1.00  0.00    -0.024 C  
HETATM    4  C   UNL     1      -8.078   8.463  69.540  1.00  0.00    -0.113 C  
HETATM    5  N   UNL     1      -8.667   8.421  70.897  1.00  0.00    -0.143 NA 
HETATM    6  H1  UNL     1      -9.255   9.233  71.081  1.00  0.00     0.000 HD 
HETATM    7  H2  UNL     1      -7.946   8.316  71.611  1.00  0.00     0.000 HD 
ENDROOT
BRANCH   4   8
HETATM    8  C   UNL     1      -9.170   8.612  68.460  1.00  0.00    -0.138 C  
HETATM    9  O   UNL     1      -9.082   8.172  67.319  1.00  0.00    -0.134 OA 
BRANCH   8  10
HETATM   10  O   UNL     1     -10.222   9.360  68.908  1.00  0.00    -0.187 OA 
BRANCH  10  11
HETATM   11  C   UNL     1     -10.687  10.395  68.024  1.00  0.00    -0.249 C  
BRANCH  11  12
HETATM   12  C   UNL     1      -9.512  11.295  67.607  1.00  0.00    -0.167 C  
BRANCH  12  13
HETATM   13  O   UNL     1      -9.492  12.562  68.305  1.00  0.00    -0.210 OA 
BRANCH  13  14
HETATM   14  C   UNL     1      -8.315  13.324  68.044  1.00  0.00    -0.162 C  
BRANCH  14  15
HETATM   15  N   UNL     1      -8.653  14.730  68.050  1.00  0.00    -0.160 NA 
HETATM   16  C   UNL     1      -8.145  15.661  68.925  1.00  0.00    -0.197 A  
HETATM   17  N   UNL     1      -8.524  16.888  68.621  1.00  0.00    -0.253 NA 
HETATM   18  C   UNL     1      -9.306  16.747  67.496  1.00  0.00    -0.231 A  
HETATM   19  C   UNL     1      -9.389  15.422  67.149  1.00  0.00    -0.214 A  
HETATM   20  N   UNL     1     -10.075  15.004  66.079  1.00  0.00    -0.282 NA 
HETATM   21  C   UNL     1     -10.679  15.974  65.318  1.00  0.00    -0.399 C  
HETATM   22  N   UNL     1     -11.300  15.486  64.216  1.00  0.00    -0.743 NA 
HETATM   23  N   UNL     1     -10.666  17.254  65.552  1.00  0.00    -0.218 N  
HETATM   24  H2  UNL     1     -11.317  14.495  63.976  1.00  0.00     0.000 HD 
HETATM   25  H1  UNL     1     -11.750  16.206  63.651  1.00  0.00     0.000 HD 
HETATM   26  H   UNL     1     -11.149  17.893  64.920  1.00  0.00     0.000 HD 
HETATM   27  C   UNL     1      -9.990  17.757  66.671  1.00  0.00    -0.338 C  
HETATM   28  O   UNL     1      -9.961  18.951  66.941  1.00  0.00    -0.310 OA 
ENDBRANCH  14  15
ENDBRANCH  13  14
ENDBRANCH  12  13
BRANCH  12  29
HETATM   29  C   UNL     1      -9.583  11.600  66.103  1.00  0.00    -0.232 C  
HETATM   30  O   UNL     1      -8.678  10.744  65.403  1.00  0.00    -0.185 OA 
HETATM   31  H   UNL     1      -8.721  10.932  64.473  1.00  0.00     0.000 HD 
ENDBRANCH  12  29
ENDBRANCH  11  12
ENDBRANCH  10  11
ENDBRANCH   8  10
ENDBRANCH   4   8
TORSDOF 8
ENDMDL
MODEL      343
REMARK 921   NORMALIZED FREE ENERGY PREDICTED BY IDOCK:   -3.36 KCAL/MOL
REMARK 922        TOTAL FREE ENERGY PREDICTED BY IDOCK:   -6.15 KCAL/MOL
REMARK 923 INTER-LIGAND FREE ENERGY PREDICTED BY IDOCK:   -5.32 KCAL/MOL
REMARK 924 INTRA-LIGAND FREE ENERGY PREDICTED BY IDOCK:   -0.83 KCAL/MOL
REMARK 927      BINDING AFFINITY PREDICTED BY RF-SCORE:    0.00 PKD
ROOT
HETATM    1  C   UNL     1     -11.684  14.990  73.499  1.00  0.00    -0.190 C  
HETATM    2  C   UNL     1     -11.880  14.933  71.979  1.00  0.00    -0.404 C  
HETATM    3  C   UNL     1     -11.597  16.309  71.367  1.00  0.00    -0.424 C  
HETATM    4  C   UNL     1     -13.272  14.392  71.566  1.00  0.00    -0.346 C  
HETATM    5  N   UNL     1     -14.371  15.224  72.106  1.00  0.00    -0.562 NA 
HETATM    6  H1  UNL     1     -15.287  14.868  71.833  1.00  0.00     0.000 HD 
HETATM    7  H2  UNL     1     -14.260  16.202  71.840  1.00  0.00     0.000 HD 
ENDROOT
BRANCH   4   8
HETATM    8  C   UNL     1     -13.435  12.914  71.976  1.00  0.00    -0.473 C  
HETATM    9  O   UNL     1     -14.393  12.467  72.596  1.00  0.00    -0.096 OA 
BRANCH   8  10
HETATM   10  O   UNL     1     -12.343  12.171  71.626  1.00  0.00    -0.029 OA 
BRANCH  10  11
HETATM   11  C   UNL     1     -12.417  11.490  70.361  1.00  0.00    -0.240 C  
BRANCH  11  12
HETATM   12  C   UNL     1     -11.463  10.285  70.357  1.00  0.00    -0.335 C  
BRANCH  12  13
HETATM   13  O   UNL     1     -10.865  10.037  69.064  1.00  0.00    -0.212 OA 
BRANCH  13  14
HETATM   14  C   UNL     1     -11.039   8.694  68.616  1.00  0.00     0.310 C  
BRANCH  14  15
HETATM   15  N   UNL     1     -10.192   8.466  67.466  1.00  0.00    -0.224 NA 
HETATM   16  C   UNL     1      -9.492   9.441  66.796  1.00  0.00    -0.165 A  
HETATM   17  N   UNL     1      -8.700   8.936  65.869  1.00  0.00    -0.159 NA 
HETATM   18  C   UNL     1      -8.892   7.574  65.945  1.00  0.00    -0.126 A  
HETATM   19  C   UNL     1      -9.811   7.287  66.923  1.00  0.00    -0.214 A  
HETATM   20  N   UNL     1     -10.171   6.033  67.220  1.00  0.00    -0.170 NA 
HETATM   21  C   UNL     1      -9.553   5.031  66.514  1.00  0.00    -0.161 C  
HETATM   22  N   UNL     1      -9.916   3.787  66.912  1.00  0.00    -0.321 NA 
HETATM   23  N   UNL     1      -8.670   5.188  65.571  1.00  0.00    -0.142 N  
HETATM   24  H2  UNL     1     -10.584   3.613  67.663  1.00  0.00     0.000 HD 
HETATM   25  H1  UNL     1      -9.458   3.042  66.388  1.00  0.00     0.000 HD 
HETATM   26  H   UNL     1      -8.270   4.372  65.107  1.00  0.00     0.000 HD 
HETATM   27  C   UNL     1      -8.270   6.474  65.190  1.00  0.00    -0.126 C  
HETATM   28  O   UNL     1      -7.453   6.673  64.298  1.00  0.00    -0.081 OA 
ENDBRANCH  14  15
ENDBRANCH  13  14
ENDBRANCH  12  13
BRANCH  12  29
HETATM   29  C   UNL     1     -12.214   9.010  70.770  1.00  0.00    -0.076 C  
HETATM   30  O   UNL     1     -13.032   9.288  71.908  1.00  0.00    -0.350 OA 
HETATM   31  H   UNL     1     -13.496   8.500  72.163  1.00  0.00     0.000 HD 
ENDBRANCH  12  29
ENDBRANCH  11  12
ENDBRANCH  10  11
ENDBRANCH   8  10
ENDBRANCH   4   8
TORSDOF 8
ENDMDL
MODEL      344
REMARK 921   NORMALIZED FREE ENERGY PREDICTED BY IDOCK:   -3.36 KCAL/MOL
REMARK 922        TOTAL FREE ENERGY PREDICTED BY IDOCK:   -6.14 KCAL/MOL
REMARK 923 INTER-LIGAND FREE ENERGY PREDICTED BY IDOCK:   -5.66 KCAL/MOL
REMARK 924 INTRA-LIGAND FREE ENERGY PREDICTED BY IDOCK:   -0.48 KCAL/MOL
REMARK 927      BINDING AFFINITY PREDICTED BY RF-SCORE:    0.00 PKD
ROOT
HETATM    1  C   UNL     1     -11.182  11.841  69.447  1.00  0.00    -0.300 C  
HETATM    2  C   UNL     1     -11.119  11.237  68.039  1.00  0.00    -0.325 C  
HETATM    3  C   UNL     1     -11.490   9.751  68.095  1.00  0.00     0.263 C  
HETATM    4  C   UNL     1      -9.754  11.464  67.341  1.00  0.00    -0.181 C  
HETATM    5  N   UNL     1      -8.635  10.874  68.108  1.00  0.00    -0.127 NA 
HETATM    6  H1  UNL     1      -7.738  11.024  67.648  1.00  0.00     0.000 HD 
HETATM    7  H2  UNL     1      -8.795   9.884  68.294  1.00  0.00     0.000 HD 
ENDROOT
BRANCH   4   8
HETATM    8  C   UNL     1      -9.516  12.964  67.067  1.00  0.00    -0.235 C  
HETATM    9  O   UNL     1     -10.403  13.806  66.997  1.00  0.00    -0.257 OA 
BRANCH   8  10
HETATM   10  O   UNL     1      -8.195  13.230  66.840  1.00  0.00    -0.096 OA 
BRANCH  10  11
HETATM   11  C   UNL     1      -7.408  13.572  67.995  1.00  0.00    -0.133 C  
BRANCH  11  12
HETATM   12  C   UNL     1      -7.470  15.088  68.241  1.00  0.00    -0.107 C  
BRANCH  12  13
HETATM   13  O   UNL     1      -6.169  15.718  68.237  1.00  0.00    -0.103 OA 
BRANCH  13  14
HETATM   14  C   UNL     1      -6.213  17.095  68.608  1.00  0.00    -0.159 C  
BRANCH  14  15
HETATM   15  N   UNL     1      -6.922  17.835  67.588  1.00  0.00    -0.179 NA 
HETATM   16  C   UNL     1      -6.676  17.754  66.238  1.00  0.00    -0.268 A  
HETATM   17  N   UNL     1      -7.555  18.437  65.530  1.00  0.00    -0.458 NA 
HETATM   18  C   UNL     1      -8.412  18.981  66.462  1.00  0.00    -0.314 A  
HETATM   19  C   UNL     1      -8.021  18.614  67.725  1.00  0.00    -0.250 A  
HETATM   20  N   UNL     1      -8.692  18.990  68.820  1.00  0.00    -0.343 NA 
HETATM   21  C   UNL     1      -9.820  19.748  68.621  1.00  0.00    -0.393 C  
HETATM   22  N   UNL     1     -10.484  20.037  69.766  1.00  0.00    -0.435 NA 
HETATM   23  N   UNL     1     -10.282  20.150  67.473  1.00  0.00    -0.398 N  
HETATM   24  H2  UNL     1     -10.176  19.723  70.686  1.00  0.00     0.000 HD 
HETATM   25  H1  UNL     1     -11.322  20.600  69.619  1.00  0.00     0.000 HD 
HETATM   26  H   UNL     1     -11.133  20.711  67.435  1.00  0.00     0.000 HD 
HETATM   27  C   UNL     1      -9.613  19.815  66.289  1.00  0.00    -0.423 C  
HETATM   28  O   UNL     1     -10.001  20.183  65.187  1.00  0.00    -0.050 OA 
ENDBRANCH  14  15
ENDBRANCH  13  14
ENDBRANCH  12  13
BRANCH  12  29
HETATM   29  C   UNL     1      -8.119  15.379  69.604  1.00  0.00    -0.134 C  
HETATM   30  O   UNL     1      -9.458  15.835  69.404  1.00  0.00    -0.254 OA 
HETATM   31  H   UNL     1      -9.859  16.016  70.246  1.00  0.00     0.000 HD 
ENDBRANCH  12  29
ENDBRANCH  11  12
ENDBRANCH  10  11
ENDBRANCH   8  10
ENDBRANCH   4   8
TORSDOF 8
ENDMDL
MODEL      345
REMARK 921   NORMALIZED FREE ENERGY PREDICTED BY IDOCK:   -3.35 KCAL/MOL
REMARK 922        TOTAL FREE ENERGY PREDICTED BY IDOCK:   -6.14 KCAL/MOL
REMARK 923 INTER-LIGAND FREE ENERGY PREDICTED BY IDOCK:   -5.47 KCAL/MOL
REMARK 924 INTRA-LIGAND FREE ENERGY PREDICTED BY IDOCK:   -0.66 KCAL/MOL
REMARK 927      BINDING AFFINITY PREDICTED BY RF-SCORE:    0.00 PKD
ROOT
HETATM    1  C   UNL     1      -7.012   9.852  67.755  1.00  0.00    -0.085 C  
HETATM    2  C   UNL     1      -6.628   9.956  69.236  1.00  0.00    -0.049 C  
HETATM    3  C   UNL     1      -5.479  10.955  69.404  1.00  0.00    -0.041 C  
HETATM    4  C   UNL     1      -6.300   8.584  69.877  1.00  0.00    -0.034 C  
HETATM    5  N   UNL     1      -5.174   7.910  69.192  1.00  0.00    -0.022 NA 
HETATM    6  H1  UNL     1      -4.958   7.007  69.614  1.00  0.00     0.000 HD 
HETATM    7  H2  UNL     1      -4.350   8.508  69.156  1.00  0.00     0.000 HD 
ENDROOT
BRANCH   4   8
HETATM    8  C   UNL     1      -7.550   7.681  69.922  1.00  0.00    -0.092 C  
HETATM    9  O   UNL     1      -7.527   6.459  69.839  1.00  0.00    -0.083 OA 
BRANCH   8  10
HETATM   10  O   UNL     1      -8.699   8.417  69.994  1.00  0.00    -0.129 OA 
BRANCH  10  11
HETATM   11  C   UNL     1      -9.853   7.858  69.340  1.00  0.00    -0.180 C  
BRANCH  11  12
HETATM   12  C   UNL     1     -11.088   8.728  69.623  1.00  0.00    -0.028 C  
BRANCH  12  13
HETATM   13  O   UNL     1     -11.395   9.645  68.547  1.00  0.00    -0.024 OA 
BRANCH  13  14
HETATM   14  C   UNL     1     -10.547   9.479  67.413  1.00  0.00    -0.271 C  
BRANCH  14  15
HETATM   15  N   UNL     1     -10.618  10.668  66.592  1.00  0.00    -0.236 NA 
HETATM   16  C   UNL     1     -10.392  10.706  65.237  1.00  0.00    -0.251 A  
HETATM   17  N   UNL     1     -10.652  11.893  64.722  1.00  0.00    -0.285 NA 
HETATM   18  C   UNL     1     -11.070  12.656  65.790  1.00  0.00    -0.297 A  
HETATM   19  C   UNL     1     -11.045  11.904  66.939  1.00  0.00    -0.305 A  
HETATM   20  N   UNL     1     -11.422  12.397  68.124  1.00  0.00    -0.294 NA 
HETATM   21  C   UNL     1     -11.866  13.696  68.139  1.00  0.00    -0.372 C  
HETATM   22  N   UNL     1     -12.292  14.107  69.358  1.00  0.00    -0.491 NA 
HETATM   23  N   UNL     1     -11.933  14.497  67.115  1.00  0.00    -0.483 N  
HETATM   24  H2  UNL     1     -12.283  13.509  70.184  1.00  0.00     0.000 HD 
HETATM   25  H1  UNL     1     -12.621  15.072  69.370  1.00  0.00     0.000 HD 
HETATM   26  H   UNL     1     -12.280  15.448  67.234  1.00  0.00     0.000 HD 
HETATM   27  C   UNL     1     -11.528  14.054  65.849  1.00  0.00    -0.330 C  
HETATM   28  O   UNL     1     -11.559  14.775  64.859  1.00  0.00    -0.373 OA 
ENDBRANCH  14  15
ENDBRANCH  13  14
ENDBRANCH  12  13
BRANCH  12  29
HETATM   29  C   UNL     1     -10.871   9.564  70.893  1.00  0.00    -0.337 C  
HETATM   30  O   UNL     1     -10.825  10.950  70.547  1.00  0.00    -0.380 OA 
HETATM   31  H   UNL     1     -10.691  11.466  71.333  1.00  0.00     0.000 HD 
ENDBRANCH  12  29
ENDBRANCH  11  12
ENDBRANCH  10  11
ENDBRANCH   8  10
ENDBRANCH   4   8
TORSDOF 8
ENDMDL
MODEL      346
REMARK 921   NORMALIZED FREE ENERGY PREDICTED BY IDOCK:   -3.35 KCAL/MOL
REMARK 922        TOTAL FREE ENERGY PREDICTED BY IDOCK:   -6.13 KCAL/MOL
REMARK 923 INTER-LIGAND FREE ENERGY PREDICTED BY IDOCK:   -4.86 KCAL/MOL
REMARK 924 INTRA-LIGAND FREE ENERGY PREDICTED BY IDOCK:   -1.26 KCAL/MOL
REMARK 927      BINDING AFFINITY PREDICTED BY RF-SCORE:    0.00 PKD
ROOT
HETATM    1  C   UNL     1     -11.744  11.880  68.288  1.00  0.00    -0.385 C  
HETATM    2  C   UNL     1     -11.393  13.371  68.362  1.00  0.00    -0.329 C  
HETATM    3  C   UNL     1     -12.217  14.044  69.464  1.00  0.00    -0.355 C  
HETATM    4  C   UNL     1     -11.544  14.098  67.002  1.00  0.00    -0.382 C  
HETATM    5  N   UNL     1     -12.926  14.012  66.480  1.00  0.00    -0.289 NA 
HETATM    6  H1  UNL     1     -13.025  14.491  65.585  1.00  0.00     0.000 HD 
HETATM    7  H2  UNL     1     -13.602  14.356  67.161  1.00  0.00     0.000 HD 
ENDROOT
BRANCH   4   8
HETATM    8  C   UNL     1     -10.522  13.569  65.975  1.00  0.00    -0.299 C  
HETATM    9  O   UNL     1     -10.811  12.896  64.993  1.00  0.00    -0.283 OA 
BRANCH   8  10
HETATM   10  O   UNL     1      -9.241  13.881  66.333  1.00  0.00    -0.242 OA 
BRANCH  10  11
HETATM   11  C   UNL     1      -8.939  15.283  66.452  1.00  0.00    -0.304 C  
BRANCH  11  12
HETATM   12  C   UNL     1      -8.179  15.545  67.763  1.00  0.00    -0.147 C  
BRANCH  12  13
HETATM   13  O   UNL     1      -8.164  14.403  68.649  1.00  0.00    -0.147 OA 
BRANCH  13  14
HETATM   14  C   UNL     1      -6.849  13.910  68.902  1.00  0.00    -0.109 C  
BRANCH  14  15
HETATM   15  N   UNL     1      -6.686  12.637  68.237  1.00  0.00    -0.073 NA 
HETATM   16  C   UNL     1      -5.753  12.368  67.263  1.00  0.00    -0.114 A  
HETATM   17  N   UNL     1      -5.740  11.093  66.925  1.00  0.00    -0.076 NA 
HETATM   18  C   UNL     1      -6.704  10.508  67.717  1.00  0.00    -0.069 A  
HETATM   19  C   UNL     1      -7.287  11.457  68.519  1.00  0.00    -0.105 A  
HETATM   20  N   UNL     1      -8.245  11.156  69.402  1.00  0.00     0.084 NA 
HETATM   21  C   UNL     1      -8.606   9.834  69.493  1.00  0.00    -0.179 C  
HETATM   22  N   UNL     1      -9.534   9.593  70.452  1.00  0.00    -0.302 NA 
HETATM   23  N   UNL     1      -8.122   8.855  68.786  1.00  0.00    -0.112 N  
HETATM   24  H2  UNL     1      -9.924  10.322  71.048  1.00  0.00     0.000 HD 
HETATM   25  H1  UNL     1      -9.803   8.612  70.519  1.00  0.00     0.000 HD 
HETATM   26  H   UNL     1      -8.461   7.905  68.933  1.00  0.00     0.000 HD 
HETATM   27  C   UNL     1      -7.136   9.105  67.823  1.00  0.00    -0.079 C  
HETATM   28  O   UNL     1      -6.659   8.218  67.124  1.00  0.00    -0.056 OA 
ENDBRANCH  14  15
ENDBRANCH  13  14
ENDBRANCH  12  13
BRANCH  12  29
HETATM   29  C   UNL     1      -8.825  16.712  68.527  1.00  0.00    -0.235 C  
HETATM   30  O   UNL     1      -7.899  17.798  68.604  1.00  0.00    -0.278 OA 
HETATM   31  H   UNL     1      -8.298  18.519  69.077  1.00  0.00     0.000 HD 
ENDBRANCH  12  29
ENDBRANCH  11  12
ENDBRANCH  10  11
ENDBRANCH   8  10
ENDBRANCH   4   8
TORSDOF 8
ENDMDL
MODEL      347
REMARK 921   NORMALIZED FREE ENERGY PREDICTED BY IDOCK:   -3.34 KCAL/MOL
REMARK 922        TOTAL FREE ENERGY PREDICTED BY IDOCK:   -6.12 KCAL/MOL
REMARK 923 INTER-LIGAND FREE ENERGY PREDICTED BY IDOCK:   -5.53 KCAL/MOL
REMARK 924 INTRA-LIGAND FREE ENERGY PREDICTED BY IDOCK:   -0.59 KCAL/MOL
REMARK 927      BINDING AFFINITY PREDICTED BY RF-SCORE:    0.00 PKD
ROOT
HETATM    1  C   UNL     1      -8.366  11.479  65.959  1.00  0.00     0.042 C  
HETATM    2  C   UNL     1      -9.811  11.046  66.237  1.00  0.00    -0.257 C  
HETATM    3  C   UNL     1      -9.843   9.566  66.631  1.00  0.00    -0.293 C  
HETATM    4  C   UNL     1     -10.773  11.351  65.061  1.00  0.00    -0.277 C  
HETATM    5  N   UNL     1     -10.357  10.670  63.815  1.00  0.00    -0.479 NA 
HETATM    6  H1  UNL     1     -10.991  10.870  63.042  1.00  0.00     0.000 HD 
HETATM    7  H2  UNL     1     -10.255   9.665  63.959  1.00  0.00     0.000 HD 
ENDROOT
BRANCH   4   8
HETATM    8  C   UNL     1     -10.919  12.872  64.846  1.00  0.00    -0.301 C  
HETATM    9  O   UNL     1     -10.635  13.456  63.807  1.00  0.00    -0.138 OA 
BRANCH   8  10
HETATM   10  O   UNL     1     -11.338  13.503  65.984  1.00  0.00    -0.305 OA 
BRANCH  10  11
HETATM   11  C   UNL     1     -10.916  14.870  66.143  1.00  0.00    -0.334 C  
BRANCH  11  12
HETATM   12  C   UNL     1     -10.628  15.160  67.624  1.00  0.00    -0.263 C  
BRANCH  12  13
HETATM   13  O   UNL     1     -11.566  14.523  68.521  1.00  0.00    -0.282 OA 
BRANCH  13  14
HETATM   14  C   UNL     1     -11.464  14.993  69.864  1.00  0.00    -0.289 C  
BRANCH  14  15
HETATM   15  N   UNL     1     -12.163  14.080  70.739  1.00  0.00    -0.350 NA 
HETATM   16  C   UNL     1     -13.261  14.402  71.502  1.00  0.00    -0.346 A  
HETATM   17  N   UNL     1     -13.775  13.345  72.104  1.00  0.00    -0.540 NA 
HETATM   18  C   UNL     1     -12.979  12.293  71.710  1.00  0.00    -0.325 A  
HETATM   19  C   UNL     1     -11.988  12.745  70.875  1.00  0.00     0.146 A  
HETATM   20  N   UNL     1     -11.083  11.924  70.330  1.00  0.00     0.429 NA 
HETATM   21  C   UNL     1     -11.206  10.588  70.623  1.00  0.00    -0.198 C  
HETATM   22  N   UNL     1     -10.297   9.810  69.986  1.00  0.00    -0.245 NA 
HETATM   23  N   UNL     1     -12.104  10.052  71.398  1.00  0.00    -0.394 N  
HETATM   24  H2  UNL     1      -9.591  10.180  69.350  1.00  0.00     0.000 HD 
HETATM   25  H1  UNL     1     -10.388   8.818  70.204  1.00  0.00     0.000 HD 
HETATM   26  H   UNL     1     -12.108   9.043  71.549  1.00  0.00     0.000 HD 
HETATM   27  C   UNL     1     -13.064  10.856  72.023  1.00  0.00    -0.356 C  
HETATM   28  O   UNL     1     -13.920  10.399  72.770  1.00  0.00     0.423 OA 
ENDBRANCH  14  15
ENDBRANCH  13  14
ENDBRANCH  12  13
BRANCH  12  29
HETATM   29  C   UNL     1     -10.689  16.672  67.892  1.00  0.00    -0.344 C  
HETATM   30  O   UNL     1      -9.521  17.074  68.611  1.00  0.00    -0.258 OA 
HETATM   31  H   UNL     1      -9.559  18.008  68.777  1.00  0.00     0.000 HD 
ENDBRANCH  12  29
ENDBRANCH  11  12
ENDBRANCH  10  11
ENDBRANCH   8  10
ENDBRANCH   4   8
TORSDOF 8
ENDMDL
MODEL      348
REMARK 921   NORMALIZED FREE ENERGY PREDICTED BY IDOCK:   -3.31 KCAL/MOL
REMARK 922        TOTAL FREE ENERGY PREDICTED BY IDOCK:   -6.07 KCAL/MOL
REMARK 923 INTER-LIGAND FREE ENERGY PREDICTED BY IDOCK:   -5.27 KCAL/MOL
REMARK 924 INTRA-LIGAND FREE ENERGY PREDICTED BY IDOCK:   -0.80 KCAL/MOL
REMARK 927      BINDING AFFINITY PREDICTED BY RF-SCORE:    0.00 PKD
ROOT
HETATM    1  C   UNL     1      -6.563   5.358  65.291  1.00  0.00    -0.040 C  
HETATM    2  C   UNL     1      -8.009   4.905  65.527  1.00  0.00    -0.099 C  
HETATM    3  C   UNL     1      -8.626   4.428  64.208  1.00  0.00    -0.123 C  
HETATM    4  C   UNL     1      -8.880   5.987  66.214  1.00  0.00    -0.141 C  
HETATM    5  N   UNL     1      -8.948   7.231  65.414  1.00  0.00    -0.378 NA 
HETATM    6  H1  UNL     1      -9.522   7.943  65.866  1.00  0.00     0.000 HD 
HETATM    7  H2  UNL     1      -9.271   7.044  64.464  1.00  0.00     0.000 HD 
ENDROOT
BRANCH   4   8
HETATM    8  C   UNL     1      -8.383   6.270  67.647  1.00  0.00    -0.117 C  
HETATM    9  O   UNL     1      -8.356   5.441  68.548  1.00  0.00    -0.097 OA 
BRANCH   8  10
HETATM   10  O   UNL     1      -8.043   7.584  67.811  1.00  0.00    -0.116 OA 
BRANCH  10  11
HETATM   11  C   UNL     1      -8.352   8.164  69.091  1.00  0.00    -0.131 C  
BRANCH  11  12
HETATM   12  C   UNL     1      -9.799   8.683  69.095  1.00  0.00    -0.185 C  
BRANCH  12  13
HETATM   13  O   UNL     1      -9.885  10.125  69.163  1.00  0.00    -0.191 OA 
BRANCH  13  14
HETATM   14  C   UNL     1      -8.877  10.782  68.398  1.00  0.00    -0.146 C  
BRANCH  14  15
HETATM   15  N   UNL     1      -9.504  11.517  67.323  1.00  0.00    -0.168 NA 
HETATM   16  C   UNL     1     -10.247  10.956  66.311  1.00  0.00    -0.247 A  
HETATM   17  N   UNL     1     -10.808  11.869  65.541  1.00  0.00    -0.288 NA 
HETATM   18  C   UNL     1     -10.416  13.075  66.081  1.00  0.00    -0.279 A  
HETATM   19  C   UNL     1      -9.612  12.857  67.172  1.00  0.00    -0.225 A  
HETATM   20  N   UNL     1      -9.106  13.860  67.898  1.00  0.00    -0.186 NA 
HETATM   21  C   UNL     1      -9.451  15.133  67.515  1.00  0.00    -0.206 C  
HETATM   22  N   UNL     1      -8.956  16.095  68.333  1.00  0.00    -0.189 NA 
HETATM   23  N   UNL     1     -10.203  15.454  66.503  1.00  0.00    -0.271 N  
HETATM   24  H2  UNL     1      -8.384  15.893  69.152  1.00  0.00     0.000 HD 
HETATM   25  H1  UNL     1      -9.212  17.041  68.049  1.00  0.00     0.000 HD 
HETATM   26  H   UNL     1     -10.399  16.435  66.305  1.00  0.00     0.000 HD 
HETATM   27  C   UNL     1     -10.743  14.454  65.685  1.00  0.00    -0.320 C  
HETATM   28  O   UNL     1     -11.445  14.707  64.713  1.00  0.00    -0.384 OA 
ENDBRANCH  14  15
ENDBRANCH  13  14
ENDBRANCH  12  13
BRANCH  12  29
HETATM   29  C   UNL     1     -10.563   8.118  70.303  1.00  0.00    -0.228 C  
HETATM   30  O   UNL     1     -11.665   7.332  69.842  1.00  0.00    -0.516 OA 
HETATM   31  H   UNL     1     -12.137   6.983  70.588  1.00  0.00     0.000 HD 
ENDBRANCH  12  29
ENDBRANCH  11  12
ENDBRANCH  10  11
ENDBRANCH   8  10
ENDBRANCH   4   8
TORSDOF 8
ENDMDL
MODEL      349
REMARK 921   NORMALIZED FREE ENERGY PREDICTED BY IDOCK:   -3.29 KCAL/MOL
REMARK 922        TOTAL FREE ENERGY PREDICTED BY IDOCK:   -6.05 KCAL/MOL
REMARK 923 INTER-LIGAND FREE ENERGY PREDICTED BY IDOCK:   -5.32 KCAL/MOL
REMARK 924 INTRA-LIGAND FREE ENERGY PREDICTED BY IDOCK:   -0.73 KCAL/MOL
REMARK 927      BINDING AFFINITY PREDICTED BY RF-SCORE:    0.00 PKD
ROOT
HETATM    1  C   UNL     1     -11.063   6.155  68.516  1.00  0.00    -0.352 C  
HETATM    2  C   UNL     1     -10.080   6.757  69.528  1.00  0.00    -0.192 C  
HETATM    3  C   UNL     1      -9.890   5.792  70.703  1.00  0.00    -0.240 C  
HETATM    4  C   UNL     1     -10.490   8.173  70.005  1.00  0.00    -0.231 C  
HETATM    5  N   UNL     1     -11.821   8.175  70.652  1.00  0.00    -0.469 NA 
HETATM    6  H1  UNL     1     -12.090   9.107  70.965  1.00  0.00     0.000 HD 
HETATM    7  H2  UNL     1     -11.863   7.501  71.416  1.00  0.00     0.000 HD 
ENDROOT
BRANCH   4   8
HETATM    8  C   UNL     1     -10.430   9.186  68.843  1.00  0.00    -0.218 C  
HETATM    9  O   UNL     1     -11.406   9.754  68.367  1.00  0.00    -0.087 OA 
BRANCH   8  10
HETATM   10  O   UNL     1      -9.160   9.321  68.358  1.00  0.00    -0.129 OA 
BRANCH  10  11
HETATM   11  C   UNL     1      -9.003   9.163  66.936  1.00  0.00    -0.123 C  
BRANCH  11  12
HETATM   12  C   UNL     1      -7.936  10.138  66.415  1.00  0.00    -0.120 C  
BRANCH  12  13
HETATM   13  O   UNL     1      -8.468  11.443  66.091  1.00  0.00    -0.172 OA 
BRANCH  13  14
HETATM   14  C   UNL     1      -8.070  12.454  67.014  1.00  0.00    -0.124 C  
BRANCH  14  15
HETATM   15  N   UNL     1      -9.233  13.213  67.414  1.00  0.00    -0.203 NA 
HETATM   16  C   UNL     1     -10.454  12.673  67.742  1.00  0.00    -0.221 A  
HETATM   17  N   UNL     1     -11.296  13.583  68.195  1.00  0.00    -0.268 NA 
HETATM   18  C   UNL     1     -10.588  14.764  68.163  1.00  0.00    -0.241 A  
HETATM   19  C   UNL     1      -9.323  14.537  67.680  1.00  0.00    -0.202 A  
HETATM   20  N   UNL     1      -8.417  15.514  67.562  1.00  0.00    -0.165 NA 
HETATM   21  C   UNL     1      -8.802  16.765  67.976  1.00  0.00    -0.216 C  
HETATM   22  N   UNL     1      -7.815  17.690  67.888  1.00  0.00    -0.216 NA 
HETATM   23  N   UNL     1      -9.970  17.093  68.448  1.00  0.00    -0.292 N  
HETATM   24  H2  UNL     1      -6.877  17.477  67.549  1.00  0.00     0.000 HD 
HETATM   25  H1  UNL     1      -8.100  18.620  68.195  1.00  0.00     0.000 HD 
HETATM   26  H   UNL     1     -10.153  18.056  68.729  1.00  0.00     0.000 HD 
HETATM   27  C   UNL     1     -10.974  16.125  68.572  1.00  0.00    -0.338 C  
HETATM   28  O   UNL     1     -12.092  16.388  68.999  1.00  0.00    -0.042 OA 
ENDBRANCH  14  15
ENDBRANCH  13  14
ENDBRANCH  12  13
BRANCH  12  29
HETATM   29  C   UNL     1      -7.280   9.579  65.142  1.00  0.00    -0.108 C  
HETATM   30  O   UNL     1      -7.193  10.613  64.160  1.00  0.00    -0.346 OA 
HETATM   31  H   UNL     1      -6.788  10.268  63.374  1.00  0.00     0.000 HD 
ENDBRANCH  12  29
ENDBRANCH  11  12
ENDBRANCH  10  11
ENDBRANCH   8  10
ENDBRANCH   4   8
TORSDOF 8
ENDMDL
MODEL      350
REMARK 921   NORMALIZED FREE ENERGY PREDICTED BY IDOCK:   -3.29 KCAL/MOL
REMARK 922        TOTAL FREE ENERGY PREDICTED BY IDOCK:   -6.04 KCAL/MOL
REMARK 923 INTER-LIGAND FREE ENERGY PREDICTED BY IDOCK:   -4.84 KCAL/MOL
REMARK 924 INTRA-LIGAND FREE ENERGY PREDICTED BY IDOCK:   -1.20 KCAL/MOL
REMARK 927      BINDING AFFINITY PREDICTED BY RF-SCORE:    0.00 PKD
ROOT
HETATM    1  C   UNL     1     -10.698  10.948  65.504  1.00  0.00    -0.182 C  
HETATM    2  C   UNL     1     -11.122  12.204  66.275  1.00  0.00    -0.353 C  
HETATM    3  C   UNL     1     -10.633  13.455  65.538  1.00  0.00    -0.294 C  
HETATM    4  C   UNL     1     -10.665  12.192  67.756  1.00  0.00    -0.209 C  
HETATM    5  N   UNL     1      -9.193  12.093  67.879  1.00  0.00    -0.182 NA 
HETATM    6  H1  UNL     1      -8.893  12.085  68.854  1.00  0.00     0.000 HD 
HETATM    7  H2  UNL     1      -8.727  12.833  67.354  1.00  0.00     0.000 HD 
ENDROOT
BRANCH   4   8
HETATM    8  C   UNL     1     -11.370  11.067  68.542  1.00  0.00    -0.287 C  
HETATM    9  O   UNL     1     -12.507  11.142  68.991  1.00  0.00    -0.439 OA 
BRANCH   8  10
HETATM   10  O   UNL     1     -10.542   9.999  68.743  1.00  0.00    -0.200 OA 
BRANCH  10  11
HETATM   11  C   UNL     1     -10.384   9.565  70.106  1.00  0.00    -0.255 C  
BRANCH  11  12
HETATM   12  C   UNL     1      -8.896   9.571  70.489  1.00  0.00    -0.201 C  
BRANCH  12  13
HETATM   13  O   UNL     1      -8.014   9.562  69.342  1.00  0.00    -0.085 OA 
BRANCH  13  14
HETATM   14  C   UNL     1      -7.360   8.309  69.150  1.00  0.00    -0.081 C  
BRANCH  14  15
HETATM   15  N   UNL     1      -7.248   8.047  67.733  1.00  0.00    -0.089 NA 
HETATM   16  C   UNL     1      -6.226   8.491  66.927  1.00  0.00    -0.055 A  
HETATM   17  N   UNL     1      -6.307   7.998  65.705  1.00  0.00    -0.042 NA 
HETATM   18  C   UNL     1      -7.426   7.195  65.722  1.00  0.00    -0.081 A  
HETATM   19  C   UNL     1      -8.006   7.230  66.966  1.00  0.00    -0.109 A  
HETATM   20  N   UNL     1      -9.102   6.523  67.264  1.00  0.00    -0.116 NA 
HETATM   21  C   UNL     1      -9.614   5.730  66.266  1.00  0.00    -0.134 C  
HETATM   22  N   UNL     1     -10.683   4.994  66.658  1.00  0.00    -0.369 NA 
HETATM   23  N   UNL     1      -9.147   5.620  65.057  1.00  0.00    -0.362 N  
HETATM   24  H2  UNL     1     -11.069   5.026  67.601  1.00  0.00     0.000 HD 
HETATM   25  H1  UNL     1     -11.064   4.405  65.917  1.00  0.00     0.000 HD 
HETATM   26  H   UNL     1      -9.604   4.999  64.389  1.00  0.00     0.000 HD 
HETATM   27  C   UNL     1      -8.019   6.354  64.669  1.00  0.00    -0.118 C  
HETATM   28  O   UNL     1      -7.551   6.294  63.538  1.00  0.00    -0.073 OA 
ENDBRANCH  14  15
ENDBRANCH  13  14
ENDBRANCH  12  13
BRANCH  12  29
HETATM   29  C   UNL     1      -8.560   8.335  71.338  1.00  0.00    -0.149 C  
HETATM   30  O   UNL     1      -7.958   8.753  72.565  1.00  0.00    -0.373 OA 
HETATM   31  H   UNL     1      -7.750   7.989  73.090  1.00  0.00     0.000 HD 
ENDBRANCH  12  29
ENDBRANCH  11  12
ENDBRANCH  10  11
ENDBRANCH   8  10
ENDBRANCH   4   8
TORSDOF 8
ENDMDL
MODEL      351
REMARK 921   NORMALIZED FREE ENERGY PREDICTED BY IDOCK:   -3.28 KCAL/MOL
REMARK 922        TOTAL FREE ENERGY PREDICTED BY IDOCK:   -6.02 KCAL/MOL
REMARK 923 INTER-LIGAND FREE ENERGY PREDICTED BY IDOCK:   -5.28 KCAL/MOL
REMARK 924 INTRA-LIGAND FREE ENERGY PREDICTED BY IDOCK:   -0.74 KCAL/MOL
REMARK 927      BINDING AFFINITY PREDICTED BY RF-SCORE:    0.00 PKD
ROOT
HETATM    1  C   UNL     1      -7.731   8.507  66.085  1.00  0.00    -0.093 C  
HETATM    2  C   UNL     1      -7.648   9.594  67.163  1.00  0.00    -0.091 C  
HETATM    3  C   UNL     1      -6.951  10.835  66.597  1.00  0.00    -0.129 C  
HETATM    4  C   UNL     1      -6.978   9.102  68.471  1.00  0.00    -0.067 C  
HETATM    5  N   UNL     1      -5.595   8.626  68.238  1.00  0.00    -0.038 NA 
HETATM    6  H1  UNL     1      -5.154   8.302  69.099  1.00  0.00     0.000 HD 
HETATM    7  H2  UNL     1      -5.030   9.339  67.779  1.00  0.00     0.000 HD 
ENDROOT
BRANCH   4   8
HETATM    8  C   UNL     1      -7.834   8.018  69.158  1.00  0.00    -0.108 C  
HETATM    9  O   UNL     1      -8.080   6.919  68.677  1.00  0.00    -0.118 OA 
BRANCH   8  10
HETATM   10  O   UNL     1      -8.350   8.462  70.344  1.00  0.00    -0.112 OA 
BRANCH  10  11
HETATM   11  C   UNL     1      -9.238   9.592  70.266  1.00  0.00    -0.258 C  
BRANCH  11  12
HETATM   12  C   UNL     1     -10.508   9.208  69.490  1.00  0.00    -0.219 C  
BRANCH  12  13
HETATM   13  O   UNL     1     -11.044  10.298  68.704  1.00  0.00    -0.243 OA 
BRANCH  13  14
HETATM   14  C   UNL     1     -10.342  11.524  68.898  1.00  0.00    -0.169 C  
BRANCH  14  15
HETATM   15  N   UNL     1     -10.382  12.290  67.672  1.00  0.00    -0.202 NA 
HETATM   16  C   UNL     1     -10.624  11.769  66.423  1.00  0.00    -0.255 A  
HETATM   17  N   UNL     1     -10.733  12.709  65.504  1.00  0.00    -0.269 NA 
HETATM   18  C   UNL     1     -10.558  13.892  66.188  1.00  0.00    -0.291 A  
HETATM   19  C   UNL     1     -10.339  13.634  67.518  1.00  0.00    -0.241 A  
HETATM   20  N   UNL     1     -10.156  14.609  68.415  1.00  0.00    -0.230 NA 
HETATM   21  C   UNL     1     -10.225  15.898  67.947  1.00  0.00    -0.251 C  
HETATM   22  N   UNL     1     -10.096  16.833  68.920  1.00  0.00    -0.269 NA 
HETATM   23  N   UNL     1     -10.427  16.257  66.713  1.00  0.00    -0.298 N  
HETATM   24  H2  UNL     1      -9.961  16.601  69.904  1.00  0.00     0.000 HD 
HETATM   25  H1  UNL     1     -10.146  17.791  68.573  1.00  0.00     0.000 HD 
HETATM   26  H   UNL     1     -10.461  17.247  66.470  1.00  0.00     0.000 HD 
HETATM   27  C   UNL     1     -10.599  15.287  65.718  1.00  0.00    -0.347 C  
HETATM   28  O   UNL     1     -10.778  15.576  64.541  1.00  0.00    -0.321 OA 
ENDBRANCH  14  15
ENDBRANCH  13  14
ENDBRANCH  12  13
BRANCH  12  29
HETATM   29  C   UNL     1     -11.609   8.756  70.462  1.00  0.00    -0.147 C  
HETATM   30  O   UNL     1     -11.916   7.381  70.223  1.00  0.00    -0.517 OA 
HETATM   31  H   UNL     1     -12.597   7.102  70.824  1.00  0.00     0.000 HD 
ENDBRANCH  12  29
ENDBRANCH  11  12
ENDBRANCH  10  11
ENDBRANCH   8  10
ENDBRANCH   4   8
TORSDOF 8
ENDMDL
MODEL      352
REMARK 921   NORMALIZED FREE ENERGY PREDICTED BY IDOCK:   -3.27 KCAL/MOL
REMARK 922        TOTAL FREE ENERGY PREDICTED BY IDOCK:   -6.02 KCAL/MOL
REMARK 923 INTER-LIGAND FREE ENERGY PREDICTED BY IDOCK:   -5.84 KCAL/MOL
REMARK 924 INTRA-LIGAND FREE ENERGY PREDICTED BY IDOCK:   -0.18 KCAL/MOL
REMARK 927      BINDING AFFINITY PREDICTED BY RF-SCORE:    0.00 PKD
ROOT
HETATM    1  C   UNL     1     -12.439  12.659  64.995  1.00  0.00    -0.556 C  
HETATM    2  C   UNL     1     -12.242  14.094  65.500  1.00  0.00    -0.443 C  
HETATM    3  C   UNL     1     -11.861  15.008  64.331  1.00  0.00    -0.349 C  
HETATM    4  C   UNL     1     -11.226  14.194  66.666  1.00  0.00    -0.325 C  
HETATM    5  N   UNL     1      -9.889  13.692  66.278  1.00  0.00    -0.297 NA 
HETATM    6  H1  UNL     1      -9.221  13.759  67.046  1.00  0.00     0.000 HD 
HETATM    7  H2  UNL     1      -9.543  14.166  65.444  1.00  0.00     0.000 HD 
ENDROOT
BRANCH   4   8
HETATM    8  C   UNL     1     -11.753  13.471  67.923  1.00  0.00    -0.357 C  
HETATM    9  O   UNL     1     -12.256  14.034  68.888  1.00  0.00    -0.345 OA 
BRANCH   8  10
HETATM   10  O   UNL     1     -11.525  12.125  67.861  1.00  0.00    -0.283 OA 
BRANCH  10  11
HETATM   11  C   UNL     1     -10.666  11.579  68.878  1.00  0.00    -0.207 C  
BRANCH  11  12
HETATM   12  C   UNL     1      -9.997  10.294  68.366  1.00  0.00    -0.157 C  
BRANCH  12  13
HETATM   13  O   UNL     1      -9.695   9.351  69.420  1.00  0.00    -0.164 OA 
BRANCH  13  14
HETATM   14  C   UNL     1     -10.771   8.455  69.693  1.00  0.00    -0.198 C  
BRANCH  14  15
HETATM   15  N   UNL     1     -10.671   7.314  68.811  1.00  0.00    -0.178 NA 
HETATM   16  C   UNL     1     -10.760   7.366  67.440  1.00  0.00    -0.278 A  
HETATM   17  N   UNL     1     -10.503   6.198  66.880  1.00  0.00    -0.248 NA 
HETATM   18  C   UNL     1     -10.230   5.354  67.935  1.00  0.00    -0.165 A  
HETATM   19  C   UNL     1     -10.337   6.039  69.120  1.00  0.00    -0.229 A  
HETATM   20  N   UNL     1     -10.104   5.461  70.303  1.00  0.00    -0.227 NA 
HETATM   21  C   UNL     1      -9.723   4.142  70.280  1.00  0.00    -0.207 C  
HETATM   22  N   UNL     1      -9.441   3.640  71.508  1.00  0.00    -0.138 NA 
HETATM   23  N   UNL     1      -9.589   3.399  69.220  1.00  0.00    -0.138 N  
HETATM   24  H2  UNL     1      -9.506   4.190  72.365  1.00  0.00     0.000 HD 
HETATM   25  H1  UNL     1      -9.158   2.661  71.492  1.00  0.00     0.000 HD 
HETATM   26  H   UNL     1      -9.298   2.426  69.314  1.00  0.00     0.000 HD 
HETATM   27  C   UNL     1      -9.844   3.934  67.951  1.00  0.00     0.010 C  
HETATM   28  O   UNL     1      -9.745   3.271  66.926  1.00  0.00    -0.105 OA 
ENDBRANCH  14  15
ENDBRANCH  13  14
ENDBRANCH  12  13
BRANCH  12  29
HETATM   29  C   UNL     1      -8.676  10.628  67.655  1.00  0.00    -0.121 C  
HETATM   30  O   UNL     1      -8.052  11.734  68.311  1.00  0.00    -0.140 OA 
HETATM   31  H   UNL     1      -7.236  11.941  67.871  1.00  0.00     0.000 HD 
ENDBRANCH  12  29
ENDBRANCH  11  12
ENDBRANCH  10  11
ENDBRANCH   8  10
ENDBRANCH   4   8
TORSDOF 8
ENDMDL
MODEL      353
REMARK 921   NORMALIZED FREE ENERGY PREDICTED BY IDOCK:   -3.27 KCAL/MOL
REMARK 922        TOTAL FREE ENERGY PREDICTED BY IDOCK:   -6.01 KCAL/MOL
REMARK 923 INTER-LIGAND FREE ENERGY PREDICTED BY IDOCK:   -5.03 KCAL/MOL
REMARK 924 INTRA-LIGAND FREE ENERGY PREDICTED BY IDOCK:   -0.98 KCAL/MOL
REMARK 927      BINDING AFFINITY PREDICTED BY RF-SCORE:    0.00 PKD
ROOT
HETATM    1  C   UNL     1      -9.964   4.969  72.093  1.00  0.00    -0.236 C  
HETATM    2  C   UNL     1      -9.722   3.927  70.994  1.00  0.00    -0.252 C  
HETATM    3  C   UNL     1      -9.193   2.631  71.616  1.00  0.00    -0.177 C  
HETATM    4  C   UNL     1      -8.800   4.443  69.861  1.00  0.00    -0.083 C  
HETATM    5  N   UNL     1      -7.468   4.841  70.370  1.00  0.00    -0.050 NA 
HETATM    6  H1  UNL     1      -6.862   5.181  69.624  1.00  0.00     0.000 HD 
HETATM    7  H2  UNL     1      -7.027   4.083  70.890  1.00  0.00     0.000 HD 
ENDROOT
BRANCH   4   8
HETATM    8  C   UNL     1      -9.470   5.594  69.083  1.00  0.00    -0.126 C  
HETATM    9  O   UNL     1     -10.432   5.460  68.337  1.00  0.00    -0.178 OA 
BRANCH   8  10
HETATM   10  O   UNL     1      -8.812   6.778  69.271  1.00  0.00    -0.137 OA 
BRANCH  10  11
HETATM   11  C   UNL     1      -9.639   7.935  69.489  1.00  0.00    -0.160 C  
BRANCH  11  12
HETATM   12  C   UNL     1      -9.489   8.915  68.314  1.00  0.00    -0.140 C  
BRANCH  12  13
HETATM   13  O   UNL     1      -9.462  10.300  68.729  1.00  0.00    -0.160 OA 
BRANCH  13  14
HETATM   14  C   UNL     1      -9.308  11.207  67.639  1.00  0.00    -0.165 C  
BRANCH  14  15
HETATM   15  N   UNL     1      -9.931  12.466  67.981  1.00  0.00    -0.201 NA 
HETATM   16  C   UNL     1     -11.285  12.666  68.114  1.00  0.00    -0.269 A  
HETATM   17  N   UNL     1     -11.567  13.877  68.559  1.00  0.00    -0.309 NA 
HETATM   18  C   UNL     1     -10.343  14.485  68.726  1.00  0.00    -0.243 A  
HETATM   19  C   UNL     1      -9.339  13.620  68.367  1.00  0.00    -0.181 A  
HETATM   20  N   UNL     1      -8.046  13.951  68.451  1.00  0.00    -0.142 NA 
HETATM   21  C   UNL     1      -7.760  15.201  68.943  1.00  0.00    -0.159 C  
HETATM   22  N   UNL     1      -6.432  15.443  69.061  1.00  0.00    -0.108 NA 
HETATM   23  N   UNL     1      -8.628  16.098  69.312  1.00  0.00    -0.234 N  
HETATM   24  H2  UNL     1      -5.714  14.763  68.809  1.00  0.00     0.000 HD 
HETATM   25  H1  UNL     1      -6.219  16.372  69.426  1.00  0.00     0.000 HD 
HETATM   26  H   UNL     1      -8.308  16.999  69.666  1.00  0.00     0.000 HD 
HETATM   27  C   UNL     1      -9.999  15.827  69.225  1.00  0.00    -0.262 C  
HETATM   28  O   UNL     1     -10.853  16.644  69.547  1.00  0.00    -0.321 OA 
ENDBRANCH  14  15
ENDBRANCH  13  14
ENDBRANCH  12  13
BRANCH  12  29
HETATM   29  C   UNL     1     -10.659   8.751  67.332  1.00  0.00    -0.233 C  
HETATM   30  O   UNL     1     -10.456   7.576  66.544  1.00  0.00    -0.498 OA 
HETATM   31  H   UNL     1     -11.179   7.475  65.937  1.00  0.00     0.000 HD 
ENDBRANCH  12  29
ENDBRANCH  11  12
ENDBRANCH  10  11
ENDBRANCH   8  10
ENDBRANCH   4   8
TORSDOF 8
ENDMDL
MODEL      354
REMARK 921   NORMALIZED FREE ENERGY PREDICTED BY IDOCK:   -3.27 KCAL/MOL
REMARK 922        TOTAL FREE ENERGY PREDICTED BY IDOCK:   -6.01 KCAL/MOL
REMARK 923 INTER-LIGAND FREE ENERGY PREDICTED BY IDOCK:   -5.25 KCAL/MOL
REMARK 924 INTRA-LIGAND FREE ENERGY PREDICTED BY IDOCK:   -0.76 KCAL/MOL
REMARK 927      BINDING AFFINITY PREDICTED BY RF-SCORE:    0.00 PKD
ROOT
HETATM    1  C   UNL     1      -6.006   5.231  66.173  1.00  0.00    -0.022 C  
HETATM    2  C   UNL     1      -7.392   4.676  66.526  1.00  0.00    -0.081 C  
HETATM    3  C   UNL     1      -7.824   3.651  65.473  1.00  0.00    -0.089 C  
HETATM    4  C   UNL     1      -8.457   5.784  66.726  1.00  0.00    -0.112 C  
HETATM    5  N   UNL     1      -8.627   6.612  65.511  1.00  0.00    -0.267 NA 
HETATM    6  H1  UNL     1      -9.328   7.341  65.642  1.00  0.00     0.000 HD 
HETATM    7  H2  UNL     1      -8.840   6.037  64.696  1.00  0.00     0.000 HD 
ENDROOT
BRANCH   4   8
HETATM    8  C   UNL     1      -8.127   6.654  67.956  1.00  0.00    -0.110 C  
HETATM    9  O   UNL     1      -8.111   6.246  69.111  1.00  0.00    -0.107 OA 
BRANCH   8  10
HETATM   10  O   UNL     1      -7.923   7.960  67.607  1.00  0.00    -0.119 OA 
BRANCH  10  11
HETATM   11  C   UNL     1      -7.873   8.906  68.691  1.00  0.00    -0.102 C  
BRANCH  11  12
HETATM   12  C   UNL     1      -9.217   9.642  68.807  1.00  0.00    -0.141 C  
BRANCH  12  13
HETATM   13  O   UNL     1      -9.074  11.080  68.863  1.00  0.00    -0.175 OA 
BRANCH  13  14
HETATM   14  C   UNL     1      -9.994  11.767  68.017  1.00  0.00    -0.188 C  
BRANCH  14  15
HETATM   15  N   UNL     1     -10.807  12.650  68.822  1.00  0.00    -0.241 NA 
HETATM   16  C   UNL     1     -11.778  12.242  69.706  1.00  0.00    -0.298 A  
HETATM   17  N   UNL     1     -12.273  13.249  70.401  1.00  0.00    -0.353 NA 
HETATM   18  C   UNL     1     -11.589  14.357  69.952  1.00  0.00    -0.284 A  
HETATM   19  C   UNL     1     -10.692  13.989  68.979  1.00  0.00    -0.211 A  
HETATM   20  N   UNL     1      -9.882  14.871  68.383  1.00  0.00    -0.210 NA 
HETATM   21  C   UNL     1      -9.968  16.173  68.810  1.00  0.00    -0.231 C  
HETATM   22  N   UNL     1      -9.075  16.997  68.210  1.00  0.00    -0.234 NA 
HETATM   23  N   UNL     1     -10.777  16.632  69.721  1.00  0.00    -0.310 N  
HETATM   24  H2  UNL     1      -8.404  16.681  67.510  1.00  0.00     0.000 HD 
HETATM   25  H1  UNL     1      -9.138  17.965  68.526  1.00  0.00     0.000 HD 
HETATM   26  H   UNL     1     -10.759  17.622  69.965  1.00  0.00     0.000 HD 
HETATM   27  C   UNL     1     -11.671  15.768  70.365  1.00  0.00    -0.370 C  
HETATM   28  O   UNL     1     -12.461  16.155  71.218  1.00  0.00    -0.363 OA 
ENDBRANCH  14  15
ENDBRANCH  13  14
ENDBRANCH  12  13
BRANCH  12  29
HETATM   29  C   UNL     1      -9.956   9.203  70.080  1.00  0.00    -0.199 C  
HETATM   30  O   UNL     1     -11.163   8.527  69.718  1.00  0.00    -0.434 OA 
HETATM   31  H   UNL     1     -11.620   8.256  70.505  1.00  0.00     0.000 HD 
ENDBRANCH  12  29
ENDBRANCH  11  12
ENDBRANCH  10  11
ENDBRANCH   8  10
ENDBRANCH   4   8
TORSDOF 8
ENDMDL
MODEL      355
REMARK 921   NORMALIZED FREE ENERGY PREDICTED BY IDOCK:   -3.24 KCAL/MOL
REMARK 922        TOTAL FREE ENERGY PREDICTED BY IDOCK:   -5.98 KCAL/MOL
REMARK 923 INTER-LIGAND FREE ENERGY PREDICTED BY IDOCK:   -4.50 KCAL/MOL
REMARK 924 INTRA-LIGAND FREE ENERGY PREDICTED BY IDOCK:   -1.48 KCAL/MOL
REMARK 927      BINDING AFFINITY PREDICTED BY RF-SCORE:    0.00 PKD
ROOT
HETATM    1  C   UNL     1     -11.281   5.500  69.003  1.00  0.00     0.471 C  
HETATM    2  C   UNL     1     -10.056   6.356  69.348  1.00  0.00    -0.205 C  
HETATM    3  C   UNL     1      -9.955   6.528  70.867  1.00  0.00    -0.204 C  
HETATM    4  C   UNL     1     -10.039   7.718  68.610  1.00  0.00    -0.199 C  
HETATM    5  N   UNL     1     -11.232   8.534  68.929  1.00  0.00    -0.282 NA 
HETATM    6  H1  UNL     1     -11.221   9.431  68.443  1.00  0.00     0.000 HD 
HETATM    7  H2  UNL     1     -11.338   8.660  69.936  1.00  0.00     0.000 HD 
ENDROOT
BRANCH   4   8
HETATM    8  C   UNL     1      -9.886   7.521  67.088  1.00  0.00    -0.201 C  
HETATM    9  O   UNL     1     -10.765   7.753  66.266  1.00  0.00     0.365 OA 
BRANCH   8  10
HETATM   10  O   UNL     1      -8.670   6.984  66.770  1.00  0.00    -0.115 OA 
BRANCH  10  11
HETATM   11  C   UNL     1      -8.576   6.344  65.485  1.00  0.00    -0.109 C  
BRANCH  11  12
HETATM   12  C   UNL     1      -7.649   7.153  64.563  1.00  0.00    -0.107 C  
BRANCH  12  13
HETATM   13  O   UNL     1      -8.326   8.241  63.891  1.00  0.00    -0.130 OA 
BRANCH  13  14
HETATM   14  C   UNL     1      -7.972   9.522  64.408  1.00  0.00    -0.135 C  
BRANCH  14  15
HETATM   15  N   UNL     1      -9.082  10.430  64.219  1.00  0.00    -0.218 NA 
HETATM   16  C   UNL     1      -9.654  10.736  63.007  1.00  0.00    -0.353 A  
HETATM   17  N   UNL     1     -10.730  11.488  63.140  1.00  0.00    -0.279 NA 
HETATM   18  C   UNL     1     -10.864  11.674  64.499  1.00  0.00    -0.324 A  
HETATM   19  C   UNL     1      -9.849  11.028  65.160  1.00  0.00    -0.268 A  
HETATM   20  N   UNL     1      -9.750  11.030  66.494  1.00  0.00    -0.193 NA 
HETATM   21  C   UNL     1     -10.735  11.693  67.184  1.00  0.00    -0.247 C  
HETATM   22  N   UNL     1     -10.607  11.599  68.530  1.00  0.00    -0.208 NA 
HETATM   23  N   UNL     1     -11.738  12.337  66.662  1.00  0.00    -0.374 N  
HETATM   24  H2  UNL     1      -9.853  11.085  68.986  1.00  0.00     0.000 HD 
HETATM   25  H1  UNL     1     -11.337  12.092  69.043  1.00  0.00     0.000 HD 
HETATM   26  H   UNL     1     -12.418  12.797  67.268  1.00  0.00     0.000 HD 
HETATM   27  C   UNL     1     -11.887  12.398  65.271  1.00  0.00    -0.399 C  
HETATM   28  O   UNL     1     -12.807  13.002  64.734  1.00  0.00    -0.708 OA 
ENDBRANCH  14  15
ENDBRANCH  13  14
ENDBRANCH  12  13
BRANCH  12  29
HETATM   29  C   UNL     1      -7.051   6.243  63.479  1.00  0.00    -0.053 C  
HETATM   30  O   UNL     1      -6.234   5.246  64.094  1.00  0.00    -0.022 OA 
HETATM   31  H   UNL     1      -5.864   4.684  63.424  1.00  0.00     0.000 HD 
ENDBRANCH  12  29
ENDBRANCH  11  12
ENDBRANCH  10  11
ENDBRANCH   8  10
ENDBRANCH   4   8
TORSDOF 8
ENDMDL
MODEL      356
REMARK 921   NORMALIZED FREE ENERGY PREDICTED BY IDOCK:   -3.24 KCAL/MOL
REMARK 922        TOTAL FREE ENERGY PREDICTED BY IDOCK:   -5.97 KCAL/MOL
REMARK 923 INTER-LIGAND FREE ENERGY PREDICTED BY IDOCK:   -5.52 KCAL/MOL
REMARK 924 INTRA-LIGAND FREE ENERGY PREDICTED BY IDOCK:   -0.46 KCAL/MOL
REMARK 927      BINDING AFFINITY PREDICTED BY RF-SCORE:    0.00 PKD
ROOT
HETATM    1  C   UNL     1     -11.486  14.411  67.682  1.00  0.00    -0.369 C  
HETATM    2  C   UNL     1     -11.348  13.842  66.264  1.00  0.00    -0.329 C  
HETATM    3  C   UNL     1     -12.660  14.036  65.497  1.00  0.00    -0.543 C  
HETATM    4  C   UNL     1     -10.882  12.365  66.245  1.00  0.00    -0.266 C  
HETATM    5  N   UNL     1     -11.821  11.479  66.970  1.00  0.00    -0.530 NA 
HETATM    6  H1  UNL     1     -11.514  10.507  66.957  1.00  0.00     0.000 HD 
HETATM    7  H2  UNL     1     -12.771  11.572  66.610  1.00  0.00     0.000 HD 
ENDROOT
BRANCH   4   8
HETATM    8  C   UNL     1      -9.447  12.230  66.797  1.00  0.00    -0.222 C  
HETATM    9  O   UNL     1      -8.847  13.116  67.393  1.00  0.00    -0.184 OA 
BRANCH   8  10
HETATM   10  O   UNL     1      -8.896  11.021  66.476  1.00  0.00    -0.158 OA 
BRANCH  10  11
HETATM   11  C   UNL     1      -8.387  10.244  67.574  1.00  0.00    -0.114 C  
BRANCH  11  12
HETATM   12  C   UNL     1      -9.233   8.974  67.755  1.00  0.00    -0.140 C  
BRANCH  12  13
HETATM   13  O   UNL     1      -8.457   7.829  68.178  1.00  0.00    -0.123 OA 
BRANCH  13  14
HETATM   14  C   UNL     1      -7.606   8.111  69.287  1.00  0.00    -0.095 C  
BRANCH  14  15
HETATM   15  N   UNL     1      -8.314   7.814  70.513  1.00  0.00    -0.123 NA 
HETATM   16  C   UNL     1      -8.834   8.753  71.372  1.00  0.00    -0.225 A  
HETATM   17  N   UNL     1      -9.540   8.203  72.341  1.00  0.00    -0.236 NA 
HETATM   18  C   UNL     1      -9.479   6.848  72.097  1.00  0.00    -0.138 A  
HETATM   19  C   UNL     1      -8.723   6.610  70.977  1.00  0.00    -0.138 A  
HETATM   20  N   UNL     1      -8.516   5.376  70.503  1.00  0.00    -0.119 NA 
HETATM   21  C   UNL     1      -9.123   4.347  71.179  1.00  0.00    -0.126 C  
HETATM   22  N   UNL     1      -8.924   3.134  70.606  1.00  0.00    -0.085 NA 
HETATM   23  N   UNL     1      -9.859   4.457  72.247  1.00  0.00    -0.164 N  
HETATM   24  H2  UNL     1      -8.377   3.000  69.756  1.00  0.00     0.000 HD 
HETATM   25  H1  UNL     1      -9.374   2.369  71.108  1.00  0.00     0.000 HD 
HETATM   26  H   UNL     1     -10.266   3.624  72.672  1.00  0.00     0.000 HD 
HETATM   27  C   UNL     1     -10.093   5.716  72.812  1.00  0.00    -0.180 C  
HETATM   28  O   UNL     1     -10.767   5.869  73.823  1.00  0.00    -0.264 OA 
ENDBRANCH  14  15
ENDBRANCH  13  14
ENDBRANCH  12  13
BRANCH  12  29
HETATM   29  C   UNL     1      -9.922   8.601  66.433  1.00  0.00    -0.260 C  
HETATM   30  O   UNL     1      -9.295   7.441  65.883  1.00  0.00    -0.383 OA 
HETATM   31  H   UNL     1      -9.720   7.210  65.065  1.00  0.00     0.000 HD 
ENDBRANCH  12  29
ENDBRANCH  11  12
ENDBRANCH  10  11
ENDBRANCH   8  10
ENDBRANCH   4   8
TORSDOF 8
ENDMDL
MODEL      357
REMARK 921   NORMALIZED FREE ENERGY PREDICTED BY IDOCK:   -3.24 KCAL/MOL
REMARK 922        TOTAL FREE ENERGY PREDICTED BY IDOCK:   -5.97 KCAL/MOL
REMARK 923 INTER-LIGAND FREE ENERGY PREDICTED BY IDOCK:   -6.06 KCAL/MOL
REMARK 924 INTRA-LIGAND FREE ENERGY PREDICTED BY IDOCK:    0.09 KCAL/MOL
REMARK 927      BINDING AFFINITY PREDICTED BY RF-SCORE:    0.00 PKD
ROOT
HETATM    1  C   UNL     1     -10.987  15.654  65.889  1.00  0.00    -0.231 C  
HETATM    2  C   UNL     1     -10.450  16.184  67.224  1.00  0.00    -0.309 C  
HETATM    3  C   UNL     1     -10.861  17.649  67.404  1.00  0.00    -0.178 C  
HETATM    4  C   UNL     1      -8.921  15.990  67.384  1.00  0.00    -0.191 C  
HETATM    5  N   UNL     1      -8.162  16.678  66.316  1.00  0.00    -0.322 NA 
HETATM    6  H1  UNL     1      -7.156  16.550  66.422  1.00  0.00     0.000 HD 
HETATM    7  H2  UNL     1      -8.406  17.667  66.266  1.00  0.00     0.000 HD 
ENDROOT
BRANCH   4   8
HETATM    8  C   UNL     1      -8.558  14.492  67.452  1.00  0.00    -0.201 C  
HETATM    9  O   UNL     1      -7.420  14.049  67.355  1.00  0.00    -0.173 OA 
BRANCH   8  10
HETATM   10  O   UNL     1      -9.672  13.708  67.563  1.00  0.00    -0.218 OA 
BRANCH  10  11
HETATM   11  C   UNL     1      -9.472  12.394  68.114  1.00  0.00    -0.214 C  
BRANCH  11  12
HETATM   12  C   UNL     1     -10.459  11.403  67.476  1.00  0.00    -0.201 C  
BRANCH  12  13
HETATM   13  O   UNL     1     -10.084  10.020  67.676  1.00  0.00    -0.171 OA 
BRANCH  13  14
HETATM   14  C   UNL     1      -8.695   9.853  67.954  1.00  0.00    -0.129 C  
BRANCH  14  15
HETATM   15  N   UNL     1      -8.538   9.396  69.317  1.00  0.00    -0.136 NA 
HETATM   16  C   UNL     1      -7.479   9.707  70.136  1.00  0.00    -0.153 A  
HETATM   17  N   UNL     1      -7.656   9.265  71.367  1.00  0.00    -0.341 NA 
HETATM   18  C   UNL     1      -8.886   8.646  71.345  1.00  0.00    -0.215 A  
HETATM   19  C   UNL     1      -9.425   8.723  70.085  1.00  0.00    -0.169 A  
HETATM   20  N   UNL     1     -10.627   8.216  69.790  1.00  0.00    -0.231 NA 
HETATM   21  C   UNL     1     -11.320   7.631  70.821  1.00  0.00    -0.281 C  
HETATM   22  N   UNL     1     -12.554   7.198  70.464  1.00  0.00    -0.602 NA 
HETATM   23  N   UNL     1     -10.908   7.503  72.048  1.00  0.00    -0.226 N  
HETATM   24  H2  UNL     1     -12.932   7.299  69.522  1.00  0.00     0.000 HD 
HETATM   25  H1  UNL     1     -13.069   6.763  71.230  1.00  0.00     0.000 HD 
HETATM   26  H   UNL     1     -11.504   7.051  72.741  1.00  0.00     0.000 HD 
HETATM   27  C   UNL     1      -9.647   7.987  72.420  1.00  0.00    -0.232 C  
HETATM   28  O   UNL     1      -9.210   7.878  73.559  1.00  0.00    -0.263 OA 
ENDBRANCH  14  15
ENDBRANCH  13  14
ENDBRANCH  12  13
BRANCH  12  29
HETATM   29  C   UNL     1     -10.547  11.642  65.960  1.00  0.00    -0.258 C  
HETATM   30  O   UNL     1      -9.315  12.197  65.495  1.00  0.00    -0.416 OA 
HETATM   31  H   UNL     1      -9.370  12.345  64.558  1.00  0.00     0.000 HD 
ENDBRANCH  12  29
ENDBRANCH  11  12
ENDBRANCH  10  11
ENDBRANCH   8  10
ENDBRANCH   4   8
TORSDOF 8
ENDMDL
MODEL      358
REMARK 921   NORMALIZED FREE ENERGY PREDICTED BY IDOCK:   -3.23 KCAL/MOL
REMARK 922        TOTAL FREE ENERGY PREDICTED BY IDOCK:   -5.96 KCAL/MOL
REMARK 923 INTER-LIGAND FREE ENERGY PREDICTED BY IDOCK:   -5.40 KCAL/MOL
REMARK 924 INTRA-LIGAND FREE ENERGY PREDICTED BY IDOCK:   -0.55 KCAL/MOL
REMARK 927      BINDING AFFINITY PREDICTED BY RF-SCORE:    0.00 PKD
ROOT
HETATM    1  C   UNL     1     -12.062  11.771  68.202  1.00  0.00    -0.040 C  
HETATM    2  C   UNL     1     -11.371  13.107  68.502  1.00  0.00    -0.321 C  
HETATM    3  C   UNL     1     -12.066  13.799  69.678  1.00  0.00    -0.392 C  
HETATM    4  C   UNL     1     -11.274  14.032  67.263  1.00  0.00    -0.312 C  
HETATM    5  N   UNL     1     -12.608  14.358  66.711  1.00  0.00    -0.448 NA 
HETATM    6  H1  UNL     1     -12.544  14.968  65.896  1.00  0.00     0.000 HD 
HETATM    7  H2  UNL     1     -13.217  14.758  67.425  1.00  0.00     0.000 HD 
ENDROOT
BRANCH   4   8
HETATM    8  C   UNL     1     -10.357  13.419  66.184  1.00  0.00    -0.295 C  
HETATM    9  O   UNL     1     -10.749  12.966  65.116  1.00  0.00    -0.289 OA 
BRANCH   8  10
HETATM   10  O   UNL     1      -9.054  13.377  66.597  1.00  0.00    -0.234 OA 
BRANCH  10  11
HETATM   11  C   UNL     1      -8.581  14.524  67.325  1.00  0.00    -0.215 C  
BRANCH  11  12
HETATM   12  C   UNL     1      -7.384  14.130  68.204  1.00  0.00    -0.130 C  
BRANCH  12  13
HETATM   13  O   UNL     1      -7.512  12.809  68.779  1.00  0.00    -0.111 OA 
BRANCH  13  14
HETATM   14  C   UNL     1      -6.827  11.805  68.031  1.00  0.00    -0.074 C  
BRANCH  14  15
HETATM   15  N   UNL     1      -7.788  10.840  67.546  1.00  0.00    -0.108 NA 
HETATM   16  C   UNL     1      -7.810  10.318  66.274  1.00  0.00    -0.118 A  
HETATM   17  N   UNL     1      -8.712   9.363  66.144  1.00  0.00    -0.142 NA 
HETATM   18  C   UNL     1      -9.297   9.259  67.387  1.00  0.00    -0.127 A  
HETATM   19  C   UNL     1      -8.732  10.168  68.246  1.00  0.00    -0.120 A  
HETATM   20  N   UNL     1      -9.103  10.268  69.527  1.00  0.00    -0.197 NA 
HETATM   21  C   UNL     1     -10.068   9.390  69.959  1.00  0.00    -0.226 C  
HETATM   22  N   UNL     1     -10.347   9.504  71.281  1.00  0.00    -0.285 NA 
HETATM   23  N   UNL     1     -10.668   8.491  69.235  1.00  0.00    -0.366 N  
HETATM   24  H2  UNL     1      -9.886  10.175  71.894  1.00  0.00     0.000 HD 
HETATM   25  H1  UNL     1     -11.064   8.853  71.602  1.00  0.00     0.000 HD 
HETATM   26  H   UNL     1     -11.373   7.886  69.656  1.00  0.00     0.000 HD 
HETATM   27  C   UNL     1     -10.347   8.352  67.879  1.00  0.00    -0.221 C  
HETATM   28  O   UNL     1     -10.894   7.530  67.154  1.00  0.00    -0.324 OA 
ENDBRANCH  14  15
ENDBRANCH  13  14
ENDBRANCH  12  13
BRANCH  12  29
HETATM   29  C   UNL     1      -7.226  15.124  69.365  1.00  0.00    -0.198 C  
HETATM   30  O   UNL     1      -5.967  15.791  69.250  1.00  0.00    -0.112 OA 
HETATM   31  H   UNL     1      -5.869  16.405  69.968  1.00  0.00     0.000 HD 
ENDBRANCH  12  29
ENDBRANCH  11  12
ENDBRANCH  10  11
ENDBRANCH   8  10
ENDBRANCH   4   8
TORSDOF 8
ENDMDL
MODEL      359
REMARK 921   NORMALIZED FREE ENERGY PREDICTED BY IDOCK:   -3.23 KCAL/MOL
REMARK 922        TOTAL FREE ENERGY PREDICTED BY IDOCK:   -5.96 KCAL/MOL
REMARK 923 INTER-LIGAND FREE ENERGY PREDICTED BY IDOCK:   -5.08 KCAL/MOL
REMARK 924 INTRA-LIGAND FREE ENERGY PREDICTED BY IDOCK:   -0.88 KCAL/MOL
REMARK 927      BINDING AFFINITY PREDICTED BY RF-SCORE:    0.00 PKD
ROOT
HETATM    1  C   UNL     1      -7.485   5.488  68.925  1.00  0.00    -0.082 C  
HETATM    2  C   UNL     1      -6.171   6.236  69.184  1.00  0.00    -0.033 C  
HETATM    3  C   UNL     1      -5.740   6.038  70.640  1.00  0.00    -0.018 C  
HETATM    4  C   UNL     1      -6.240   7.736  68.800  1.00  0.00    -0.039 C  
HETATM    5  N   UNL     1      -7.292   8.452  69.556  1.00  0.00    -0.071 NA 
HETATM    6  H1  UNL     1      -7.337   9.439  69.303  1.00  0.00     0.000 HD 
HETATM    7  H2  UNL     1      -7.174   8.332  70.561  1.00  0.00     0.000 HD 
ENDROOT
BRANCH   4   8
HETATM    8  C   UNL     1      -6.426   7.910  67.279  1.00  0.00    -0.056 C  
HETATM    9  O   UNL     1      -5.529   7.790  66.452  1.00  0.00    -0.024 OA 
BRANCH   8  10
HETATM   10  O   UNL     1      -7.702   8.287  66.968  1.00  0.00    -0.094 OA 
BRANCH  10  11
HETATM   11  C   UNL     1      -7.843   9.544  66.282  1.00  0.00    -0.100 C  
BRANCH  11  12
HETATM   12  C   UNL     1      -9.319   9.974  66.274  1.00  0.00    -0.168 C  
BRANCH  12  13
HETATM   13  O   UNL     1      -9.506  11.355  65.890  1.00  0.00    -0.216 OA 
BRANCH  13  14
HETATM   14  C   UNL     1     -10.875  11.758  65.900  1.00  0.00    -0.291 C  
BRANCH  14  15
HETATM   15  N   UNL     1     -10.963  13.142  65.491  1.00  0.00    -0.276 NA 
HETATM   16  C   UNL     1     -11.894  13.648  64.615  1.00  0.00    -0.397 A  
HETATM   17  N   UNL     1     -11.826  14.963  64.523  1.00  0.00    -0.426 NA 
HETATM   18  C   UNL     1     -10.810  15.325  65.380  1.00  0.00    -0.387 A  
HETATM   19  C   UNL     1     -10.279  14.206  65.971  1.00  0.00    -0.308 A  
HETATM   20  N   UNL     1      -9.286  14.273  66.865  1.00  0.00    -0.246 NA 
HETATM   21  C   UNL     1      -8.834  15.528  67.191  1.00  0.00    -0.212 C  
HETATM   22  N   UNL     1      -7.875  15.524  68.149  1.00  0.00    -0.125 NA 
HETATM   23  N   UNL     1      -9.264  16.652  66.696  1.00  0.00    -0.238 N  
HETATM   24  H2  UNL     1      -7.524  14.672  68.586  1.00  0.00     0.000 HD 
HETATM   25  H1  UNL     1      -7.538  16.456  68.391  1.00  0.00     0.000 HD 
HETATM   26  H   UNL     1      -8.858  17.534  67.009  1.00  0.00     0.000 HD 
HETATM   27  C   UNL     1     -10.282  16.652  65.735  1.00  0.00    -0.307 C  
HETATM   28  O   UNL     1     -10.710  17.683  65.230  1.00  0.00    -0.649 OA 
ENDBRANCH  14  15
ENDBRANCH  13  14
ENDBRANCH  12  13
BRANCH  12  29
HETATM   29  C   UNL     1      -9.933   9.797  67.671  1.00  0.00    -0.174 C  
HETATM   30  O   UNL     1      -9.114  10.461  68.636  1.00  0.00    -0.141 OA 
HETATM   31  H   UNL     1      -9.493  10.351  69.500  1.00  0.00     0.000 HD 
ENDBRANCH  12  29
ENDBRANCH  11  12
ENDBRANCH  10  11
ENDBRANCH   8  10
ENDBRANCH   4   8
TORSDOF 8
ENDMDL
MODEL      360
REMARK 921   NORMALIZED FREE ENERGY PREDICTED BY IDOCK:   -3.23 KCAL/MOL
REMARK 922        TOTAL FREE ENERGY PREDICTED BY IDOCK:   -5.95 KCAL/MOL
REMARK 923 INTER-LIGAND FREE ENERGY PREDICTED BY IDOCK:   -4.80 KCAL/MOL
REMARK 924 INTRA-LIGAND FREE ENERGY PREDICTED BY IDOCK:   -1.15 KCAL/MOL
REMARK 927      BINDING AFFINITY PREDICTED BY RF-SCORE:    0.00 PKD
ROOT
HETATM    1  C   UNL     1      -7.474   5.538  68.918  1.00  0.00    -0.082 C  
HETATM    2  C   UNL     1      -6.147   6.273  69.144  1.00  0.00    -0.029 C  
HETATM    3  C   UNL     1      -5.718   6.130  70.608  1.00  0.00    -0.018 C  
HETATM    4  C   UNL     1      -6.190   7.756  68.698  1.00  0.00    -0.036 C  
HETATM    5  N   UNL     1      -7.229   8.521  69.422  1.00  0.00    -0.061 NA 
HETATM    6  H1  UNL     1      -7.257   9.497  69.128  1.00  0.00     0.000 HD 
HETATM    7  H2  UNL     1      -7.112   8.442  70.432  1.00  0.00     0.000 HD 
ENDROOT
BRANCH   4   8
HETATM    8  C   UNL     1      -6.374   7.869  67.170  1.00  0.00    -0.055 C  
HETATM    9  O   UNL     1      -5.533   7.535  66.344  1.00  0.00    -0.024 OA 
BRANCH   8  10
HETATM   10  O   UNL     1      -7.565   8.456  66.849  1.00  0.00    -0.089 OA 
BRANCH  10  11
HETATM   11  C   UNL     1      -7.486   9.693  66.119  1.00  0.00    -0.098 C  
BRANCH  11  12
HETATM   12  C   UNL     1      -8.796  10.481  66.279  1.00  0.00    -0.159 C  
BRANCH  12  13
HETATM   13  O   UNL     1      -9.306  10.466  67.633  1.00  0.00    -0.147 OA 
BRANCH  13  14
HETATM   14  C   UNL     1     -10.546  11.157  67.770  1.00  0.00    -0.209 C  
BRANCH  14  15
HETATM   15  N   UNL     1     -11.085  10.902  69.088  1.00  0.00    -0.224 NA 
HETATM   16  C   UNL     1     -11.668  11.847  69.898  1.00  0.00    -0.308 A  
HETATM   17  N   UNL     1     -12.188  11.314  70.988  1.00  0.00    -0.342 NA 
HETATM   18  C   UNL     1     -11.936   9.965  70.876  1.00  0.00    -0.345 A  
HETATM   19  C   UNL     1     -11.255   9.713  69.711  1.00  0.00    -0.174 A  
HETATM   20  N   UNL     1     -10.898   8.477  69.344  1.00  0.00    -0.152 NA 
HETATM   21  C   UNL     1     -11.272   7.454  70.180  1.00  0.00    -0.218 C  
HETATM   22  N   UNL     1     -10.935   6.226  69.714  1.00  0.00    -0.340 NA 
HETATM   23  N   UNL     1     -11.917   7.577  71.304  1.00  0.00    -0.298 N  
HETATM   24  H2  UNL     1     -10.452   6.077  68.828  1.00  0.00     0.000 HD 
HETATM   25  H1  UNL     1     -11.212   5.466  70.335  1.00  0.00     0.000 HD 
HETATM   26  H   UNL     1     -12.147   6.748  71.852  1.00  0.00     0.000 HD 
HETATM   27  C   UNL     1     -12.296   8.845  71.761  1.00  0.00    -0.357 C  
HETATM   28  O   UNL     1     -12.892   9.012  72.818  1.00  0.00    -0.334 OA 
ENDBRANCH  14  15
ENDBRANCH  13  14
ENDBRANCH  12  13
BRANCH  12  29
HETATM   29  C   UNL     1      -9.886   9.892  65.370  1.00  0.00    -0.313 C  
HETATM   30  O   UNL     1     -10.017   8.493  65.632  1.00  0.00    -0.386 OA 
HETATM   31  H   UNL     1     -10.690   8.129  65.070  1.00  0.00     0.000 HD 
ENDBRANCH  12  29
ENDBRANCH  11  12
ENDBRANCH  10  11
ENDBRANCH   8  10
ENDBRANCH   4   8
TORSDOF 8
ENDMDL
MODEL      361
REMARK 921   NORMALIZED FREE ENERGY PREDICTED BY IDOCK:   -3.22 KCAL/MOL
REMARK 922        TOTAL FREE ENERGY PREDICTED BY IDOCK:   -5.94 KCAL/MOL
REMARK 923 INTER-LIGAND FREE ENERGY PREDICTED BY IDOCK:   -5.42 KCAL/MOL
REMARK 924 INTRA-LIGAND FREE ENERGY PREDICTED BY IDOCK:   -0.52 KCAL/MOL
REMARK 927      BINDING AFFINITY PREDICTED BY RF-SCORE:    0.00 PKD
ROOT
HETATM    1  C   UNL     1      -7.497   6.817  63.247  1.00  0.00    -0.083 C  
HETATM    2  C   UNL     1      -7.918   8.121  63.936  1.00  0.00    -0.138 C  
HETATM    3  C   UNL     1      -7.188   9.305  63.295  1.00  0.00    -0.092 C  
HETATM    4  C   UNL     1      -7.724   8.086  65.473  1.00  0.00    -0.093 C  
HETATM    5  N   UNL     1      -6.312   7.845  65.846  1.00  0.00    -0.042 NA 
HETATM    6  H1  UNL     1      -6.184   7.822  66.858  1.00  0.00     0.000 HD 
HETATM    7  H2  UNL     1      -5.691   8.526  65.410  1.00  0.00     0.000 HD 
ENDROOT
BRANCH   4   8
HETATM    8  C   UNL     1      -8.661   7.050  66.126  1.00  0.00    -0.145 C  
HETATM    9  O   UNL     1      -8.753   5.879  65.776  1.00  0.00    -0.147 OA 
BRANCH   8  10
HETATM   10  O   UNL     1      -9.434   7.615  67.102  1.00  0.00    -0.141 OA 
BRANCH  10  11
HETATM   11  C   UNL     1     -10.151   8.806  66.733  1.00  0.00    -0.288 C  
BRANCH  11  12
HETATM   12  C   UNL     1     -10.470   9.636  67.987  1.00  0.00    -0.229 C  
BRANCH  12  13
HETATM   13  O   UNL     1     -11.517  10.610  67.773  1.00  0.00    -0.460 OA 
BRANCH  13  14
HETATM   14  C   UNL     1     -11.565  11.093  66.431  1.00  0.00     0.445 C  
BRANCH  14  15
HETATM   15  N   UNL     1     -11.022  12.432  66.392  1.00  0.00    -0.265 NA 
HETATM   16  C   UNL     1     -10.212  12.926  65.397  1.00  0.00    -0.287 A  
HETATM   17  N   UNL     1      -9.970  14.215  65.547  1.00  0.00    -0.319 NA 
HETATM   18  C   UNL     1     -10.657  14.572  66.687  1.00  0.00    -0.283 A  
HETATM   19  C   UNL     1     -11.299  13.476  67.207  1.00  0.00    -0.315 A  
HETATM   20  N   UNL     1     -12.058  13.547  68.306  1.00  0.00    -0.328 NA 
HETATM   21  C   UNL     1     -12.190  14.785  68.885  1.00  0.00    -0.121 C  
HETATM   22  N   UNL     1     -13.023  14.794  69.955  1.00  0.00    -0.577 NA 
HETATM   23  N   UNL     1     -11.630  15.887  68.479  1.00  0.00    -0.376 N  
HETATM   24  H2  UNL     1     -13.505  13.963  70.296  1.00  0.00     0.000 HD 
HETATM   25  H1  UNL     1     -13.121  15.714  70.386  1.00  0.00     0.000 HD 
HETATM   26  H   UNL     1     -11.795  16.758  68.983  1.00  0.00     0.000 HD 
HETATM   27  C   UNL     1     -10.801  15.879  67.350  1.00  0.00    -0.291 C  
HETATM   28  O   UNL     1     -10.241  16.888  66.937  1.00  0.00    -0.284 OA 
ENDBRANCH  14  15
ENDBRANCH  13  14
ENDBRANCH  12  13
BRANCH  12  29
HETATM   29  C   UNL     1      -9.220  10.399  68.452  1.00  0.00    -0.147 C  
HETATM   30  O   UNL     1      -9.617  11.589  69.135  1.00  0.00    -0.414 OA 
HETATM   31  H   UNL     1      -8.845  12.061  69.422  1.00  0.00     0.000 HD 
ENDBRANCH  12  29
ENDBRANCH  11  12
ENDBRANCH  10  11
ENDBRANCH   8  10
ENDBRANCH   4   8
TORSDOF 8
ENDMDL
MODEL      362
REMARK 921   NORMALIZED FREE ENERGY PREDICTED BY IDOCK:   -3.22 KCAL/MOL
REMARK 922        TOTAL FREE ENERGY PREDICTED BY IDOCK:   -5.93 KCAL/MOL
REMARK 923 INTER-LIGAND FREE ENERGY PREDICTED BY IDOCK:   -5.18 KCAL/MOL
REMARK 924 INTRA-LIGAND FREE ENERGY PREDICTED BY IDOCK:   -0.75 KCAL/MOL
REMARK 927      BINDING AFFINITY PREDICTED BY RF-SCORE:    0.00 PKD
ROOT
HETATM    1  C   UNL     1      -7.605   9.004  66.042  1.00  0.00    -0.094 C  
HETATM    2  C   UNL     1      -8.335   8.096  65.045  1.00  0.00    -0.146 C  
HETATM    3  C   UNL     1      -7.966   6.633  65.310  1.00  0.00    -0.123 C  
HETATM    4  C   UNL     1      -8.090   8.495  63.568  1.00  0.00    -0.155 C  
HETATM    5  N   UNL     1      -6.654   8.449  63.214  1.00  0.00    -0.085 NA 
HETATM    6  H1  UNL     1      -6.493   8.711  62.242  1.00  0.00     0.000 HD 
HETATM    7  H2  UNL     1      -6.250   7.536  63.422  1.00  0.00     0.000 HD 
ENDROOT
BRANCH   4   8
HETATM    8  C   UNL     1      -8.698   9.880  63.261  1.00  0.00    -0.223 C  
HETATM    9  O   UNL     1      -8.308  10.627  62.372  1.00  0.00    -0.181 OA 
BRANCH   8  10
HETATM   10  O   UNL     1      -9.683  10.205  64.151  1.00  0.00    -0.307 OA 
BRANCH  10  11
HETATM   11  C   UNL     1     -10.705  11.095  63.669  1.00  0.00    -0.308 C  
BRANCH  11  12
HETATM   12  C   UNL     1     -10.964  12.205  64.701  1.00  0.00    -0.312 C  
BRANCH  12  13
HETATM   13  O   UNL     1     -11.536  11.711  65.934  1.00  0.00    -0.272 OA 
BRANCH  13  14
HETATM   14  C   UNL     1     -11.394  12.624  67.021  1.00  0.00    -0.323 C  
BRANCH  14  15
HETATM   15  N   UNL     1     -10.574  12.016  68.044  1.00  0.00    -0.201 NA 
HETATM   16  C   UNL     1     -11.029  11.148  69.009  1.00  0.00    -0.235 A  
HETATM   17  N   UNL     1     -10.045  10.646  69.730  1.00  0.00    -0.101 NA 
HETATM   18  C   UNL     1      -8.901  11.209  69.208  1.00  0.00     0.188 A  
HETATM   19  C   UNL     1      -9.228  12.053  68.176  1.00  0.00    -0.195 A  
HETATM   20  N   UNL     1      -8.301  12.719  67.477  1.00  0.00    -0.167 NA 
HETATM   21  C   UNL     1      -6.991  12.498  67.823  1.00  0.00    -0.121 C  
HETATM   22  N   UNL     1      -6.106  13.154  67.033  1.00  0.00    -0.415 NA 
HETATM   23  N   UNL     1      -6.569  11.723  68.780  1.00  0.00    -0.068 N  
HETATM   24  H2  UNL     1      -6.386  13.752  66.256  1.00  0.00     0.000 HD 
HETATM   25  H1  UNL     1      -5.133  12.991  67.290  1.00  0.00     0.000 HD 
HETATM   26  H   UNL     1      -5.569  11.628  68.955  1.00  0.00     0.000 HD 
HETATM   27  C   UNL     1      -7.487  11.018  69.569  1.00  0.00    -0.026 C  
HETATM   28  O   UNL     1      -7.139  10.287  70.488  1.00  0.00    -0.298 OA 
ENDBRANCH  14  15
ENDBRANCH  13  14
ENDBRANCH  12  13
BRANCH  12  29
HETATM   29  C   UNL     1     -11.936  13.248  64.128  1.00  0.00    -0.447 C  
HETATM   30  O   UNL     1     -13.279  12.799  64.317  1.00  0.00    -0.567 OA 
HETATM   31  H   UNL     1     -13.880  13.444  63.962  1.00  0.00     0.000 HD 
ENDBRANCH  12  29
ENDBRANCH  11  12
ENDBRANCH  10  11
ENDBRANCH   8  10
ENDBRANCH   4   8
TORSDOF 8
ENDMDL
MODEL      363
REMARK 921   NORMALIZED FREE ENERGY PREDICTED BY IDOCK:   -3.18 KCAL/MOL
REMARK 922        TOTAL FREE ENERGY PREDICTED BY IDOCK:   -5.88 KCAL/MOL
REMARK 923 INTER-LIGAND FREE ENERGY PREDICTED BY IDOCK:   -5.21 KCAL/MOL
REMARK 924 INTRA-LIGAND FREE ENERGY PREDICTED BY IDOCK:   -0.67 KCAL/MOL
REMARK 927      BINDING AFFINITY PREDICTED BY RF-SCORE:    0.00 PKD
ROOT
HETATM    1  C   UNL     1      -9.738  15.223  66.404  1.00  0.00    -0.308 C  
HETATM    2  C   UNL     1     -10.639  14.745  67.549  1.00  0.00    -0.259 C  
HETATM    3  C   UNL     1     -11.254  15.953  68.264  1.00  0.00    -0.354 C  
HETATM    4  C   UNL     1      -9.915  13.796  68.537  1.00  0.00    -0.217 C  
HETATM    5  N   UNL     1      -8.739  14.443  69.162  1.00  0.00    -0.377 NA 
HETATM    6  H1  UNL     1      -8.262  13.818  69.812  1.00  0.00     0.000 HD 
HETATM    7  H2  UNL     1      -8.994  15.321  69.612  1.00  0.00     0.000 HD 
ENDROOT
BRANCH   4   8
HETATM    8  C   UNL     1      -9.526  12.472  67.847  1.00  0.00    -0.196 C  
HETATM    9  O   UNL     1      -8.610  12.352  67.042  1.00  0.00    -0.188 OA 
BRANCH   8  10
HETATM   10  O   UNL     1     -10.375  11.458  68.190  1.00  0.00    -0.177 OA 
BRANCH  10  11
HETATM   11  C   UNL     1     -10.220  10.920  69.515  1.00  0.00    -0.062 C  
BRANCH  11  12
HETATM   12  C   UNL     1     -10.926   9.558  69.614  1.00  0.00    -0.212 C  
BRANCH  12  13
HETATM   13  O   UNL     1     -10.820   8.957  70.925  1.00  0.00    -0.220 OA 
BRANCH  13  14
HETATM   14  C   UNL     1      -9.471   8.806  71.363  1.00  0.00    -0.259 C  
BRANCH  14  15
HETATM   15  N   UNL     1      -9.391   7.678  72.265  1.00  0.00    -0.144 NA 
HETATM   16  C   UNL     1      -9.378   7.764  73.637  1.00  0.00    -0.275 A  
HETATM   17  N   UNL     1      -9.431   6.577  74.210  1.00  0.00    -0.209 NA 
HETATM   18  C   UNL     1      -9.487   5.682  73.164  1.00  0.00    -0.146 A  
HETATM   19  C   UNL     1      -9.458   6.359  71.970  1.00  0.00    -0.151 A  
HETATM   20  N   UNL     1      -9.519   5.731  70.791  1.00  0.00    -0.163 NA 
HETATM   21  C   UNL     1      -9.640   4.364  70.826  1.00  0.00    -0.188 C  
HETATM   22  N   UNL     1      -9.762   3.801  69.599  1.00  0.00    -0.172 NA 
HETATM   23  N   UNL     1      -9.678   3.623  71.895  1.00  0.00    -0.157 N  
HETATM   24  H2  UNL     1      -9.764   4.341  68.733  1.00  0.00     0.000 HD 
HETATM   25  H1  UNL     1      -9.851   2.785  69.624  1.00  0.00     0.000 HD 
HETATM   26  H   UNL     1      -9.771   2.611  71.811  1.00  0.00     0.000 HD 
HETATM   27  C   UNL     1      -9.591   4.214  73.162  1.00  0.00    -0.120 C  
HETATM   28  O   UNL     1      -9.608   3.558  74.197  1.00  0.00    -0.094 OA 
ENDBRANCH  14  15
ENDBRANCH  13  14
ENDBRANCH  12  13
BRANCH  12  29
HETATM   29  C   UNL     1     -10.321   8.571  68.605  1.00  0.00    -0.198 C  
HETATM   30  O   UNL     1     -11.202   8.435  67.488  1.00  0.00    -0.363 OA 
HETATM   31  H   UNL     1     -10.828   7.824  66.864  1.00  0.00     0.000 HD 
ENDBRANCH  12  29
ENDBRANCH  11  12
ENDBRANCH  10  11
ENDBRANCH   8  10
ENDBRANCH   4   8
TORSDOF 8
ENDMDL
MODEL      364
REMARK 921   NORMALIZED FREE ENERGY PREDICTED BY IDOCK:   -3.17 KCAL/MOL
REMARK 922        TOTAL FREE ENERGY PREDICTED BY IDOCK:   -5.86 KCAL/MOL
REMARK 923 INTER-LIGAND FREE ENERGY PREDICTED BY IDOCK:   -5.12 KCAL/MOL
REMARK 924 INTRA-LIGAND FREE ENERGY PREDICTED BY IDOCK:   -0.74 KCAL/MOL
REMARK 927      BINDING AFFINITY PREDICTED BY RF-SCORE:    0.00 PKD
ROOT
HETATM    1  C   UNL     1     -10.427   4.409  65.167  1.00  0.00    -0.184 C  
HETATM    2  C   UNL     1      -9.405   5.550  65.249  1.00  0.00     0.107 C  
HETATM    3  C   UNL     1      -8.262   5.293  64.262  1.00  0.00    -0.132 C  
HETATM    4  C   UNL     1      -8.883   5.796  66.687  1.00  0.00    -0.121 C  
HETATM    5  N   UNL     1      -8.226   4.594  67.249  1.00  0.00    -0.105 NA 
HETATM    6  H1  UNL     1      -7.882   4.756  68.195  1.00  0.00     0.000 HD 
HETATM    7  H2  UNL     1      -7.482   4.258  66.638  1.00  0.00     0.000 HD 
ENDROOT
BRANCH   4   8
HETATM    8  C   UNL     1     -10.014   6.298  67.608  1.00  0.00    -0.131 C  
HETATM    9  O   UNL     1     -10.528   5.636  68.501  1.00  0.00    -0.203 OA 
BRANCH   8  10
HETATM   10  O   UNL     1     -10.427   7.554  67.259  1.00  0.00    -0.262 OA 
BRANCH  10  11
HETATM   11  C   UNL     1      -9.513   8.626  67.551  1.00  0.00    -0.149 C  
BRANCH  11  12
HETATM   12  C   UNL     1      -9.915   9.313  68.866  1.00  0.00    -0.181 C  
BRANCH  12  13
HETATM   13  O   UNL     1     -10.116  10.738  68.724  1.00  0.00    -0.175 OA 
BRANCH  13  14
HETATM   14  C   UNL     1     -10.105  11.171  67.365  1.00  0.00    -0.185 C  
BRANCH  14  15
HETATM   15  N   UNL     1     -10.548  12.546  67.304  1.00  0.00    -0.226 NA 
HETATM   16  C   UNL     1     -11.753  12.966  66.791  1.00  0.00    -0.383 A  
HETATM   17  N   UNL     1     -11.951  14.257  66.981  1.00  0.00    -0.431 NA 
HETATM   18  C   UNL     1     -10.828  14.692  67.650  1.00  0.00    -0.284 A  
HETATM   19  C   UNL     1      -9.966  13.642  67.845  1.00  0.00    -0.244 A  
HETATM   20  N   UNL     1      -8.802  13.783  68.489  1.00  0.00    -0.155 NA 
HETATM   21  C   UNL     1      -8.515  15.034  68.977  1.00  0.00    -0.200 C  
HETATM   22  N   UNL     1      -7.353  15.088  69.673  1.00  0.00    -0.233 NA 
HETATM   23  N   UNL     1      -9.257  16.096  68.852  1.00  0.00    -0.223 N  
HETATM   24  H2  UNL     1      -6.751  14.278  69.820  1.00  0.00     0.000 HD 
HETATM   25  H1  UNL     1      -7.139  16.018  70.035  1.00  0.00     0.000 HD 
HETATM   26  H   UNL     1      -8.950  16.981  69.255  1.00  0.00     0.000 HD 
HETATM   27  C   UNL     1     -10.475  16.025  68.165  1.00  0.00    -0.269 C  
HETATM   28  O   UNL     1     -11.200  17.000  68.009  1.00  0.00    -0.251 OA 
ENDBRANCH  14  15
ENDBRANCH  13  14
ENDBRANCH  12  13
BRANCH  12  29
HETATM   29  C   UNL     1      -8.827   9.105  69.930  1.00  0.00    -0.169 C  
HETATM   30  O   UNL     1      -8.341  10.376  70.367  1.00  0.00    -0.333 OA 
HETATM   31  H   UNL     1      -7.667  10.247  71.024  1.00  0.00     0.000 HD 
ENDBRANCH  12  29
ENDBRANCH  11  12
ENDBRANCH  10  11
ENDBRANCH   8  10
ENDBRANCH   4   8
TORSDOF 8
ENDMDL
MODEL      365
REMARK 921   NORMALIZED FREE ENERGY PREDICTED BY IDOCK:   -3.15 KCAL/MOL
REMARK 922        TOTAL FREE ENERGY PREDICTED BY IDOCK:   -5.84 KCAL/MOL
REMARK 923 INTER-LIGAND FREE ENERGY PREDICTED BY IDOCK:   -5.01 KCAL/MOL
REMARK 924 INTRA-LIGAND FREE ENERGY PREDICTED BY IDOCK:   -0.83 KCAL/MOL
REMARK 927      BINDING AFFINITY PREDICTED BY RF-SCORE:    0.00 PKD
ROOT
HETATM    1  C   UNL     1      -7.603   2.811  72.974  1.00  0.00    -0.050 C  
HETATM    2  C   UNL     1      -8.840   2.785  72.067  1.00  0.00    -0.112 C  
HETATM    3  C   UNL     1      -8.476   2.170  70.711  1.00  0.00    -0.085 C  
HETATM    4  C   UNL     1      -9.507   4.174  71.910  1.00  0.00    -0.140 C  
HETATM    5  N   UNL     1      -8.578   5.172  71.335  1.00  0.00    -0.126 NA 
HETATM    6  H1  UNL     1      -9.018   6.087  71.232  1.00  0.00     0.000 HD 
HETATM    7  H2  UNL     1      -8.186   4.848  70.451  1.00  0.00     0.000 HD 
ENDROOT
BRANCH   4   8
HETATM    8  C   UNL     1     -10.092   4.662  73.252  1.00  0.00    -0.160 C  
HETATM    9  O   UNL     1     -11.181   4.323  73.699  1.00  0.00    -0.275 OA 
BRANCH   8  10
HETATM   10  O   UNL     1      -9.276   5.580  73.852  1.00  0.00    -0.126 OA 
BRANCH  10  11
HETATM   11  C   UNL     1      -9.912   6.781  74.325  1.00  0.00    -0.323 C  
BRANCH  11  12
HETATM   12  C   UNL     1      -9.133   8.013  73.838  1.00  0.00    -0.084 C  
BRANCH  12  13
HETATM   13  O   UNL     1      -8.967   8.049  72.402  1.00  0.00    -0.139 OA 
BRANCH  13  14
HETATM   14  C   UNL     1     -10.087   8.617  71.724  1.00  0.00    -0.310 C  
BRANCH  14  15
HETATM   15  N   UNL     1     -10.420   7.790  70.587  1.00  0.00    -0.211 NA 
HETATM   16  C   UNL     1     -11.117   6.606  70.649  1.00  0.00    -0.298 A  
HETATM   17  N   UNL     1     -11.393   6.128  69.450  1.00  0.00    -0.412 NA 
HETATM   18  C   UNL     1     -10.856   7.045  68.573  1.00  0.00    -0.138 A  
HETATM   19  C   UNL     1     -10.256   8.062  69.272  1.00  0.00    -0.213 A  
HETATM   20  N   UNL     1      -9.669   9.099  68.663  1.00  0.00    -0.152 NA 
HETATM   21  C   UNL     1      -9.717   9.115  67.290  1.00  0.00    -0.173 C  
HETATM   22  N   UNL     1      -9.162  10.225  66.744  1.00  0.00    -0.156 NA 
HETATM   23  N   UNL     1     -10.259   8.209  66.530  1.00  0.00    -0.456 N  
HETATM   24  H2  UNL     1      -8.749  10.974  67.299  1.00  0.00     0.000 HD 
HETATM   25  H1  UNL     1      -9.197  10.237  65.725  1.00  0.00     0.000 HD 
HETATM   26  H   UNL     1     -10.241   8.318  65.516  1.00  0.00     0.000 HD 
HETATM   27  C   UNL     1     -10.865   7.083  67.101  1.00  0.00    -0.357 C  
HETATM   28  O   UNL     1     -11.376   6.197  66.426  1.00  0.00     0.073 OA 
ENDBRANCH  14  15
ENDBRANCH  13  14
ENDBRANCH  12  13
BRANCH  12  29
HETATM   29  C   UNL     1      -7.730   8.037  74.464  1.00  0.00    -0.227 C  
HETATM   30  O   UNL     1      -6.932   9.022  73.803  1.00  0.00    -0.354 OA 
HETATM   31  H   UNL     1      -6.065   9.036  74.190  1.00  0.00     0.000 HD 
ENDBRANCH  12  29
ENDBRANCH  11  12
ENDBRANCH  10  11
ENDBRANCH   8  10
ENDBRANCH   4   8
TORSDOF 8
ENDMDL
MODEL      366
REMARK 921   NORMALIZED FREE ENERGY PREDICTED BY IDOCK:   -3.15 KCAL/MOL
REMARK 922        TOTAL FREE ENERGY PREDICTED BY IDOCK:   -5.83 KCAL/MOL
REMARK 923 INTER-LIGAND FREE ENERGY PREDICTED BY IDOCK:   -5.76 KCAL/MOL
REMARK 924 INTRA-LIGAND FREE ENERGY PREDICTED BY IDOCK:   -0.07 KCAL/MOL
REMARK 927      BINDING AFFINITY PREDICTED BY RF-SCORE:    0.00 PKD
ROOT
HETATM    1  C   UNL     1      -7.827  15.662  67.044  1.00  0.00    -0.266 C  
HETATM    2  C   UNL     1      -7.657  14.748  68.263  1.00  0.00    -0.115 C  
HETATM    3  C   UNL     1      -6.507  15.258  69.137  1.00  0.00    -0.122 C  
HETATM    4  C   UNL     1      -7.476  13.257  67.884  1.00  0.00    -0.143 C  
HETATM    5  N   UNL     1      -6.290  13.045  67.024  1.00  0.00    -0.459 NA 
HETATM    6  H1  UNL     1      -6.171  12.063  66.775  1.00  0.00     0.000 HD 
HETATM    7  H2  UNL     1      -5.447  13.422  67.456  1.00  0.00     0.000 HD 
ENDROOT
BRANCH   4   8
HETATM    8  C   UNL     1      -8.753  12.694  67.225  1.00  0.00    -0.198 C  
HETATM    9  O   UNL     1      -9.654  13.382  66.759  1.00  0.00    -0.247 OA 
BRANCH   8  10
HETATM   10  O   UNL     1      -8.793  11.330  67.288  1.00  0.00    -0.146 OA 
BRANCH  10  11
HETATM   11  C   UNL     1      -7.874  10.710  68.206  1.00  0.00    -0.113 C  
BRANCH  11  12
HETATM   12  C   UNL     1      -8.532   9.483  68.858  1.00  0.00    -0.123 C  
BRANCH  12  13
HETATM   13  O   UNL     1      -9.949   9.386  68.584  1.00  0.00    -0.163 OA 
BRANCH  13  14
HETATM   14  C   UNL     1     -10.322   8.135  68.010  1.00  0.00    -0.211 C  
BRANCH  14  15
HETATM   15  N   UNL     1     -10.576   7.186  69.071  1.00  0.00    -0.213 NA 
HETATM   16  C   UNL     1     -10.066   5.910  69.128  1.00  0.00    -0.190 A  
HETATM   17  N   UNL     1     -10.353   5.310  70.268  1.00  0.00    -0.279 NA 
HETATM   18  C   UNL     1     -11.076   6.240  70.983  1.00  0.00    -0.298 A  
HETATM   19  C   UNL     1     -11.216   7.389  70.246  1.00  0.00    -0.247 A  
HETATM   20  N   UNL     1     -11.862   8.463  70.712  1.00  0.00    -0.222 NA 
HETATM   21  C   UNL     1     -12.363   8.375  71.988  1.00  0.00    -0.361 C  
HETATM   22  N   UNL     1     -12.947   9.521  72.418  1.00  0.00    -0.406 NA 
HETATM   23  N   UNL     1     -12.288   7.340  72.773  1.00  0.00    -0.348 N  
HETATM   24  H2  UNL     1     -13.008  10.366  71.850  1.00  0.00     0.000 HD 
HETATM   25  H1  UNL     1     -13.320   9.456  73.365  1.00  0.00     0.000 HD 
HETATM   26  H   UNL     1     -12.695   7.380  73.707  1.00  0.00     0.000 HD 
HETATM   27  C   UNL     1     -11.650   6.173  72.337  1.00  0.00    -0.292 C  
HETATM   28  O   UNL     1     -11.566   5.169  73.035  1.00  0.00    -0.320 OA 
ENDBRANCH  14  15
ENDBRANCH  13  14
ENDBRANCH  12  13
BRANCH  12  29
HETATM   29  C   UNL     1      -8.361   9.535  70.384  1.00  0.00    -0.192 C  
HETATM   30  O   UNL     1      -8.109   8.218  70.878  1.00  0.00    -0.090 OA 
HETATM   31  H   UNL     1      -8.003   8.250  71.822  1.00  0.00     0.000 HD 
ENDBRANCH  12  29
ENDBRANCH  11  12
ENDBRANCH  10  11
ENDBRANCH   8  10
ENDBRANCH   4   8
TORSDOF 8
ENDMDL
MODEL      367
REMARK 921   NORMALIZED FREE ENERGY PREDICTED BY IDOCK:   -3.14 KCAL/MOL
REMARK 922        TOTAL FREE ENERGY PREDICTED BY IDOCK:   -5.83 KCAL/MOL
REMARK 923 INTER-LIGAND FREE ENERGY PREDICTED BY IDOCK:   -4.45 KCAL/MOL
REMARK 924 INTRA-LIGAND FREE ENERGY PREDICTED BY IDOCK:   -1.38 KCAL/MOL
REMARK 927      BINDING AFFINITY PREDICTED BY RF-SCORE:    0.00 PKD
ROOT
HETATM    1  C   UNL     1      -9.016   8.376  65.523  1.00  0.00    -0.149 C  
HETATM    2  C   UNL     1      -8.880   9.807  64.989  1.00  0.00    -0.224 C  
HETATM    3  C   UNL     1      -8.905   9.795  63.457  1.00  0.00    -0.260 C  
HETATM    4  C   UNL     1      -7.634  10.545  65.540  1.00  0.00    -0.120 C  
HETATM    5  N   UNL     1      -6.378   9.842  65.196  1.00  0.00    -0.087 NA 
HETATM    6  H1  UNL     1      -5.558  10.328  65.558  1.00  0.00     0.000 HD 
HETATM    7  H2  UNL     1      -6.303   9.688  64.190  1.00  0.00     0.000 HD 
ENDROOT
BRANCH   4   8
HETATM    8  C   UNL     1      -7.751  10.769  67.062  1.00  0.00    -0.121 C  
HETATM    9  O   UNL     1      -6.921  10.400  67.884  1.00  0.00    -0.080 OA 
BRANCH   8  10
HETATM   10  O   UNL     1      -8.934  11.369  67.392  1.00  0.00    -0.150 OA 
BRANCH  10  11
HETATM   11  C   UNL     1      -9.163  11.591  68.795  1.00  0.00    -0.067 C  
BRANCH  11  12
HETATM   12  C   UNL     1     -10.613  11.228  69.154  1.00  0.00    -0.187 C  
BRANCH  12  13
HETATM   13  O   UNL     1     -10.708  10.203  70.169  1.00  0.00    -0.273 OA 
BRANCH  13  14
HETATM   14  C   UNL     1      -9.494   9.473  70.340  1.00  0.00    -0.262 C  
BRANCH  14  15
HETATM   15  N   UNL     1      -9.752   8.068  70.118  1.00  0.00    -0.175 NA 
HETATM   16  C   UNL     1     -10.992   7.475  70.171  1.00  0.00    -0.254 A  
HETATM   17  N   UNL     1     -10.953   6.209  69.799  1.00  0.00    -0.355 NA 
HETATM   18  C   UNL     1      -9.633   5.973  69.487  1.00  0.00    -0.143 A  
HETATM   19  C   UNL     1      -8.895   7.113  69.687  1.00  0.00    -0.141 A  
HETATM   20  N   UNL     1      -7.582   7.168  69.441  1.00  0.00    -0.096 NA 
HETATM   21  C   UNL     1      -6.999   6.026  68.949  1.00  0.00    -0.068 C  
HETATM   22  N   UNL     1      -5.682   6.172  68.662  1.00  0.00    -0.012 NA 
HETATM   23  N   UNL     1      -7.599   4.894  68.721  1.00  0.00    -0.069 N  
HETATM   24  H2  UNL     1      -5.174   7.046  68.798  1.00  0.00     0.000 HD 
HETATM   25  H1  UNL     1      -5.249   5.324  68.297  1.00  0.00     0.000 HD 
HETATM   26  H   UNL     1      -7.071   4.103  68.352  1.00  0.00     0.000 HD 
HETATM   27  C   UNL     1      -8.968   4.759  68.983  1.00  0.00    -0.104 C  
HETATM   28  O   UNL     1      -9.574   3.711  68.798  1.00  0.00    -0.163 OA 
ENDBRANCH  14  15
ENDBRANCH  13  14
ENDBRANCH  12  13
BRANCH  12  29
HETATM   29  C   UNL     1     -11.356  10.716  67.910  1.00  0.00    -0.268 C  
HETATM   30  O   UNL     1     -11.931  11.822  67.212  1.00  0.00    -0.618 OA 
HETATM   31  H   UNL     1     -12.391  11.505  66.444  1.00  0.00     0.000 HD 
ENDBRANCH  12  29
ENDBRANCH  11  12
ENDBRANCH  10  11
ENDBRANCH   8  10
ENDBRANCH   4   8
TORSDOF 8
ENDMDL
MODEL      368
REMARK 921   NORMALIZED FREE ENERGY PREDICTED BY IDOCK:   -3.14 KCAL/MOL
REMARK 922        TOTAL FREE ENERGY PREDICTED BY IDOCK:   -5.82 KCAL/MOL
REMARK 923 INTER-LIGAND FREE ENERGY PREDICTED BY IDOCK:   -5.09 KCAL/MOL
REMARK 924 INTRA-LIGAND FREE ENERGY PREDICTED BY IDOCK:   -0.73 KCAL/MOL
REMARK 927      BINDING AFFINITY PREDICTED BY RF-SCORE:    0.00 PKD
ROOT
HETATM    1  C   UNL     1      -9.642   4.309  68.354  1.00  0.00    -0.197 C  
HETATM    2  C   UNL     1      -8.773   5.380  69.025  1.00  0.00    -0.103 C  
HETATM    3  C   UNL     1      -7.478   4.748  69.543  1.00  0.00    -0.056 C  
HETATM    4  C   UNL     1      -9.520   6.159  70.137  1.00  0.00    -0.159 C  
HETATM    5  N   UNL     1      -9.998   5.264  71.214  1.00  0.00    -0.186 NA 
HETATM    6  H1  UNL     1     -10.489   5.777  71.945  1.00  0.00     0.000 HD 
HETATM    7  H2  UNL     1      -9.236   4.708  71.600  1.00  0.00     0.000 HD 
ENDROOT
BRANCH   4   8
HETATM    8  C   UNL     1     -10.676   6.993  69.547  1.00  0.00    -0.241 C  
HETATM    9  O   UNL     1     -11.856   6.662  69.576  1.00  0.00    -0.214 OA 
BRANCH   8  10
HETATM   10  O   UNL     1     -10.217   8.118  68.921  1.00  0.00    -0.202 OA 
BRANCH  10  11
HETATM   11  C   UNL     1     -10.417   8.179  67.497  1.00  0.00    -0.256 C  
BRANCH  11  12
HETATM   12  C   UNL     1      -9.173   8.773  66.818  1.00  0.00    -0.169 C  
BRANCH  12  13
HETATM   13  O   UNL     1      -9.494   9.679  65.738  1.00  0.00    -0.205 OA 
BRANCH  13  14
HETATM   14  C   UNL     1     -10.737  10.353  65.925  1.00  0.00     0.047 C  
BRANCH  14  15
HETATM   15  N   UNL     1     -10.608  11.718  65.466  1.00  0.00    -0.267 NA 
HETATM   16  C   UNL     1     -11.388  12.302  64.496  1.00  0.00    -0.329 A  
HETATM   17  N   UNL     1     -11.139  13.592  64.367  1.00  0.00    -0.378 NA 
HETATM   18  C   UNL     1     -10.159  13.857  65.298  1.00  0.00    -0.303 A  
HETATM   19  C   UNL     1      -9.831  12.705  65.969  1.00  0.00    -0.254 A  
HETATM   20  N   UNL     1      -8.915  12.682  66.944  1.00  0.00    -0.215 NA 
HETATM   21  C   UNL     1      -8.330  13.881  67.268  1.00  0.00    -0.185 C  
HETATM   22  N   UNL     1      -7.462  13.795  68.306  1.00  0.00    -0.108 NA 
HETATM   23  N   UNL     1      -8.565  15.029  66.701  1.00  0.00    -0.393 N  
HETATM   24  H2  UNL     1      -7.264  12.924  68.799  1.00  0.00     0.000 HD 
HETATM   25  H1  UNL     1      -7.026  14.685  68.547  1.00  0.00     0.000 HD 
HETATM   26  H   UNL     1      -8.073  15.864  67.020  1.00  0.00     0.000 HD 
HETATM   27  C   UNL     1      -9.491  15.119  65.655  1.00  0.00    -0.173 C  
HETATM   28  O   UNL     1      -9.736  16.174  65.082  1.00  0.00    -0.346 OA 
ENDBRANCH  14  15
ENDBRANCH  13  14
ENDBRANCH  12  13
BRANCH  12  29
HETATM   29  C   UNL     1      -8.298   7.653  66.235  1.00  0.00    -0.133 C  
HETATM   30  O   UNL     1      -6.947   7.836  66.662  1.00  0.00    -0.068 OA 
HETATM   31  H   UNL     1      -6.406   7.143  66.301  1.00  0.00     0.000 HD 
ENDBRANCH  12  29
ENDBRANCH  11  12
ENDBRANCH  10  11
ENDBRANCH   8  10
ENDBRANCH   4   8
TORSDOF 8
ENDMDL
MODEL      369
REMARK 921   NORMALIZED FREE ENERGY PREDICTED BY IDOCK:   -3.12 KCAL/MOL
REMARK 922        TOTAL FREE ENERGY PREDICTED BY IDOCK:   -5.80 KCAL/MOL
REMARK 923 INTER-LIGAND FREE ENERGY PREDICTED BY IDOCK:   -5.27 KCAL/MOL
REMARK 924 INTRA-LIGAND FREE ENERGY PREDICTED BY IDOCK:   -0.53 KCAL/MOL
REMARK 927      BINDING AFFINITY PREDICTED BY RF-SCORE:    0.00 PKD
ROOT
HETATM    1  C   UNL     1     -11.184  16.152  69.301  1.00  0.00    -0.337 C  
HETATM    2  C   UNL     1     -10.612  15.635  67.976  1.00  0.00    -0.271 C  
HETATM    3  C   UNL     1     -10.830  16.678  66.875  1.00  0.00    -0.060 C  
HETATM    4  C   UNL     1     -11.169  14.246  67.574  1.00  0.00    -0.307 C  
HETATM    5  N   UNL     1     -12.642  14.264  67.423  1.00  0.00    -0.427 NA 
HETATM    6  H1  UNL     1     -13.008  13.350  67.159  1.00  0.00     0.000 HD 
HETATM    7  H2  UNL     1     -12.939  14.986  66.768  1.00  0.00     0.000 HD 
ENDROOT
BRANCH   4   8
HETATM    8  C   UNL     1     -10.721  13.160  68.573  1.00  0.00    -0.259 C  
HETATM    9  O   UNL     1     -11.401  12.755  69.509  1.00  0.00    -0.231 OA 
BRANCH   8  10
HETATM   10  O   UNL     1      -9.439  12.752  68.332  1.00  0.00    -0.214 OA 
BRANCH  10  11
HETATM   11  C   UNL     1      -9.204  11.333  68.384  1.00  0.00    -0.178 C  
BRANCH  11  12
HETATM   12  C   UNL     1      -9.645  10.680  67.064  1.00  0.00    -0.169 C  
BRANCH  12  13
HETATM   13  O   UNL     1      -9.279   9.284  66.971  1.00  0.00    -0.134 OA 
BRANCH  13  14
HETATM   14  C   UNL     1      -8.015   8.997  67.567  1.00  0.00    -0.101 C  
BRANCH  14  15
HETATM   15  N   UNL     1      -8.110   7.753  68.298  1.00  0.00    -0.122 NA 
HETATM   16  C   UNL     1      -7.598   7.536  69.555  1.00  0.00    -0.095 A  
HETATM   17  N   UNL     1      -7.941   6.355  70.035  1.00  0.00    -0.110 NA 
HETATM   18  C   UNL     1      -8.714   5.784  69.047  1.00  0.00    -0.112 A  
HETATM   19  C   UNL     1      -8.813   6.642  67.980  1.00  0.00    -0.115 A  
HETATM   20  N   UNL     1      -9.525   6.344  66.887  1.00  0.00    -0.139 NA 
HETATM   21  C   UNL     1     -10.182   5.138  66.890  1.00  0.00    -0.239 C  
HETATM   22  N   UNL     1     -10.934   4.931  65.781  1.00  0.00    -0.834 NA 
HETATM   23  N   UNL     1     -10.159   4.253  67.843  1.00  0.00     0.021 N  
HETATM   24  H2  UNL     1     -11.005   5.606  65.019  1.00  0.00     0.000 HD 
HETATM   25  H1  UNL     1     -11.423   4.036  65.782  1.00  0.00     0.000 HD 
HETATM   26  H   UNL     1     -10.686   3.385  67.745  1.00  0.00     0.000 HD 
HETATM   27  C   UNL     1      -9.411   4.489  69.003  1.00  0.00    -0.162 C  
HETATM   28  O   UNL     1      -9.347   3.680  69.921  1.00  0.00    -0.143 OA 
ENDBRANCH  14  15
ENDBRANCH  13  14
ENDBRANCH  12  13
BRANCH  12  29
HETATM   29  C   UNL     1      -9.002  11.405  65.871  1.00  0.00    -0.177 C  
HETATM   30  O   UNL     1      -7.864  12.143  66.322  1.00  0.00    -0.357 OA 
HETATM   31  H   UNL     1      -7.467  12.591  65.584  1.00  0.00     0.000 HD 
ENDBRANCH  12  29
ENDBRANCH  11  12
ENDBRANCH  10  11
ENDBRANCH   8  10
ENDBRANCH   4   8
TORSDOF 8
ENDMDL
MODEL      370
REMARK 921   NORMALIZED FREE ENERGY PREDICTED BY IDOCK:   -3.10 KCAL/MOL
REMARK 922        TOTAL FREE ENERGY PREDICTED BY IDOCK:   -5.77 KCAL/MOL
REMARK 923 INTER-LIGAND FREE ENERGY PREDICTED BY IDOCK:   -5.03 KCAL/MOL
REMARK 924 INTRA-LIGAND FREE ENERGY PREDICTED BY IDOCK:   -0.73 KCAL/MOL
REMARK 927      BINDING AFFINITY PREDICTED BY RF-SCORE:    0.00 PKD
ROOT
HETATM    1  C   UNL     1      -5.154   5.313  64.191  1.00  0.00    -0.009 C  
HETATM    2  C   UNL     1      -6.635   4.938  64.053  1.00  0.00    -0.042 C  
HETATM    3  C   UNL     1      -6.993   4.771  62.573  1.00  0.00    -0.031 C  
HETATM    4  C   UNL     1      -7.583   5.935  64.767  1.00  0.00    -0.088 C  
HETATM    5  N   UNL     1      -7.440   7.310  64.236  1.00  0.00    -0.093 NA 
HETATM    6  H1  UNL     1      -8.064   7.966  64.706  1.00  0.00     0.000 HD 
HETATM    7  H2  UNL     1      -7.572   7.333  63.225  1.00  0.00     0.000 HD 
ENDROOT
BRANCH   4   8
HETATM    8  C   UNL     1      -7.373   5.901  66.295  1.00  0.00    -0.081 C  
HETATM    9  O   UNL     1      -7.445   4.889  66.982  1.00  0.00    -0.084 OA 
BRANCH   8  10
HETATM   10  O   UNL     1      -7.168   7.152  66.803  1.00  0.00    -0.079 OA 
BRANCH  10  11
HETATM   11  C   UNL     1      -8.112   7.598  67.794  1.00  0.00    -0.118 C  
BRANCH  11  12
HETATM   12  C   UNL     1      -9.526   7.633  67.192  1.00  0.00    -0.155 C  
BRANCH  12  13
HETATM   13  O   UNL     1     -10.050   8.974  67.051  1.00  0.00    -0.206 OA 
BRANCH  13  14
HETATM   14  C   UNL     1      -9.088   9.900  66.549  1.00  0.00    -0.152 C  
BRANCH  14  15
HETATM   15  N   UNL     1      -9.778  11.036  65.980  1.00  0.00    -0.215 NA 
HETATM   16  C   UNL     1      -9.859  11.318  64.637  1.00  0.00    -0.268 A  
HETATM   17  N   UNL     1     -10.658  12.340  64.391  1.00  0.00    -0.304 NA 
HETATM   18  C   UNL     1     -11.118  12.733  65.628  1.00  0.00    -0.279 A  
HETATM   19  C   UNL     1     -10.574  11.935  66.604  1.00  0.00    -0.238 A  
HETATM   20  N   UNL     1     -10.869  12.088  67.899  1.00  0.00    -0.206 NA 
HETATM   21  C   UNL     1     -11.771  13.074  68.214  1.00  0.00    -0.353 C  
HETATM   22  N   UNL     1     -12.071  13.129  69.535  1.00  0.00    -0.275 NA 
HETATM   23  N   UNL     1     -12.347  13.885  67.375  1.00  0.00    -0.482 N  
HETATM   24  H2  UNL     1     -11.667  12.499  70.227  1.00  0.00     0.000 HD 
HETATM   25  H1  UNL     1     -12.741  13.862  69.769  1.00  0.00     0.000 HD 
HETATM   26  H   UNL     1     -13.006  14.585  67.714  1.00  0.00     0.000 HD 
HETATM   27  C   UNL     1     -12.062  13.798  66.006  1.00  0.00    -0.436 C  
HETATM   28  O   UNL     1     -12.568  14.548  65.180  1.00  0.00    -0.409 OA 
ENDBRANCH  14  15
ENDBRANCH  13  14
ENDBRANCH  12  13
BRANCH  12  29
HETATM   29  C   UNL     1     -10.503   6.848  68.081  1.00  0.00    -0.204 C  
HETATM   30  O   UNL     1     -10.656   7.524  69.330  1.00  0.00    -0.226 OA 
HETATM   31  H   UNL     1     -11.259   7.039  69.880  1.00  0.00     0.000 HD 
ENDBRANCH  12  29
ENDBRANCH  11  12
ENDBRANCH  10  11
ENDBRANCH   8  10
ENDBRANCH   4   8
TORSDOF 8
ENDMDL
MODEL      371
REMARK 921   NORMALIZED FREE ENERGY PREDICTED BY IDOCK:   -3.06 KCAL/MOL
REMARK 922        TOTAL FREE ENERGY PREDICTED BY IDOCK:   -5.70 KCAL/MOL
REMARK 923 INTER-LIGAND FREE ENERGY PREDICTED BY IDOCK:   -5.35 KCAL/MOL
REMARK 924 INTRA-LIGAND FREE ENERGY PREDICTED BY IDOCK:   -0.35 KCAL/MOL
REMARK 927      BINDING AFFINITY PREDICTED BY RF-SCORE:    0.00 PKD
ROOT
HETATM    1  C   UNL     1     -12.033  11.592  68.468  1.00  0.00    -0.293 C  
HETATM    2  C   UNL     1     -11.259  12.879  68.781  1.00  0.00    -0.323 C  
HETATM    3  C   UNL     1     -11.886  13.580  69.991  1.00  0.00    -0.371 C  
HETATM    4  C   UNL     1     -11.140  13.827  67.562  1.00  0.00    -0.278 C  
HETATM    5  N   UNL     1     -12.467  14.241  67.052  1.00  0.00    -0.543 NA 
HETATM    6  H1  UNL     1     -12.388  14.866  66.250  1.00  0.00     0.000 HD 
HETATM    7  H2  UNL     1     -13.035  14.657  67.790  1.00  0.00     0.000 HD 
ENDROOT
BRANCH   4   8
HETATM    8  C   UNL     1     -10.285  13.190  66.446  1.00  0.00    -0.286 C  
HETATM    9  O   UNL     1     -10.741  12.586  65.483  1.00  0.00    -0.261 OA 
BRANCH   8  10
HETATM   10  O   UNL     1      -8.949  13.319  66.702  1.00  0.00    -0.214 OA 
BRANCH  10  11
HETATM   11  C   UNL     1      -8.336  12.243  67.435  1.00  0.00    -0.177 C  
BRANCH  11  12
HETATM   12  C   UNL     1      -7.743  11.215  66.458  1.00  0.00    -0.146 C  
BRANCH  12  13
HETATM   13  O   UNL     1      -8.152   9.858  66.745  1.00  0.00    -0.115 OA 
BRANCH  13  14
HETATM   14  C   UNL     1      -7.094   9.053  67.263  1.00  0.00    -0.079 C  
BRANCH  14  15
HETATM   15  N   UNL     1      -7.234   7.706  66.757  1.00  0.00    -0.086 NA 
HETATM   16  C   UNL     1      -6.195   6.908  66.340  1.00  0.00    -0.045 A  
HETATM   17  N   UNL     1      -6.594   5.683  66.051  1.00  0.00    -0.046 NA 
HETATM   18  C   UNL     1      -7.950   5.687  66.296  1.00  0.00    -0.102 A  
HETATM   19  C   UNL     1      -8.342   6.931  66.725  1.00  0.00    -0.116 A  
HETATM   20  N   UNL     1      -9.609   7.207  67.052  1.00  0.00    -0.151 NA 
HETATM   21  C   UNL     1     -10.508   6.172  66.965  1.00  0.00    -0.277 C  
HETATM   22  N   UNL     1     -11.757   6.506  67.373  1.00  0.00    -0.453 NA 
HETATM   23  N   UNL     1     -10.247   4.959  66.573  1.00  0.00    -0.252 N  
HETATM   24  H2  UNL     1     -12.005   7.436  67.713  1.00  0.00     0.000 HD 
HETATM   25  H1  UNL     1     -12.425   5.738  67.308  1.00  0.00     0.000 HD 
HETATM   26  H   UNL     1     -10.991   4.262  66.545  1.00  0.00     0.000 HD 
HETATM   27  C   UNL     1      -8.947   4.609  66.189  1.00  0.00    -0.121 C  
HETATM   28  O   UNL     1      -8.656   3.484  65.800  1.00  0.00    -0.109 OA 
ENDBRANCH  14  15
ENDBRANCH  13  14
ENDBRANCH  12  13
BRANCH  12  29
HETATM   29  C   UNL     1      -6.208  11.255  66.511  1.00  0.00    -0.130 C  
HETATM   30  O   UNL     1      -5.697  11.563  65.212  1.00  0.00    -0.379 OA 
HETATM   31  H   UNL     1      -4.748  11.587  65.245  1.00  0.00     0.000 HD 
ENDBRANCH  12  29
ENDBRANCH  11  12
ENDBRANCH  10  11
ENDBRANCH   8  10
ENDBRANCH   4   8
TORSDOF 8
ENDMDL
MODEL      372
REMARK 921   NORMALIZED FREE ENERGY PREDICTED BY IDOCK:   -3.06 KCAL/MOL
REMARK 922        TOTAL FREE ENERGY PREDICTED BY IDOCK:   -5.70 KCAL/MOL
REMARK 923 INTER-LIGAND FREE ENERGY PREDICTED BY IDOCK:   -5.13 KCAL/MOL
REMARK 924 INTRA-LIGAND FREE ENERGY PREDICTED BY IDOCK:   -0.57 KCAL/MOL
REMARK 927      BINDING AFFINITY PREDICTED BY RF-SCORE:    0.00 PKD
ROOT
HETATM    1  C   UNL     1      -8.858  13.096  67.409  1.00  0.00    -0.204 C  
HETATM    2  C   UNL     1      -9.740  11.944  66.912  1.00  0.00    -0.212 C  
HETATM    3  C   UNL     1     -10.213  12.232  65.484  1.00  0.00    -0.296 C  
HETATM    4  C   UNL     1     -10.925  11.633  67.861  1.00  0.00    -0.225 C  
HETATM    5  N   UNL     1     -11.813  12.804  68.038  1.00  0.00    -0.352 NA 
HETATM    6  H1  UNL     1     -12.593  12.599  68.662  1.00  0.00     0.000 HD 
HETATM    7  H2  UNL     1     -12.142  13.160  67.140  1.00  0.00     0.000 HD 
ENDROOT
BRANCH   4   8
HETATM    8  C   UNL     1     -10.422  11.101  69.219  1.00  0.00    -0.151 C  
HETATM    9  O   UNL     1      -9.285  10.696  69.427  1.00  0.00    -0.158 OA 
BRANCH   8  10
HETATM   10  O   UNL     1     -11.423  11.068  70.148  1.00  0.00    -0.293 OA 
BRANCH  10  11
HETATM   11  C   UNL     1     -12.024   9.783  70.389  1.00  0.00    -0.148 C  
BRANCH  11  12
HETATM   12  C   UNL     1     -11.982   9.457  71.890  1.00  0.00    -0.346 C  
BRANCH  12  13
HETATM   13  O   UNL     1     -11.068   8.384  72.212  1.00  0.00    -0.324 OA 
BRANCH  13  14
HETATM   14  C   UNL     1     -10.367   7.886  71.074  1.00  0.00    -0.201 C  
BRANCH  14  15
HETATM   15  N   UNL     1      -9.946   6.528  71.336  1.00  0.00    -0.183 NA 
HETATM   16  C   UNL     1     -10.425   5.414  70.688  1.00  0.00    -0.259 A  
HETATM   17  N   UNL     1      -9.773   4.319  71.034  1.00  0.00    -0.179 NA 
HETATM   18  C   UNL     1      -8.827   4.743  71.941  1.00  0.00    -0.124 A  
HETATM   19  C   UNL     1      -8.936   6.099  72.129  1.00  0.00    -0.142 A  
HETATM   20  N   UNL     1      -8.123   6.775  72.948  1.00  0.00    -0.105 NA 
HETATM   21  C   UNL     1      -7.144   6.049  73.581  1.00  0.00    -0.081 C  
HETATM   22  N   UNL     1      -6.318   6.808  74.343  1.00  0.00    -0.075 NA 
HETATM   23  N   UNL     1      -6.949   4.767  73.476  1.00  0.00    -0.069 N  
HETATM   24  H2  UNL     1      -6.415   7.819  74.437  1.00  0.00     0.000 HD 
HETATM   25  H1  UNL     1      -5.591   6.269  74.814  1.00  0.00     0.000 HD 
HETATM   26  H   UNL     1      -6.188   4.324  73.991  1.00  0.00     0.000 HD 
HETATM   27  C   UNL     1      -7.781   3.994  72.657  1.00  0.00    -0.075 C  
HETATM   28  O   UNL     1      -7.645   2.783  72.537  1.00  0.00    -0.050 OA 
ENDBRANCH  14  15
ENDBRANCH  13  14
ENDBRANCH  12  13
BRANCH  12  29
HETATM   29  C   UNL     1     -13.375   9.039  72.383  1.00  0.00    -0.460 C  
HETATM   30  O   UNL     1     -13.692   7.743  71.870  1.00  0.00    -0.418 OA 
HETATM   31  H   UNL     1     -14.553   7.485  72.175  1.00  0.00     0.000 HD 
ENDBRANCH  12  29
ENDBRANCH  11  12
ENDBRANCH  10  11
ENDBRANCH   8  10
ENDBRANCH   4   8
TORSDOF 8
ENDMDL
MODEL      373
REMARK 921   NORMALIZED FREE ENERGY PREDICTED BY IDOCK:   -3.05 KCAL/MOL
REMARK 922        TOTAL FREE ENERGY PREDICTED BY IDOCK:   -5.70 KCAL/MOL
REMARK 923 INTER-LIGAND FREE ENERGY PREDICTED BY IDOCK:   -4.42 KCAL/MOL
REMARK 924 INTRA-LIGAND FREE ENERGY PREDICTED BY IDOCK:   -1.28 KCAL/MOL
REMARK 927      BINDING AFFINITY PREDICTED BY RF-SCORE:    0.00 PKD
ROOT
HETATM    1  C   UNL     1     -13.967   9.515  70.590  1.00  0.00     0.436 C  
HETATM    2  C   UNL     1     -12.527   9.339  71.087  1.00  0.00    -0.341 C  
HETATM    3  C   UNL     1     -12.520   9.173  72.610  1.00  0.00    -0.138 C  
HETATM    4  C   UNL     1     -11.582  10.477  70.626  1.00  0.00    -0.352 C  
HETATM    5  N   UNL     1     -12.038  11.802  71.104  1.00  0.00    -0.260 NA 
HETATM    6  H1  UNL     1     -11.416  12.551  70.801  1.00  0.00     0.000 HD 
HETATM    7  H2  UNL     1     -12.160  11.809  72.116  1.00  0.00     0.000 HD 
ENDROOT
BRANCH   4   8
HETATM    8  C   UNL     1     -11.407  10.465  69.093  1.00  0.00    -0.226 C  
HETATM    9  O   UNL     1     -11.542  11.446  68.371  1.00  0.00    -0.279 OA 
BRANCH   8  10
HETATM   10  O   UNL     1     -11.154   9.206  68.626  1.00  0.00    -0.020 OA 
BRANCH  10  11
HETATM   11  C   UNL     1      -9.773   8.886  68.380  1.00  0.00    -0.161 C  
BRANCH  11  12
HETATM   12  C   UNL     1      -9.280   7.861  69.414  1.00  0.00    -0.145 C  
BRANCH  12  13
HETATM   13  O   UNL     1      -8.054   7.202  69.021  1.00  0.00    -0.118 OA 
BRANCH  13  14
HETATM   14  C   UNL     1      -7.671   7.490  67.677  1.00  0.00    -0.115 C  
BRANCH  14  15
HETATM   15  N   UNL     1      -7.321   6.256  67.011  1.00  0.00    -0.081 NA 
HETATM   16  C   UNL     1      -6.084   5.658  67.055  1.00  0.00    -0.026 A  
HETATM   17  N   UNL     1      -6.082   4.477  66.466  1.00  0.00    -0.030 NA 
HETATM   18  C   UNL     1      -7.375   4.300  66.025  1.00  0.00    -0.080 A  
HETATM   19  C   UNL     1      -8.134   5.394  66.357  1.00  0.00    -0.105 A  
HETATM   20  N   UNL     1      -9.437   5.477  66.063  1.00  0.00    -0.153 NA 
HETATM   21  C   UNL     1      -9.996   4.393  65.430  1.00  0.00    -0.218 C  
HETATM   22  N   UNL     1     -11.329   4.519  65.223  1.00  0.00    -1.078 NA 
HETATM   23  N   UNL     1      -9.373   3.308  65.072  1.00  0.00    -0.148 N  
HETATM   24  H2  UNL     1     -11.865   5.338  65.508  1.00  0.00     0.000 HD 
HETATM   25  H1  UNL     1     -11.745   3.714  64.753  1.00  0.00     0.000 HD 
HETATM   26  H   UNL     1      -9.885   2.558  64.606  1.00  0.00     0.000 HD 
HETATM   27  C   UNL     1      -8.003   3.168  65.324  1.00  0.00    -0.082 C  
HETATM   28  O   UNL     1      -7.372   2.171  64.993  1.00  0.00    -0.059 OA 
ENDBRANCH  14  15
ENDBRANCH  13  14
ENDBRANCH  12  13
BRANCH  12  29
HETATM   29  C   UNL     1     -10.341   6.770  69.629  1.00  0.00    -0.198 C  
HETATM   30  O   UNL     1     -11.128   6.634  68.444  1.00  0.00    -0.442 OA 
HETATM   31  H   UNL     1     -11.784   5.960  68.577  1.00  0.00     0.000 HD 
ENDBRANCH  12  29
ENDBRANCH  11  12
ENDBRANCH  10  11
ENDBRANCH   8  10
ENDBRANCH   4   8
TORSDOF 8
ENDMDL
MODEL      374
REMARK 921   NORMALIZED FREE ENERGY PREDICTED BY IDOCK:   -3.04 KCAL/MOL
REMARK 922        TOTAL FREE ENERGY PREDICTED BY IDOCK:   -5.67 KCAL/MOL
REMARK 923 INTER-LIGAND FREE ENERGY PREDICTED BY IDOCK:   -5.61 KCAL/MOL
REMARK 924 INTRA-LIGAND FREE ENERGY PREDICTED BY IDOCK:   -0.06 KCAL/MOL
REMARK 927      BINDING AFFINITY PREDICTED BY RF-SCORE:    0.00 PKD
ROOT
HETATM    1  C   UNL     1      -7.887  11.654  66.728  1.00  0.00    -0.130 C  
HETATM    2  C   UNL     1      -9.082  11.453  65.788  1.00  0.00    -0.195 C  
HETATM    3  C   UNL     1     -10.057  12.627  65.930  1.00  0.00    -0.276 C  
HETATM    4  C   UNL     1      -9.789  10.089  65.987  1.00  0.00    -0.257 C  
HETATM    5  N   UNL     1     -10.301   9.928  67.367  1.00  0.00    -0.229 NA 
HETATM    6  H1  UNL     1     -10.766   9.030  67.497  1.00  0.00     0.000 HD 
HETATM    7  H2  UNL     1     -10.910  10.702  67.629  1.00  0.00     0.000 HD 
ENDROOT
BRANCH   4   8
HETATM    8  C   UNL     1      -8.860   8.922  65.595  1.00  0.00    -0.191 C  
HETATM    9  O   UNL     1      -8.866   8.368  64.502  1.00  0.00     0.013 OA 
BRANCH   8  10
HETATM   10  O   UNL     1      -8.074   8.530  66.642  1.00  0.00    -0.101 OA 
BRANCH  10  11
HETATM   11  C   UNL     1      -8.659   7.583  67.554  1.00  0.00    -0.122 C  
BRANCH  11  12
HETATM   12  C   UNL     1      -8.797   6.213  66.871  1.00  0.00    -0.117 C  
BRANCH  12  13
HETATM   13  O   UNL     1      -9.955   5.471  67.315  1.00  0.00    -0.138 OA 
BRANCH  13  14
HETATM   14  C   UNL     1     -10.875   6.265  68.062  1.00  0.00    -0.326 C  
BRANCH  14  15
HETATM   15  N   UNL     1     -10.770   5.920  69.462  1.00  0.00    -0.311 NA 
HETATM   16  C   UNL     1     -10.146   4.798  69.953  1.00  0.00    -0.229 A  
HETATM   17  N   UNL     1     -10.085   4.800  71.272  1.00  0.00    -0.197 NA 
HETATM   18  C   UNL     1     -10.691   5.978  71.651  1.00  0.00    -0.251 A  
HETATM   19  C   UNL     1     -11.115   6.663  70.539  1.00  0.00    -0.307 A  
HETATM   20  N   UNL     1     -11.721   7.852  70.620  1.00  0.00    -0.215 NA 
HETATM   21  C   UNL     1     -11.880   8.379  71.879  1.00  0.00    -0.336 C  
HETATM   22  N   UNL     1     -12.442   9.612  71.881  1.00  0.00    -0.384 NA 
HETATM   23  N   UNL     1     -11.518   7.819  72.996  1.00  0.00    -0.595 N  
HETATM   24  H2  UNL     1     -12.719  10.102  71.030  1.00  0.00     0.000 HD 
HETATM   25  H1  UNL     1     -12.561  10.003  72.815  1.00  0.00     0.000 HD 
HETATM   26  H   UNL     1     -11.682   8.298  73.882  1.00  0.00     0.000 HD 
HETATM   27  C   UNL     1     -10.902   6.562  72.986  1.00  0.00    -0.261 C  
HETATM   28  O   UNL     1     -10.556   5.990  74.012  1.00  0.00    -0.269 OA 
ENDBRANCH  14  15
ENDBRANCH  13  14
ENDBRANCH  12  13
BRANCH  12  29
HETATM   29  C   UNL     1      -7.559   5.349  67.156  1.00  0.00    -0.092 C  
HETATM   30  O   UNL     1      -7.950   3.978  67.255  1.00  0.00    -0.091 OA 
HETATM   31  H   UNL     1      -7.184   3.444  67.432  1.00  0.00     0.000 HD 
ENDBRANCH  12  29
ENDBRANCH  11  12
ENDBRANCH  10  11
ENDBRANCH   8  10
ENDBRANCH   4   8
TORSDOF 8
ENDMDL
MODEL      375
REMARK 921   NORMALIZED FREE ENERGY PREDICTED BY IDOCK:   -3.03 KCAL/MOL
REMARK 922        TOTAL FREE ENERGY PREDICTED BY IDOCK:   -5.67 KCAL/MOL
REMARK 923 INTER-LIGAND FREE ENERGY PREDICTED BY IDOCK:   -4.79 KCAL/MOL
REMARK 924 INTRA-LIGAND FREE ENERGY PREDICTED BY IDOCK:   -0.88 KCAL/MOL
REMARK 927      BINDING AFFINITY PREDICTED BY RF-SCORE:    0.00 PKD
ROOT
HETATM    1  C   UNL     1     -10.226  15.925  68.336  1.00  0.00    -0.226 C  
HETATM    2  C   UNL     1      -9.587  15.190  67.151  1.00  0.00    -0.224 C  
HETATM    3  C   UNL     1      -9.107  16.205  66.109  1.00  0.00    -0.382 C  
HETATM    4  C   UNL     1     -10.518  14.119  66.527  1.00  0.00    -0.280 C  
HETATM    5  N   UNL     1     -11.783  14.707  66.032  1.00  0.00    -0.341 NA 
HETATM    6  H1  UNL     1     -12.395  14.002  65.622  1.00  0.00     0.000 HD 
HETATM    7  H2  UNL     1     -11.607  15.470  65.379  1.00  0.00     0.000 HD 
ENDROOT
BRANCH   4   8
HETATM    8  C   UNL     1     -10.786  12.971  67.523  1.00  0.00    -0.247 C  
HETATM    9  O   UNL     1     -11.589  13.028  68.447  1.00  0.00    -0.290 OA 
BRANCH   8  10
HETATM   10  O   UNL     1      -9.964  11.904  67.294  1.00  0.00    -0.186 OA 
BRANCH  10  11
HETATM   11  C   UNL     1      -8.772  11.838  68.096  1.00  0.00    -0.168 C  
BRANCH  11  12
HETATM   12  C   UNL     1      -8.635  10.438  68.717  1.00  0.00    -0.141 C  
BRANCH  12  13
HETATM   13  O   UNL     1      -9.806  10.029  69.461  1.00  0.00    -0.205 OA 
BRANCH  13  14
HETATM   14  C   UNL     1      -9.494   9.227  70.598  1.00  0.00    -0.272 C  
BRANCH  14  15
HETATM   15  N   UNL     1      -9.796   7.845  70.299  1.00  0.00    -0.184 NA 
HETATM   16  C   UNL     1     -11.058   7.300  70.279  1.00  0.00    -0.266 A  
HETATM   17  N   UNL     1     -11.054   6.052  69.849  1.00  0.00    -0.391 NA 
HETATM   18  C   UNL     1      -9.732   5.779  69.572  1.00  0.00    -0.153 A  
HETATM   19  C   UNL     1      -8.960   6.879  69.852  1.00  0.00    -0.142 A  
HETATM   20  N   UNL     1      -7.637   6.893  69.656  1.00  0.00    -0.099 NA 
HETATM   21  C   UNL     1      -7.080   5.754  69.129  1.00  0.00    -0.065 C  
HETATM   22  N   UNL     1      -5.749   5.862  68.897  1.00  0.00    -0.011 NA 
HETATM   23  N   UNL     1      -7.714   4.658  68.827  1.00  0.00    -0.071 N  
HETATM   24  H2  UNL     1      -5.214   6.707  69.093  1.00  0.00     0.000 HD 
HETATM   25  H1  UNL     1      -5.335   5.015  68.506  1.00  0.00     0.000 HD 
HETATM   26  H   UNL     1      -7.203   3.865  68.438  1.00  0.00     0.000 HD 
HETATM   27  C   UNL     1      -9.096   4.566  69.033  1.00  0.00    -0.122 C  
HETATM   28  O   UNL     1      -9.733   3.551  68.777  1.00  0.00    -0.126 OA 
ENDBRANCH  14  15
ENDBRANCH  13  14
ENDBRANCH  12  13
BRANCH  12  29
HETATM   29  C   UNL     1      -7.439  10.397  69.681  1.00  0.00    -0.157 C  
HETATM   30  O   UNL     1      -6.404   9.588  69.119  1.00  0.00    -0.041 OA 
HETATM   31  H   UNL     1      -5.665   9.563  69.715  1.00  0.00     0.000 HD 
ENDBRANCH  12  29
ENDBRANCH  11  12
ENDBRANCH  10  11
ENDBRANCH   8  10
ENDBRANCH   4   8
TORSDOF 8
ENDMDL
MODEL      376
REMARK 921   NORMALIZED FREE ENERGY PREDICTED BY IDOCK:   -3.03 KCAL/MOL
REMARK 922        TOTAL FREE ENERGY PREDICTED BY IDOCK:   -5.66 KCAL/MOL
REMARK 923 INTER-LIGAND FREE ENERGY PREDICTED BY IDOCK:   -4.68 KCAL/MOL
REMARK 924 INTRA-LIGAND FREE ENERGY PREDICTED BY IDOCK:   -0.98 KCAL/MOL
REMARK 927      BINDING AFFINITY PREDICTED BY RF-SCORE:    0.00 PKD
ROOT
HETATM    1  C   UNL     1      -9.779  15.256  66.254  1.00  0.00    -0.325 C  
HETATM    2  C   UNL     1     -10.638  14.357  67.152  1.00  0.00    -0.277 C  
HETATM    3  C   UNL     1     -11.537  15.220  68.042  1.00  0.00    -0.325 C  
HETATM    4  C   UNL     1      -9.802  13.349  67.980  1.00  0.00    -0.229 C  
HETATM    5  N   UNL     1      -8.831  14.031  68.865  1.00  0.00    -0.377 NA 
HETATM    6  H1  UNL     1      -8.281  13.368  69.410  1.00  0.00     0.000 HD 
HETATM    7  H2  UNL     1      -9.294  14.712  69.468  1.00  0.00     0.000 HD 
ENDROOT
BRANCH   4   8
HETATM    8  C   UNL     1      -9.100  12.327  67.062  1.00  0.00    -0.201 C  
HETATM    9  O   UNL     1      -7.917  12.375  66.746  1.00  0.00    -0.090 OA 
BRANCH   8  10
HETATM   10  O   UNL     1      -9.978  11.396  66.582  1.00  0.00    -0.200 OA 
BRANCH  10  11
HETATM   11  C   UNL     1     -10.406  10.387  67.515  1.00  0.00    -0.224 C  
BRANCH  11  12
HETATM   12  C   UNL     1     -10.235   8.992  66.894  1.00  0.00    -0.269 C  
BRANCH  12  13
HETATM   13  O   UNL     1     -10.138   7.939  67.881  1.00  0.00    -0.173 OA 
BRANCH  13  14
HETATM   14  C   UNL     1     -11.050   6.868  67.647  1.00  0.00    -0.178 C  
BRANCH  14  15
HETATM   15  N   UNL     1     -10.310   5.629  67.553  1.00  0.00    -0.206 NA 
HETATM   16  C   UNL     1      -9.721   5.147  66.408  1.00  0.00    -0.173 A  
HETATM   17  N   UNL     1      -9.002   4.064  66.638  1.00  0.00    -0.122 NA 
HETATM   18  C   UNL     1      -9.127   3.838  67.991  1.00  0.00    -0.144 A  
HETATM   19  C   UNL     1      -9.934   4.797  68.551  1.00  0.00    -0.089 A  
HETATM   20  N   UNL     1     -10.208   4.825  69.860  1.00  0.00    -0.235 NA 
HETATM   21  C   UNL     1      -9.618   3.856  70.634  1.00  0.00    -0.189 C  
HETATM   22  N   UNL     1      -9.887   3.985  71.957  1.00  0.00    -0.165 NA 
HETATM   23  N   UNL     1      -8.839   2.903  70.211  1.00  0.00    -0.075 N  
HETATM   24  H2  UNL     1     -10.470   4.729  72.339  1.00  0.00     0.000 HD 
HETATM   25  H1  UNL     1      -9.450   3.265  72.532  1.00  0.00     0.000 HD 
HETATM   26  H   UNL     1      -8.451   2.232  70.873  1.00  0.00     0.000 HD 
HETATM   27  C   UNL     1      -8.534   2.799  68.849  1.00  0.00    -0.067 C  
HETATM   28  O   UNL     1      -7.817   1.911  68.401  1.00  0.00    -0.053 OA 
ENDBRANCH  14  15
ENDBRANCH  13  14
ENDBRANCH  12  13
BRANCH  12  29
HETATM   29  C   UNL     1      -8.958   8.943  66.041  1.00  0.00    -0.193 C  
HETATM   30  O   UNL     1      -7.839   9.338  66.838  1.00  0.00    -0.097 OA 
HETATM   31  H   UNL     1      -7.050   9.308  66.310  1.00  0.00     0.000 HD 
ENDBRANCH  12  29
ENDBRANCH  11  12
ENDBRANCH  10  11
ENDBRANCH   8  10
ENDBRANCH   4   8
TORSDOF 8
ENDMDL
MODEL      377
REMARK 921   NORMALIZED FREE ENERGY PREDICTED BY IDOCK:   -3.01 KCAL/MOL
REMARK 922        TOTAL FREE ENERGY PREDICTED BY IDOCK:   -5.63 KCAL/MOL
REMARK 923 INTER-LIGAND FREE ENERGY PREDICTED BY IDOCK:   -5.44 KCAL/MOL
REMARK 924 INTRA-LIGAND FREE ENERGY PREDICTED BY IDOCK:   -0.19 KCAL/MOL
REMARK 927      BINDING AFFINITY PREDICTED BY RF-SCORE:    0.00 PKD
ROOT
HETATM    1  C   UNL     1     -10.702  10.998  66.739  1.00  0.00    -0.319 C  
HETATM    2  C   UNL     1     -11.112  11.032  68.216  1.00  0.00    -0.316 C  
HETATM    3  C   UNL     1     -11.784  12.371  68.538  1.00  0.00    -0.373 C  
HETATM    4  C   UNL     1      -9.937  10.730  69.180  1.00  0.00    -0.187 C  
HETATM    5  N   UNL     1      -8.830  11.700  69.024  1.00  0.00    -0.373 NA 
HETATM    6  H1  UNL     1      -8.057  11.501  69.658  1.00  0.00     0.000 HD 
HETATM    7  H2  UNL     1      -9.160  12.659  69.131  1.00  0.00     0.000 HD 
ENDROOT
BRANCH   4   8
HETATM    8  C   UNL     1      -9.439   9.280  69.008  1.00  0.00    -0.155 C  
HETATM    9  O   UNL     1      -9.030   8.807  67.955  1.00  0.00    -0.139 OA 
BRANCH   8  10
HETATM   10  O   UNL     1      -9.579   8.560  70.162  1.00  0.00    -0.166 OA 
BRANCH  10  11
HETATM   11  C   UNL     1     -10.928   8.312  70.596  1.00  0.00    -0.240 C  
BRANCH  11  12
HETATM   12  C   UNL     1     -11.054   8.592  72.102  1.00  0.00    -0.364 C  
BRANCH  12  13
HETATM   13  O   UNL     1      -9.968   8.034  72.876  1.00  0.00    -0.263 OA 
BRANCH  13  14
HETATM   14  C   UNL     1     -10.387   6.995  73.758  1.00  0.00    -0.369 C  
BRANCH  14  15
HETATM   15  N   UNL     1     -10.151   5.716  73.127  1.00  0.00    -0.175 NA 
HETATM   16  C   UNL     1     -10.970   4.617  73.239  1.00  0.00    -0.303 A  
HETATM   17  N   UNL     1     -10.583   3.627  72.456  1.00  0.00    -0.075 NA 
HETATM   18  C   UNL     1      -9.468   4.108  71.804  1.00  0.00    -0.147 A  
HETATM   19  C   UNL     1      -9.201   5.388  72.220  1.00  0.00    -0.142 A  
HETATM   20  N   UNL     1      -8.180   6.100  71.731  1.00  0.00    -0.114 NA 
HETATM   21  C   UNL     1      -7.415   5.497  70.763  1.00  0.00    -0.088 C  
HETATM   22  N   UNL     1      -6.441   6.298  70.268  1.00  0.00    -0.039 NA 
HETATM   23  N   UNL     1      -7.578   4.293  70.295  1.00  0.00    -0.046 N  
HETATM   24  H2  UNL     1      -6.290   7.256  70.583  1.00  0.00     0.000 HD 
HETATM   25  H1  UNL     1      -5.873   5.850  69.549  1.00  0.00     0.000 HD 
HETATM   26  H   UNL     1      -6.952   3.940  69.572  1.00  0.00     0.000 HD 
HETATM   27  C   UNL     1      -8.611   3.483  70.783  1.00  0.00    -0.071 C  
HETATM   28  O   UNL     1      -8.795   2.340  70.384  1.00  0.00    -0.062 OA 
ENDBRANCH  14  15
ENDBRANCH  13  14
ENDBRANCH  12  13
BRANCH  12  29
HETATM   29  C   UNL     1     -12.362   7.997  72.646  1.00  0.00    -0.114 C  
HETATM   30  O   UNL     1     -13.225   9.055  73.068  1.00  0.00    -0.802 OA 
HETATM   31  H   UNL     1     -14.033   8.687  73.404  1.00  0.00     0.000 HD 
ENDBRANCH  12  29
ENDBRANCH  11  12
ENDBRANCH  10  11
ENDBRANCH   8  10
ENDBRANCH   4   8
TORSDOF 8
ENDMDL
MODEL      378
REMARK 921   NORMALIZED FREE ENERGY PREDICTED BY IDOCK:   -3.01 KCAL/MOL
REMARK 922        TOTAL FREE ENERGY PREDICTED BY IDOCK:   -5.63 KCAL/MOL
REMARK 923 INTER-LIGAND FREE ENERGY PREDICTED BY IDOCK:   -4.82 KCAL/MOL
REMARK 924 INTRA-LIGAND FREE ENERGY PREDICTED BY IDOCK:   -0.81 KCAL/MOL
REMARK 927      BINDING AFFINITY PREDICTED BY RF-SCORE:    0.00 PKD
ROOT
HETATM    1  C   UNL     1     -10.872  15.743  65.511  1.00  0.00    -0.343 C  
HETATM    2  C   UNL     1     -10.413  16.147  66.918  1.00  0.00    -0.300 C  
HETATM    3  C   UNL     1     -10.151  17.655  66.966  1.00  0.00    -0.330 C  
HETATM    4  C   UNL     1      -9.191  15.333  67.414  1.00  0.00    -0.195 C  
HETATM    5  N   UNL     1      -8.021  15.492  66.522  1.00  0.00    -0.300 NA 
HETATM    6  H1  UNL     1      -7.217  14.957  66.849  1.00  0.00     0.000 HD 
HETATM    7  H2  UNL     1      -7.784  16.476  66.395  1.00  0.00     0.000 HD 
ENDROOT
BRANCH   4   8
HETATM    8  C   UNL     1      -9.556  13.845  67.599  1.00  0.00    -0.215 C  
HETATM    9  O   UNL     1     -10.662  13.438  67.933  1.00  0.00    -0.238 OA 
BRANCH   8  10
HETATM   10  O   UNL     1      -8.471  13.035  67.416  1.00  0.00    -0.180 OA 
BRANCH  10  11
HETATM   11  C   UNL     1      -8.752  11.655  67.117  1.00  0.00    -0.164 C  
BRANCH  11  12
HETATM   12  C   UNL     1      -7.704  10.751  67.785  1.00  0.00    -0.104 C  
BRANCH  12  13
HETATM   13  O   UNL     1      -7.736   9.389  67.298  1.00  0.00    -0.091 OA 
BRANCH  13  14
HETATM   14  C   UNL     1      -8.918   9.088  66.560  1.00  0.00    -0.146 C  
BRANCH  14  15
HETATM   15  N   UNL     1      -9.038   7.653  66.426  1.00  0.00    -0.169 NA 
HETATM   16  C   UNL     1      -8.632   6.926  65.331  1.00  0.00    -0.043 A  
HETATM   17  N   UNL     1      -8.740   5.626  65.530  1.00  0.00    -0.154 NA 
HETATM   18  C   UNL     1      -9.232   5.505  66.812  1.00  0.00    -0.129 A  
HETATM   19  C   UNL     1      -9.418   6.750  67.359  1.00  0.00    -0.134 A  
HETATM   20  N   UNL     1      -9.871   6.922  68.606  1.00  0.00    -0.143 NA 
HETATM   21  C   UNL     1     -10.120   5.785  69.334  1.00  0.00    -0.213 C  
HETATM   22  N   UNL     1     -10.514   6.034  70.607  1.00  0.00    -0.231 NA 
HETATM   23  N   UNL     1      -9.979   4.560  68.917  1.00  0.00    -0.114 N  
HETATM   24  H2  UNL     1     -10.614   6.976  70.987  1.00  0.00     0.000 HD 
HETATM   25  H1  UNL     1     -10.699   5.190  71.148  1.00  0.00     0.000 HD 
HETATM   26  H   UNL     1     -10.192   3.782  69.542  1.00  0.00     0.000 HD 
HETATM   27  C   UNL     1      -9.535   4.308  67.613  1.00  0.00    -0.175 C  
HETATM   28  O   UNL     1      -9.400   3.173  67.172  1.00  0.00    -0.188 OA 
ENDBRANCH  14  15
ENDBRANCH  13  14
ENDBRANCH  12  13
BRANCH  12  29
HETATM   29  C   UNL     1      -7.933  10.702  69.304  1.00  0.00    -0.135 C  
HETATM   30  O   UNL     1      -9.337  10.708  69.572  1.00  0.00    -0.388 OA 
HETATM   31  H   UNL     1      -9.479  10.679  70.510  1.00  0.00     0.000 HD 
ENDBRANCH  12  29
ENDBRANCH  11  12
ENDBRANCH  10  11
ENDBRANCH   8  10
ENDBRANCH   4   8
TORSDOF 8
ENDMDL
MODEL      379
REMARK 921   NORMALIZED FREE ENERGY PREDICTED BY IDOCK:   -2.98 KCAL/MOL
REMARK 922        TOTAL FREE ENERGY PREDICTED BY IDOCK:   -5.59 KCAL/MOL
REMARK 923 INTER-LIGAND FREE ENERGY PREDICTED BY IDOCK:   -4.52 KCAL/MOL
REMARK 924 INTRA-LIGAND FREE ENERGY PREDICTED BY IDOCK:   -1.08 KCAL/MOL
REMARK 927      BINDING AFFINITY PREDICTED BY RF-SCORE:    0.00 PKD
ROOT
HETATM    1  C   UNL     1      -9.155   7.057  69.683  1.00  0.00    -0.144 C  
HETATM    2  C   UNL     1     -10.344   6.116  69.450  1.00  0.00    -0.283 C  
HETATM    3  C   UNL     1     -11.475   6.459  70.425  1.00  0.00    -0.458 C  
HETATM    4  C   UNL     1      -9.956   4.618  69.520  1.00  0.00    -0.196 C  
HETATM    5  N   UNL     1      -9.379   4.257  70.834  1.00  0.00    -0.137 NA 
HETATM    6  H1  UNL     1      -9.124   3.271  70.880  1.00  0.00     0.000 HD 
HETATM    7  H2  UNL     1     -10.005   4.513  71.597  1.00  0.00     0.000 HD 
ENDROOT
BRANCH   4   8
HETATM    8  C   UNL     1      -9.004   4.238  68.367  1.00  0.00    -0.115 C  
HETATM    9  O   UNL     1      -7.788   4.140  68.475  1.00  0.00    -0.072 OA 
BRANCH   8  10
HETATM   10  O   UNL     1      -9.677   4.095  67.186  1.00  0.00    -0.202 OA 
BRANCH  10  11
HETATM   11  C   UNL     1      -9.427   5.099  66.186  1.00  0.00    -0.159 C  
BRANCH  11  12
HETATM   12  C   UNL     1      -8.745   4.464  64.964  1.00  0.00    -0.133 C  
BRANCH  12  13
HETATM   13  O   UNL     1      -8.548   5.395  63.875  1.00  0.00    -0.111 OA 
BRANCH  13  14
HETATM   14  C   UNL     1      -7.185   5.781  63.710  1.00  0.00    -0.055 C  
BRANCH  14  15
HETATM   15  N   UNL     1      -6.911   6.919  64.558  1.00  0.00    -0.045 NA 
HETATM   16  C   UNL     1      -5.880   6.997  65.465  1.00  0.00    -0.036 A  
HETATM   17  N   UNL     1      -5.786   8.195  66.009  1.00  0.00    -0.036 NA 
HETATM   18  C   UNL     1      -6.796   8.928  65.426  1.00  0.00    -0.072 A  
HETATM   19  C   UNL     1      -7.488   8.142  64.538  1.00  0.00    -0.102 A  
HETATM   20  N   UNL     1      -8.513   8.611  63.817  1.00  0.00    -0.111 NA 
HETATM   21  C   UNL     1      -8.829   9.937  63.985  1.00  0.00    -0.228 C  
HETATM   22  N   UNL     1      -9.833  10.358  63.177  1.00  0.00    -0.487 NA 
HETATM   23  N   UNL     1      -8.242  10.770  64.794  1.00  0.00    -0.362 N  
HETATM   24  H2  UNL     1     -10.306   9.750  62.509  1.00  0.00     0.000 HD 
HETATM   25  H1  UNL     1     -10.068  11.343  63.301  1.00  0.00     0.000 HD 
HETATM   26  H   UNL     1      -8.556  11.739  64.842  1.00  0.00     0.000 HD 
HETATM   27  C   UNL     1      -7.181  10.338  65.598  1.00  0.00    -0.148 C  
HETATM   28  O   UNL     1      -6.606  11.082  66.385  1.00  0.00    -0.125 OA 
ENDBRANCH  14  15
ENDBRANCH  13  14
ENDBRANCH  12  13
BRANCH  12  29
HETATM   29  C   UNL     1      -9.593   3.300  64.427  1.00  0.00    -0.153 C  
HETATM   30  O   UNL     1     -10.978   3.629  64.545  1.00  0.00    -0.547 OA 
HETATM   31  H   UNL     1     -11.502   2.909  64.214  1.00  0.00     0.000 HD 
ENDBRANCH  12  29
ENDBRANCH  11  12
ENDBRANCH  10  11
ENDBRANCH   8  10
ENDBRANCH   4   8
TORSDOF 8
ENDMDL
MODEL      380
REMARK 921   NORMALIZED FREE ENERGY PREDICTED BY IDOCK:   -2.96 KCAL/MOL
REMARK 922        TOTAL FREE ENERGY PREDICTED BY IDOCK:   -5.57 KCAL/MOL
REMARK 923 INTER-LIGAND FREE ENERGY PREDICTED BY IDOCK:   -4.70 KCAL/MOL
REMARK 924 INTRA-LIGAND FREE ENERGY PREDICTED BY IDOCK:   -0.87 KCAL/MOL
REMARK 927      BINDING AFFINITY PREDICTED BY RF-SCORE:    0.00 PKD
ROOT
HETATM    1  C   UNL     1      -8.750  13.588  67.308  1.00  0.00    -0.228 C  
HETATM    2  C   UNL     1      -9.608  12.412  66.824  1.00  0.00    -0.224 C  
HETATM    3  C   UNL     1      -9.613  12.371  65.292  1.00  0.00    -0.005 C  
HETATM    4  C   UNL     1     -11.044  12.428  67.405  1.00  0.00    -0.272 C  
HETATM    5  N   UNL     1     -11.773  13.664  67.045  1.00  0.00    -0.362 NA 
HETATM    6  H1  UNL     1     -12.719  13.674  67.428  1.00  0.00     0.000 HD 
HETATM    7  H2  UNL     1     -11.782  13.809  66.035  1.00  0.00     0.000 HD 
ENDROOT
BRANCH   4   8
HETATM    8  C   UNL     1     -11.024  12.215  68.933  1.00  0.00    -0.224 C  
HETATM    9  O   UNL     1     -11.297  13.079  69.758  1.00  0.00    -0.174 OA 
BRANCH   8  10
HETATM   10  O   UNL     1     -10.594  10.959  69.260  1.00  0.00    -0.213 OA 
BRANCH  10  11
HETATM   11  C   UNL     1     -11.543  10.121  69.944  1.00  0.00    -0.223 C  
BRANCH  11  12
HETATM   12  C   UNL     1     -10.845   9.361  71.083  1.00  0.00    -0.357 C  
BRANCH  12  13
HETATM   13  O   UNL     1     -10.414   8.035  70.699  1.00  0.00    -0.205 OA 
BRANCH  13  14
HETATM   14  C   UNL     1      -9.103   8.014  70.138  1.00  0.00    -0.151 C  
BRANCH  14  15
HETATM   15  N   UNL     1      -9.184   7.565  68.766  1.00  0.00    -0.145 NA 
HETATM   16  C   UNL     1      -9.048   8.372  67.661  1.00  0.00    -0.135 A  
HETATM   17  N   UNL     1      -9.036   7.679  66.538  1.00  0.00    -0.160 NA 
HETATM   18  C   UNL     1      -9.165   6.366  66.932  1.00  0.00    -0.135 A  
HETATM   19  C   UNL     1      -9.260   6.296  68.299  1.00  0.00    -0.111 A  
HETATM   20  N   UNL     1      -9.374   5.133  68.950  1.00  0.00    -0.118 NA 
HETATM   21  C   UNL     1      -9.366   3.994  68.183  1.00  0.00    -0.164 C  
HETATM   22  N   UNL     1      -9.420   2.853  68.912  1.00  0.00    -0.155 NA 
HETATM   23  N   UNL     1      -9.281   3.943  66.886  1.00  0.00    -0.160 N  
HETATM   24  H2  UNL     1      -9.462   2.841  69.931  1.00  0.00     0.000 HD 
HETATM   25  H1  UNL     1      -9.414   2.006  68.343  1.00  0.00     0.000 HD 
HETATM   26  H   UNL     1      -9.283   3.040  66.411  1.00  0.00     0.000 HD 
HETATM   27  C   UNL     1      -9.186   5.124  66.140  1.00  0.00    -0.151 C  
HETATM   28  O   UNL     1      -9.118   5.127  64.917  1.00  0.00    -0.133 OA 
ENDBRANCH  14  15
ENDBRANCH  13  14
ENDBRANCH  12  13
BRANCH  12  29
HETATM   29  C   UNL     1     -11.795   9.207  72.281  1.00  0.00    -0.165 C  
HETATM   30  O   UNL     1     -12.929   8.431  71.891  1.00  0.00    -0.329 OA 
HETATM   31  H   UNL     1     -13.516   8.337  72.631  1.00  0.00     0.000 HD 
ENDBRANCH  12  29
ENDBRANCH  11  12
ENDBRANCH  10  11
ENDBRANCH   8  10
ENDBRANCH   4   8
TORSDOF 8
ENDMDL
MODEL      381
REMARK 921   NORMALIZED FREE ENERGY PREDICTED BY IDOCK:   -2.96 KCAL/MOL
REMARK 922        TOTAL FREE ENERGY PREDICTED BY IDOCK:   -5.56 KCAL/MOL
REMARK 923 INTER-LIGAND FREE ENERGY PREDICTED BY IDOCK:   -5.28 KCAL/MOL
REMARK 924 INTRA-LIGAND FREE ENERGY PREDICTED BY IDOCK:   -0.28 KCAL/MOL
REMARK 927      BINDING AFFINITY PREDICTED BY RF-SCORE:    0.00 PKD
ROOT
HETATM    1  C   UNL     1      -7.633   7.973  64.005  1.00  0.00    -0.124 C  
HETATM    2  C   UNL     1      -7.236   8.396  65.424  1.00  0.00    -0.082 C  
HETATM    3  C   UNL     1      -6.491   9.733  65.378  1.00  0.00    -0.083 C  
HETATM    4  C   UNL     1      -6.427   7.310  66.178  1.00  0.00    -0.045 C  
HETATM    5  N   UNL     1      -5.174   6.964  65.470  1.00  0.00    -0.022 NA 
HETATM    6  H1  UNL     1      -4.642   6.250  65.967  1.00  0.00     0.000 HD 
HETATM    7  H2  UNL     1      -4.606   7.793  65.295  1.00  0.00     0.000 HD 
ENDROOT
BRANCH   4   8
HETATM    8  C   UNL     1      -7.289   6.057  66.435  1.00  0.00    -0.081 C  
HETATM    9  O   UNL     1      -7.645   5.269  65.567  1.00  0.00    -0.080 OA 
BRANCH   8  10
HETATM   10  O   UNL     1      -7.672   5.970  67.744  1.00  0.00    -0.098 OA 
BRANCH  10  11
HETATM   11  C   UNL     1      -7.010   6.861  68.660  1.00  0.00    -0.076 C  
BRANCH  11  12
HETATM   12  C   UNL     1      -7.618   6.715  70.064  1.00  0.00    -0.100 C  
BRANCH  12  13
HETATM   13  O   UNL     1      -9.000   6.292  70.044  1.00  0.00    -0.146 OA 
BRANCH  13  14
HETATM   14  C   UNL     1      -9.863   7.230  69.404  1.00  0.00    -0.163 C  
BRANCH  14  15
HETATM   15  N   UNL     1     -11.022   7.453  70.239  1.00  0.00    -0.253 NA 
HETATM   16  C   UNL     1     -11.679   6.479  70.953  1.00  0.00    -0.356 A  
HETATM   17  N   UNL     1     -12.620   6.981  71.729  1.00  0.00    -0.356 NA 
HETATM   18  C   UNL     1     -12.568   8.341  71.512  1.00  0.00    -0.309 A  
HETATM   19  C   UNL     1     -11.589   8.629  70.594  1.00  0.00    -0.200 A  
HETATM   20  N   UNL     1     -11.311   9.881  70.214  1.00  0.00    -0.274 NA 
HETATM   21  C   UNL     1     -12.039  10.882  70.810  1.00  0.00    -0.368 C  
HETATM   22  N   UNL     1     -11.661  12.125  70.426  1.00  0.00    -0.532 NA 
HETATM   23  N   UNL     1     -12.986  10.724  71.689  1.00  0.00    -0.464 N  
HETATM   24  H2  UNL     1     -10.909  12.301  69.760  1.00  0.00     0.000 HD 
HETATM   25  H1  UNL     1     -12.202  12.869  70.868  1.00  0.00     0.000 HD 
HETATM   26  H   UNL     1     -13.466  11.538  72.071  1.00  0.00     0.000 HD 
HETATM   27  C   UNL     1     -13.346   9.438  72.110  1.00  0.00    -0.468 C  
HETATM   28  O   UNL     1     -14.239   9.239  72.925  1.00  0.00    -0.465 OA 
ENDBRANCH  14  15
ENDBRANCH  13  14
ENDBRANCH  12  13
BRANCH  12  29
HETATM   29  C   UNL     1      -7.557   8.056  70.811  1.00  0.00    -0.077 C  
HETATM   30  O   UNL     1      -6.956   7.859  72.092  1.00  0.00    -0.061 OA 
HETATM   31  H   UNL     1      -6.919   8.688  72.554  1.00  0.00     0.000 HD 
ENDBRANCH  12  29
ENDBRANCH  11  12
ENDBRANCH  10  11
ENDBRANCH   8  10
ENDBRANCH   4   8
TORSDOF 8
ENDMDL
MODEL      382
REMARK 921   NORMALIZED FREE ENERGY PREDICTED BY IDOCK:   -2.92 KCAL/MOL
REMARK 922        TOTAL FREE ENERGY PREDICTED BY IDOCK:   -5.50 KCAL/MOL
REMARK 923 INTER-LIGAND FREE ENERGY PREDICTED BY IDOCK:   -4.95 KCAL/MOL
REMARK 924 INTRA-LIGAND FREE ENERGY PREDICTED BY IDOCK:   -0.56 KCAL/MOL
REMARK 927      BINDING AFFINITY PREDICTED BY RF-SCORE:    0.00 PKD
ROOT
HETATM    1  C   UNL     1      -9.688   4.172  68.485  1.00  0.00    -0.148 C  
HETATM    2  C   UNL     1      -8.567   5.008  69.114  1.00  0.00    -0.098 C  
HETATM    3  C   UNL     1      -7.222   4.300  68.923  1.00  0.00    -0.055 C  
HETATM    4  C   UNL     1      -8.830   5.356  70.601  1.00  0.00    -0.132 C  
HETATM    5  N   UNL     1      -8.975   4.142  71.435  1.00  0.00    -0.114 NA 
HETATM    6  H1  UNL     1      -9.148   4.371  72.414  1.00  0.00     0.000 HD 
HETATM    7  H2  UNL     1      -8.169   3.525  71.336  1.00  0.00     0.000 HD 
ENDROOT
BRANCH   4   8
HETATM    8  C   UNL     1     -10.054   6.283  70.744  1.00  0.00    -0.189 C  
HETATM    9  O   UNL     1     -11.146   5.930  71.174  1.00  0.00    -0.274 OA 
BRANCH   8  10
HETATM   10  O   UNL     1      -9.796   7.536  70.262  1.00  0.00    -0.183 OA 
BRANCH  10  11
HETATM   11  C   UNL     1     -10.894   8.209  69.621  1.00  0.00    -0.158 C  
BRANCH  11  12
HETATM   12  C   UNL     1     -10.431   8.811  68.285  1.00  0.00    -0.187 C  
BRANCH  12  13
HETATM   13  O   UNL     1     -11.046  10.087  67.993  1.00  0.00    -0.266 OA 
BRANCH  13  14
HETATM   14  C   UNL     1     -11.283  10.873  69.160  1.00  0.00    -0.256 C  
BRANCH  14  15
HETATM   15  N   UNL     1     -10.977  12.255  68.869  1.00  0.00    -0.227 NA 
HETATM   16  C   UNL     1     -11.649  13.338  69.384  1.00  0.00    -0.305 A  
HETATM   17  N   UNL     1     -11.077  14.481  69.055  1.00  0.00    -0.251 NA 
HETATM   18  C   UNL     1      -9.984  14.123  68.297  1.00  0.00    -0.241 A  
HETATM   19  C   UNL     1      -9.925  12.756  68.180  1.00  0.00    -0.229 A  
HETATM   20  N   UNL     1      -8.948  12.137  67.508  1.00  0.00    -0.170 NA 
HETATM   21  C   UNL     1      -7.978  12.937  66.956  1.00  0.00    -0.022 C  
HETATM   22  N   UNL     1      -6.986  12.240  66.348  1.00  0.00    -0.124 NA 
HETATM   23  N   UNL     1      -7.933  14.236  67.006  1.00  0.00    -0.368 N  
HETATM   24  H2  UNL     1      -6.964  11.221  66.305  1.00  0.00     0.000 HD 
HETATM   25  H1  UNL     1      -6.266  12.834  65.937  1.00  0.00     0.000 HD 
HETATM   26  H   UNL     1      -7.164  14.737  66.560  1.00  0.00     0.000 HD 
HETATM   27  C   UNL     1      -8.940  14.949  67.669  1.00  0.00    -0.180 C  
HETATM   28  O   UNL     1      -8.948  16.173  67.730  1.00  0.00    -0.190 OA 
ENDBRANCH  14  15
ENDBRANCH  13  14
ENDBRANCH  12  13
BRANCH  12  29
HETATM   29  C   UNL     1     -10.770   7.861  67.126  1.00  0.00    -0.236 C  
HETATM   30  O   UNL     1      -9.635   7.736  66.267  1.00  0.00    -0.342 OA 
HETATM   31  H   UNL     1      -9.845   7.149  65.551  1.00  0.00     0.000 HD 
ENDBRANCH  12  29
ENDBRANCH  11  12
ENDBRANCH  10  11
ENDBRANCH   8  10
ENDBRANCH   4   8
TORSDOF 8
ENDMDL
MODEL      383
REMARK 921   NORMALIZED FREE ENERGY PREDICTED BY IDOCK:   -2.92 KCAL/MOL
REMARK 922        TOTAL FREE ENERGY PREDICTED BY IDOCK:   -5.50 KCAL/MOL
REMARK 923 INTER-LIGAND FREE ENERGY PREDICTED BY IDOCK:   -4.32 KCAL/MOL
REMARK 924 INTRA-LIGAND FREE ENERGY PREDICTED BY IDOCK:   -1.18 KCAL/MOL
REMARK 927      BINDING AFFINITY PREDICTED BY RF-SCORE:    0.00 PKD
ROOT
HETATM    1  C   UNL     1     -14.163   9.267  70.785  1.00  0.00     0.405 C  
HETATM    2  C   UNL     1     -12.737   9.392  71.336  1.00  0.00    -0.425 C  
HETATM    3  C   UNL     1     -12.709   8.956  72.805  1.00  0.00    -0.138 C  
HETATM    4  C   UNL     1     -12.133  10.806  71.142  1.00  0.00    -0.309 C  
HETATM    5  N   UNL     1     -12.941  11.849  71.812  1.00  0.00    -0.399 NA 
HETATM    6  H1  UNL     1     -12.542  12.779  71.684  1.00  0.00     0.000 HD 
HETATM    7  H2  UNL     1     -13.076  11.637  72.800  1.00  0.00     0.000 HD 
ENDROOT
BRANCH   4   8
HETATM    8  C   UNL     1     -11.937  11.123  69.645  1.00  0.00    -0.359 C  
HETATM    9  O   UNL     1     -12.599  11.941  69.018  1.00  0.00     0.032 OA 
BRANCH   8  10
HETATM   10  O   UNL     1     -10.981  10.325  69.082  1.00  0.00    -0.216 OA 
BRANCH  10  11
HETATM   11  C   UNL     1      -9.673  10.906  68.939  1.00  0.00    -0.187 C  
BRANCH  11  12
HETATM   12  C   UNL     1      -8.601   9.902  69.391  1.00  0.00    -0.174 C  
BRANCH  12  13
HETATM   13  O   UNL     1      -7.318  10.117  68.758  1.00  0.00    -0.077 OA 
BRANCH  13  14
HETATM   14  C   UNL     1      -7.377  11.046  67.678  1.00  0.00    -0.094 C  
BRANCH  14  15
HETATM   15  N   UNL     1      -7.291  10.324  66.429  1.00  0.00    -0.108 NA 
HETATM   16  C   UNL     1      -6.466   9.250  66.193  1.00  0.00    -0.069 A  
HETATM   17  N   UNL     1      -6.686   8.704  65.012  1.00  0.00    -0.068 NA 
HETATM   18  C   UNL     1      -7.701   9.454  64.460  1.00  0.00    -0.118 A  
HETATM   19  C   UNL     1      -8.069  10.451  65.329  1.00  0.00    -0.152 A  
HETATM   20  N   UNL     1      -9.049  11.317  65.049  1.00  0.00    -0.130 NA 
HETATM   21  C   UNL     1      -9.699  11.147  63.851  1.00  0.00    -0.286 C  
HETATM   22  N   UNL     1     -10.721  12.017  63.664  1.00  0.00    -0.407 NA 
HETATM   23  N   UNL     1      -9.435  10.239  62.956  1.00  0.00    -0.358 N  
HETATM   24  H2  UNL     1     -10.983  12.728  64.346  1.00  0.00     0.000 HD 
HETATM   25  H1  UNL     1     -11.204  11.891  62.774  1.00  0.00     0.000 HD 
HETATM   26  H   UNL     1      -9.981  10.199  62.096  1.00  0.00     0.000 HD 
HETATM   27  C   UNL     1      -8.402   9.319  63.173  1.00  0.00    -0.196 C  
HETATM   28  O   UNL     1      -8.108   8.456  62.354  1.00  0.00    -0.156 OA 
ENDBRANCH  14  15
ENDBRANCH  13  14
ENDBRANCH  12  13
BRANCH  12  29
HETATM   29  C   UNL     1      -9.043   8.468  69.061  1.00  0.00    -0.146 C  
HETATM   30  O   UNL     1      -9.858   7.966  70.122  1.00  0.00    -0.183 OA 
HETATM   31  H   UNL     1     -10.131   7.080  69.917  1.00  0.00     0.000 HD 
ENDBRANCH  12  29
ENDBRANCH  11  12
ENDBRANCH  10  11
ENDBRANCH   8  10
ENDBRANCH   4   8
TORSDOF 8
ENDMDL
MODEL      384
REMARK 921   NORMALIZED FREE ENERGY PREDICTED BY IDOCK:   -2.90 KCAL/MOL
REMARK 922        TOTAL FREE ENERGY PREDICTED BY IDOCK:   -5.48 KCAL/MOL
REMARK 923 INTER-LIGAND FREE ENERGY PREDICTED BY IDOCK:   -6.12 KCAL/MOL
REMARK 924 INTRA-LIGAND FREE ENERGY PREDICTED BY IDOCK:    0.65 KCAL/MOL
REMARK 927      BINDING AFFINITY PREDICTED BY RF-SCORE:    0.00 PKD
ROOT
HETATM    1  C   UNL     1      -8.482  19.559  65.659  1.00  0.00     0.257 C  
HETATM    2  C   UNL     1      -9.323  18.842  66.722  1.00  0.00    -0.343 C  
HETATM    3  C   UNL     1     -10.027  19.874  67.609  1.00  0.00    -0.553 C  
HETATM    4  C   UNL     1      -8.507  17.824  67.557  1.00  0.00    -0.227 C  
HETATM    5  N   UNL     1      -7.381  18.469  68.269  1.00  0.00    -0.268 NA 
HETATM    6  H1  UNL     1      -6.844  17.799  68.819  1.00  0.00     0.000 HD 
HETATM    7  H2  UNL     1      -7.703  19.247  68.845  1.00  0.00     0.000 HD 
ENDROOT
BRANCH   4   8
HETATM    8  C   UNL     1      -8.018  16.654  66.679  1.00  0.00    -0.280 C  
HETATM    9  O   UNL     1      -6.909  16.139  66.763  1.00  0.00    -0.230 OA 
BRANCH   8  10
HETATM   10  O   UNL     1      -8.948  16.306  65.741  1.00  0.00    -0.425 OA 
BRANCH  10  11
HETATM   11  C   UNL     1     -10.323  16.554  66.087  1.00  0.00    -0.334 C  
BRANCH  11  12
HETATM   12  C   UNL     1     -11.230  15.511  65.414  1.00  0.00    -0.228 C  
BRANCH  12  13
HETATM   13  O   UNL     1     -10.655  14.184  65.398  1.00  0.00    -0.308 OA 
BRANCH  13  14
HETATM   14  C   UNL     1     -11.193  13.355  64.370  1.00  0.00    -0.384 C  
BRANCH  14  15
HETATM   15  N   UNL     1     -10.589  12.044  64.457  1.00  0.00    -0.294 NA 
HETATM   16  C   UNL     1      -9.784  11.480  63.496  1.00  0.00    -0.336 A  
HETATM   17  N   UNL     1      -9.266  10.332  63.891  1.00  0.00    -0.251 NA 
HETATM   18  C   UNL     1      -9.754  10.147  65.167  1.00  0.00    -0.304 A  
HETATM   19  C   UNL     1     -10.569  11.196  65.511  1.00  0.00    -0.225 A  
HETATM   20  N   UNL     1     -11.161  11.278  66.708  1.00  0.00    -0.329 NA 
HETATM   21  C   UNL     1     -10.894  10.267  67.598  1.00  0.00    -0.307 C  
HETATM   22  N   UNL     1     -11.474  10.448  68.810  1.00  0.00    -0.458 NA 
HETATM   23  N   UNL     1     -10.139   9.230  67.379  1.00  0.00    -0.206 N  
HETATM   24  H2  UNL     1     -12.053  11.257  69.038  1.00  0.00     0.000 HD 
HETATM   25  H1  UNL     1     -11.277   9.698  69.472  1.00  0.00     0.000 HD 
HETATM   26  H   UNL     1     -10.005   8.534  68.113  1.00  0.00     0.000 HD 
HETATM   27  C   UNL     1      -9.511   9.067  66.138  1.00  0.00    -0.253 C  
HETATM   28  O   UNL     1      -8.803   8.102  65.880  1.00  0.00    -0.155 OA 
ENDBRANCH  14  15
ENDBRANCH  13  14
ENDBRANCH  12  13
BRANCH  12  29
HETATM   29  C   UNL     1     -11.508  15.910  63.957  1.00  0.00     0.153 C  
HETATM   30  O   UNL     1     -12.822  16.465  63.860  1.00  0.00     0.165 OA 
HETATM   31  H   UNL     1     -12.994  16.712  62.959  1.00  0.00     0.000 HD 
ENDBRANCH  12  29
ENDBRANCH  11  12
ENDBRANCH  10  11
ENDBRANCH   8  10
ENDBRANCH   4   8
TORSDOF 8
ENDMDL
MODEL      385
REMARK 921   NORMALIZED FREE ENERGY PREDICTED BY IDOCK:   -2.90 KCAL/MOL
REMARK 922        TOTAL FREE ENERGY PREDICTED BY IDOCK:   -5.47 KCAL/MOL
REMARK 923 INTER-LIGAND FREE ENERGY PREDICTED BY IDOCK:   -5.19 KCAL/MOL
REMARK 924 INTRA-LIGAND FREE ENERGY PREDICTED BY IDOCK:   -0.27 KCAL/MOL
REMARK 927      BINDING AFFINITY PREDICTED BY RF-SCORE:    0.00 PKD
ROOT
HETATM    1  C   UNL     1      -9.342  16.204  68.360  1.00  0.00    -0.206 C  
HETATM    2  C   UNL     1      -8.782  15.692  67.027  1.00  0.00    -0.256 C  
HETATM    3  C   UNL     1      -7.716  16.662  66.506  1.00  0.00    -0.337 C  
HETATM    4  C   UNL     1      -9.881  15.421  65.970  1.00  0.00    -0.326 C  
HETATM    5  N   UNL     1     -10.665  16.639  65.663  1.00  0.00    -0.336 NA 
HETATM    6  H1  UNL     1     -11.389  16.460  64.967  1.00  0.00     0.000 HD 
HETATM    7  H2  UNL     1     -10.059  17.408  65.377  1.00  0.00     0.000 HD 
ENDROOT
BRANCH   4   8
HETATM    8  C   UNL     1     -10.798  14.261  66.410  1.00  0.00    -0.307 C  
HETATM    9  O   UNL     1     -11.972  14.390  66.737  1.00  0.00    -0.411 OA 
BRANCH   8  10
HETATM   10  O   UNL     1     -10.120  13.076  66.462  1.00  0.00    -0.258 OA 
BRANCH  10  11
HETATM   11  C   UNL     1     -10.893  11.890  66.204  1.00  0.00    -0.292 C  
BRANCH  11  12
HETATM   12  C   UNL     1     -10.176  11.012  65.166  1.00  0.00    -0.291 C  
BRANCH  12  13
HETATM   13  O   UNL     1      -8.888  11.538  64.770  1.00  0.00     0.117 OA 
BRANCH  13  14
HETATM   14  C   UNL     1      -7.855  10.554  64.783  1.00  0.00    -0.022 C  
BRANCH  14  15
HETATM   15  N   UNL     1      -7.712  10.037  66.126  1.00  0.00    -0.104 NA 
HETATM   16  C   UNL     1      -6.983  10.633  67.128  1.00  0.00    -0.088 A  
HETATM   17  N   UNL     1      -7.132  10.016  68.285  1.00  0.00    -0.072 NA 
HETATM   18  C   UNL     1      -7.999   8.978  68.022  1.00  0.00    -0.101 A  
HETATM   19  C   UNL     1      -8.352   8.990  66.695  1.00  0.00    -0.118 A  
HETATM   20  N   UNL     1      -9.201   8.098  66.174  1.00  0.00    -0.187 NA 
HETATM   21  C   UNL     1      -9.734   7.174  67.039  1.00  0.00    -0.170 C  
HETATM   22  N   UNL     1     -10.635   6.346  66.457  1.00  0.00    -0.493 NA 
HETATM   23  N   UNL     1      -9.473   7.072  68.310  1.00  0.00    -0.129 N  
HETATM   24  H2  UNL     1     -10.892   6.403  65.471  1.00  0.00     0.000 HD 
HETATM   25  H1  UNL     1     -11.031   5.659  67.099  1.00  0.00     0.000 HD 
HETATM   26  H   UNL     1      -9.926   6.347  68.866  1.00  0.00     0.000 HD 
HETATM   27  C   UNL     1      -8.570   7.956  68.915  1.00  0.00    -0.132 C  
HETATM   28  O   UNL     1      -8.282   7.891  70.104  1.00  0.00    -0.120 OA 
ENDBRANCH  14  15
ENDBRANCH  13  14
ENDBRANCH  12  13
BRANCH  12  29
HETATM   29  C   UNL     1     -11.031  10.882  63.897  1.00  0.00     0.172 C  
HETATM   30  O   UNL     1     -10.175  10.779  62.757  1.00  0.00    -0.727 OA 
HETATM   31  H   UNL     1     -10.704  10.699  61.972  1.00  0.00     0.000 HD 
ENDBRANCH  12  29
ENDBRANCH  11  12
ENDBRANCH  10  11
ENDBRANCH   8  10
ENDBRANCH   4   8
TORSDOF 8
ENDMDL
MODEL      386
REMARK 921   NORMALIZED FREE ENERGY PREDICTED BY IDOCK:   -2.88 KCAL/MOL
REMARK 922        TOTAL FREE ENERGY PREDICTED BY IDOCK:   -5.44 KCAL/MOL
REMARK 923 INTER-LIGAND FREE ENERGY PREDICTED BY IDOCK:   -4.88 KCAL/MOL
REMARK 924 INTRA-LIGAND FREE ENERGY PREDICTED BY IDOCK:   -0.57 KCAL/MOL
REMARK 927      BINDING AFFINITY PREDICTED BY RF-SCORE:    0.00 PKD
ROOT
HETATM    1  C   UNL     1     -11.785  15.842  69.853  1.00  0.00    -0.365 C  
HETATM    2  C   UNL     1     -10.819  14.747  69.383  1.00  0.00    -0.269 C  
HETATM    3  C   UNL     1      -9.974  15.268  68.216  1.00  0.00    -0.222 C  
HETATM    4  C   UNL     1     -11.533  13.418  69.031  1.00  0.00    -0.301 C  
HETATM    5  N   UNL     1     -12.533  13.596  67.954  1.00  0.00    -0.229 NA 
HETATM    6  H1  UNL     1     -13.002  12.720  67.722  1.00  0.00     0.000 HD 
HETATM    7  H2  UNL     1     -12.115  14.021  67.127  1.00  0.00     0.000 HD 
ENDROOT
BRANCH   4   8
HETATM    8  C   UNL     1     -12.168  12.782  70.285  1.00  0.00    -0.277 C  
HETATM    9  O   UNL     1     -13.136  13.240  70.881  1.00  0.00    -0.150 OA 
BRANCH   8  10
HETATM   10  O   UNL     1     -11.473  11.680  70.697  1.00  0.00     0.013 OA 
BRANCH  10  11
HETATM   11  C   UNL     1     -12.068  10.405  70.395  1.00  0.00    -0.315 C  
BRANCH  11  12
HETATM   12  C   UNL     1     -11.057   9.278  70.665  1.00  0.00    -0.276 C  
BRANCH  12  13
HETATM   13  O   UNL     1     -10.507   8.706  69.456  1.00  0.00    -0.216 OA 
BRANCH  13  14
HETATM   14  C   UNL     1     -10.844   9.447  68.284  1.00  0.00    -0.112 C  
BRANCH  14  15
HETATM   15  N   UNL     1      -9.651   9.646  67.492  1.00  0.00    -0.147 NA 
HETATM   16  C   UNL     1      -8.790  10.711  67.616  1.00  0.00    -0.131 A  
HETATM   17  N   UNL     1      -7.717  10.573  66.860  1.00  0.00    -0.110 NA 
HETATM   18  C   UNL     1      -7.888   9.364  66.222  1.00  0.00    -0.100 A  
HETATM   19  C   UNL     1      -9.078   8.798  66.607  1.00  0.00    -0.158 A  
HETATM   20  N   UNL     1      -9.484   7.608  66.151  1.00  0.00    -0.107 NA 
HETATM   21  C   UNL     1      -8.637   6.956  65.289  1.00  0.00     0.006 C  
HETATM   22  N   UNL     1      -9.082   5.730  64.919  1.00  0.00    -0.355 NA 
HETATM   23  N   UNL     1      -7.490   7.397  64.859  1.00  0.00    -0.080 N  
HETATM   24  H2  UNL     1      -9.960   5.331  65.249  1.00  0.00     0.000 HD 
HETATM   25  H1  UNL     1      -8.453   5.246  64.279  1.00  0.00     0.000 HD 
HETATM   26  H   UNL     1      -6.935   6.830  64.218  1.00  0.00     0.000 HD 
HETATM   27  C   UNL     1      -7.017   8.648  65.276  1.00  0.00    -0.075 C  
HETATM   28  O   UNL     1      -5.951   9.111  64.888  1.00  0.00    -0.062 OA 
ENDBRANCH  14  15
ENDBRANCH  13  14
ENDBRANCH  12  13
BRANCH  12  29
HETATM   29  C   UNL     1     -11.728   8.139  71.449  1.00  0.00    -0.285 C  
HETATM   30  O   UNL     1     -12.871   7.675  70.728  1.00  0.00    -0.551 OA 
HETATM   31  H   UNL     1     -13.285   6.972  71.213  1.00  0.00     0.000 HD 
ENDBRANCH  12  29
ENDBRANCH  11  12
ENDBRANCH  10  11
ENDBRANCH   8  10
ENDBRANCH   4   8
TORSDOF 8
ENDMDL
MODEL      387
REMARK 921   NORMALIZED FREE ENERGY PREDICTED BY IDOCK:   -2.87 KCAL/MOL
REMARK 922        TOTAL FREE ENERGY PREDICTED BY IDOCK:   -5.44 KCAL/MOL
REMARK 923 INTER-LIGAND FREE ENERGY PREDICTED BY IDOCK:   -4.71 KCAL/MOL
REMARK 924 INTRA-LIGAND FREE ENERGY PREDICTED BY IDOCK:   -0.72 KCAL/MOL
REMARK 927      BINDING AFFINITY PREDICTED BY RF-SCORE:    0.00 PKD
ROOT
HETATM    1  C   UNL     1     -10.600   3.633  65.142  1.00  0.00     0.291 C  
HETATM    2  C   UNL     1      -9.218   4.293  65.067  1.00  0.00    -0.155 C  
HETATM    3  C   UNL     1      -8.281   3.439  64.206  1.00  0.00    -0.089 C  
HETATM    4  C   UNL     1      -8.610   4.590  66.461  1.00  0.00    -0.112 C  
HETATM    5  N   UNL     1      -8.450   3.359  67.268  1.00  0.00    -0.095 NA 
HETATM    6  H1  UNL     1      -8.050   3.555  68.185  1.00  0.00     0.000 HD 
HETATM    7  H2  UNL     1      -7.906   2.656  66.769  1.00  0.00     0.000 HD 
ENDROOT
BRANCH   4   8
HETATM    8  C   UNL     1      -9.441   5.649  67.213  1.00  0.00    -0.115 C  
HETATM    9  O   UNL     1      -9.898   5.501  68.341  1.00  0.00    -0.127 OA 
BRANCH   8  10
HETATM   10  O   UNL     1      -9.671   6.751  66.439  1.00  0.00    -0.151 OA 
BRANCH  10  11
HETATM   11  C   UNL     1      -8.642   7.758  66.446  1.00  0.00    -0.145 C  
BRANCH  11  12
HETATM   12  C   UNL     1      -8.845   8.706  67.639  1.00  0.00    -0.136 C  
BRANCH  12  13
HETATM   13  O   UNL     1      -9.328  10.012  67.251  1.00  0.00    -0.146 OA 
BRANCH  13  14
HETATM   14  C   UNL     1     -10.749  10.077  67.154  1.00  0.00    -0.212 C  
BRANCH  14  15
HETATM   15  N   UNL     1     -11.217  11.254  67.850  1.00  0.00    -0.266 NA 
HETATM   16  C   UNL     1     -11.278  11.391  69.217  1.00  0.00    -0.277 A  
HETATM   17  N   UNL     1     -11.620  12.613  69.579  1.00  0.00    -0.293 NA 
HETATM   18  C   UNL     1     -11.783  13.299  68.396  1.00  0.00    -0.354 A  
HETATM   19  C   UNL     1     -11.539  12.463  67.335  1.00  0.00    -0.365 A  
HETATM   20  N   UNL     1     -11.609  12.880  66.066  1.00  0.00    -0.354 NA 
HETATM   21  C   UNL     1     -11.912  14.205  65.868  1.00  0.00    -0.409 C  
HETATM   22  N   UNL     1     -11.901  14.571  64.563  1.00  0.00    -0.524 NA 
HETATM   23  N   UNL     1     -12.160  15.083  66.796  1.00  0.00    -0.150 N  
HETATM   24  H2  UNL     1     -11.688  13.926  63.802  1.00  0.00     0.000 HD 
HETATM   25  H1  UNL     1     -12.127  15.555  64.415  1.00  0.00     0.000 HD 
HETATM   26  H   UNL     1     -12.375  16.047  66.540  1.00  0.00     0.000 HD 
HETATM   27  C   UNL     1     -12.131  14.707  68.144  1.00  0.00    -0.164 C  
HETATM   28  O   UNL     1     -12.371  15.495  69.052  1.00  0.00    -0.190 OA 
ENDBRANCH  14  15
ENDBRANCH  13  14
ENDBRANCH  12  13
BRANCH  12  29
HETATM   29  C   UNL     1      -7.519   8.908  68.388  1.00  0.00    -0.086 C  
HETATM   30  O   UNL     1      -7.486   8.054  69.533  1.00  0.00    -0.087 OA 
HETATM   31  H   UNL     1      -6.666   8.179  69.997  1.00  0.00     0.000 HD 
ENDBRANCH  12  29
ENDBRANCH  11  12
ENDBRANCH  10  11
ENDBRANCH   8  10
ENDBRANCH   4   8
TORSDOF 8
ENDMDL
MODEL      388
REMARK 921   NORMALIZED FREE ENERGY PREDICTED BY IDOCK:   -2.87 KCAL/MOL
REMARK 922        TOTAL FREE ENERGY PREDICTED BY IDOCK:   -5.43 KCAL/MOL
REMARK 923 INTER-LIGAND FREE ENERGY PREDICTED BY IDOCK:   -5.11 KCAL/MOL
REMARK 924 INTRA-LIGAND FREE ENERGY PREDICTED BY IDOCK:   -0.32 KCAL/MOL
REMARK 927      BINDING AFFINITY PREDICTED BY RF-SCORE:    0.00 PKD
ROOT
HETATM    1  C   UNL     1      -8.033   7.197  62.499  1.00  0.00    -0.125 C  
HETATM    2  C   UNL     1      -8.197   8.368  63.476  1.00  0.00    -0.106 C  
HETATM    3  C   UNL     1      -7.956   9.692  62.744  1.00  0.00    -0.125 C  
HETATM    4  C   UNL     1      -7.307   8.235  64.738  1.00  0.00    -0.088 C  
HETATM    5  N   UNL     1      -5.869   8.165  64.395  1.00  0.00    -0.052 NA 
HETATM    6  H1  UNL     1      -5.284   8.078  65.225  1.00  0.00     0.000 HD 
HETATM    7  H2  UNL     1      -5.584   8.960  63.823  1.00  0.00     0.000 HD 
ENDROOT
BRANCH   4   8
HETATM    8  C   UNL     1      -7.738   7.027  65.594  1.00  0.00    -0.102 C  
HETATM    9  O   UNL     1      -8.347   6.054  65.166  1.00  0.00    -0.145 OA 
BRANCH   8  10
HETATM   10  O   UNL     1      -7.422   7.206  66.912  1.00  0.00    -0.095 OA 
BRANCH  10  11
HETATM   11  C   UNL     1      -7.623   8.530  67.439  1.00  0.00    -0.097 C  
BRANCH  11  12
HETATM   12  C   UNL     1      -7.249   8.563  68.929  1.00  0.00    -0.078 C  
BRANCH  12  13
HETATM   13  O   UNL     1      -8.335   8.160  69.796  1.00  0.00    -0.120 OA 
BRANCH  13  14
HETATM   14  C   UNL     1      -9.605   8.181  69.148  1.00  0.00    -0.157 C  
BRANCH  14  15
HETATM   15  N   UNL     1     -10.578   8.777  70.035  1.00  0.00    -0.220 NA 
HETATM   16  C   UNL     1     -10.987   8.241  71.233  1.00  0.00    -0.243 A  
HETATM   17  N   UNL     1     -11.784   9.057  71.897  1.00  0.00    -0.367 NA 
HETATM   18  C   UNL     1     -11.893  10.172  71.096  1.00  0.00    -0.381 A  
HETATM   19  C   UNL     1     -11.156   9.998  69.952  1.00  0.00    -0.288 A  
HETATM   20  N   UNL     1     -11.071  10.940  69.006  1.00  0.00    -0.225 NA 
HETATM   21  C   UNL     1     -11.741  12.115  69.244  1.00  0.00    -0.328 C  
HETATM   22  N   UNL     1     -11.558  13.046  68.276  1.00  0.00    -0.317 NA 
HETATM   23  N   UNL     1     -12.465  12.388  70.290  1.00  0.00    -0.143 N  
HETATM   24  H2  UNL     1     -10.979  12.890  67.451  1.00  0.00     0.000 HD 
HETATM   25  H1  UNL     1     -12.055  13.919  68.453  1.00  0.00     0.000 HD 
HETATM   26  H   UNL     1     -12.922  13.296  70.370  1.00  0.00     0.000 HD 
HETATM   27  C   UNL     1     -12.619  11.436  71.306  1.00  0.00    -0.374 C  
HETATM   28  O   UNL     1     -13.302  11.641  72.302  1.00  0.00    -0.443 OA 
ENDBRANCH  14  15
ENDBRANCH  13  14
ENDBRANCH  12  13
BRANCH  12  29
HETATM   29  C   UNL     1      -6.833   9.983  69.342  1.00  0.00    -0.064 C  
HETATM   30  O   UNL     1      -7.318  10.256  70.658  1.00  0.00    -0.433 OA 
HETATM   31  H   UNL     1      -7.061  11.134  70.913  1.00  0.00     0.000 HD 
ENDBRANCH  12  29
ENDBRANCH  11  12
ENDBRANCH  10  11
ENDBRANCH   8  10
ENDBRANCH   4   8
TORSDOF 8
ENDMDL
MODEL      389
REMARK 921   NORMALIZED FREE ENERGY PREDICTED BY IDOCK:   -2.87 KCAL/MOL
REMARK 922        TOTAL FREE ENERGY PREDICTED BY IDOCK:   -5.42 KCAL/MOL
REMARK 923 INTER-LIGAND FREE ENERGY PREDICTED BY IDOCK:   -5.01 KCAL/MOL
REMARK 924 INTRA-LIGAND FREE ENERGY PREDICTED BY IDOCK:   -0.42 KCAL/MOL
REMARK 927      BINDING AFFINITY PREDICTED BY RF-SCORE:    0.00 PKD
ROOT
HETATM    1  C   UNL     1     -11.785  15.842  69.853  1.00  0.00    -0.365 C  
HETATM    2  C   UNL     1     -10.802  14.761  69.387  1.00  0.00    -0.269 C  
HETATM    3  C   UNL     1      -9.954  15.296  68.228  1.00  0.00    -0.222 C  
HETATM    4  C   UNL     1     -11.496  13.424  69.024  1.00  0.00    -0.301 C  
HETATM    5  N   UNL     1     -12.489  13.593  67.940  1.00  0.00    -0.229 NA 
HETATM    6  H1  UNL     1     -12.946  12.713  67.702  1.00  0.00     0.000 HD 
HETATM    7  H2  UNL     1     -12.070  14.027  67.118  1.00  0.00     0.000 HD 
ENDROOT
BRANCH   4   8
HETATM    8  C   UNL     1     -12.133  12.776  70.271  1.00  0.00    -0.297 C  
HETATM    9  O   UNL     1     -13.111  13.219  70.861  1.00  0.00    -0.150 OA 
BRANCH   8  10
HETATM   10  O   UNL     1     -11.428  11.681  70.685  1.00  0.00     0.013 OA 
BRANCH  10  11
HETATM   11  C   UNL     1     -12.004  10.400  70.373  1.00  0.00    -0.320 C  
BRANCH  11  12
HETATM   12  C   UNL     1     -10.982   9.285  70.648  1.00  0.00    -0.276 C  
BRANCH  12  13
HETATM   13  O   UNL     1     -10.417   8.722  69.441  1.00  0.00    -0.218 OA 
BRANCH  13  14
HETATM   14  C   UNL     1      -9.000   8.576  69.503  1.00  0.00    -0.149 C  
BRANCH  14  15
HETATM   15  N   UNL     1      -8.641   7.253  69.045  1.00  0.00    -0.129 NA 
HETATM   16  C   UNL     1      -8.543   6.139  69.846  1.00  0.00    -0.132 A  
HETATM   17  N   UNL     1      -8.328   5.041  69.146  1.00  0.00    -0.086 NA 
HETATM   18  C   UNL     1      -8.290   5.460  67.834  1.00  0.00    -0.099 A  
HETATM   19  C   UNL     1      -8.479   6.818  67.773  1.00  0.00    -0.122 A  
HETATM   20  N   UNL     1      -8.507   7.485  66.614  1.00  0.00    -0.125 NA 
HETATM   21  C   UNL     1      -8.363   6.739  65.470  1.00  0.00    -0.142 C  
HETATM   22  N   UNL     1      -8.467   7.469  64.333  1.00  0.00    -0.369 NA 
HETATM   23  N   UNL     1      -8.181   5.451  65.411  1.00  0.00    -0.124 N  
HETATM   24  H2  UNL     1      -8.635   8.475  64.327  1.00  0.00     0.000 HD 
HETATM   25  H1  UNL     1      -8.360   6.915  63.483  1.00  0.00     0.000 HD 
HETATM   26  H   UNL     1      -8.086   4.992  64.505  1.00  0.00     0.000 HD 
HETATM   27  C   UNL     1      -8.113   4.696  66.588  1.00  0.00    -0.103 C  
HETATM   28  O   UNL     1      -7.929   3.485  66.584  1.00  0.00    -0.087 OA 
ENDBRANCH  14  15
ENDBRANCH  13  14
ENDBRANCH  12  13
BRANCH  12  29
HETATM   29  C   UNL     1     -11.644   8.136  71.425  1.00  0.00    -0.278 C  
HETATM   30  O   UNL     1     -12.286   8.660  72.589  1.00  0.00    -0.428 OA 
HETATM   31  H   UNL     1     -12.695   7.950  73.070  1.00  0.00     0.000 HD 
ENDBRANCH  12  29
ENDBRANCH  11  12
ENDBRANCH  10  11
ENDBRANCH   8  10
ENDBRANCH   4   8
TORSDOF 8
ENDMDL
MODEL      390
REMARK 921   NORMALIZED FREE ENERGY PREDICTED BY IDOCK:   -2.86 KCAL/MOL
REMARK 922        TOTAL FREE ENERGY PREDICTED BY IDOCK:   -5.42 KCAL/MOL
REMARK 923 INTER-LIGAND FREE ENERGY PREDICTED BY IDOCK:   -4.56 KCAL/MOL
REMARK 924 INTRA-LIGAND FREE ENERGY PREDICTED BY IDOCK:   -0.86 KCAL/MOL
REMARK 927      BINDING AFFINITY PREDICTED BY RF-SCORE:    0.00 PKD
ROOT
HETATM    1  C   UNL     1      -9.932   3.771  64.202  1.00  0.00    -0.193 C  
HETATM    2  C   UNL     1      -8.409   3.778  64.021  1.00  0.00    -0.091 C  
HETATM    3  C   UNL     1      -7.993   2.644  63.078  1.00  0.00    -0.069 C  
HETATM    4  C   UNL     1      -7.637   3.725  65.364  1.00  0.00    -0.081 C  
HETATM    5  N   UNL     1      -7.967   2.511  66.143  1.00  0.00    -0.081 NA 
HETATM    6  H1  UNL     1      -7.459   2.477  67.027  1.00  0.00     0.000 HD 
HETATM    7  H2  UNL     1      -7.814   1.665  65.595  1.00  0.00     0.000 HD 
ENDROOT
BRANCH   4   8
HETATM    8  C   UNL     1      -7.878   5.005  66.191  1.00  0.00    -0.099 C  
HETATM    9  O   UNL     1      -8.406   5.027  67.296  1.00  0.00    -0.107 OA 
BRANCH   8  10
HETATM   10  O   UNL     1      -7.495   6.125  65.508  1.00  0.00    -0.077 OA 
BRANCH  10  11
HETATM   11  C   UNL     1      -7.712   7.381  66.176  1.00  0.00    -0.094 C  
BRANCH  11  12
HETATM   12  C   UNL     1      -9.046   7.994  65.719  1.00  0.00    -0.055 C  
BRANCH  12  13
HETATM   13  O   UNL     1      -8.878   9.109  64.815  1.00  0.00    -0.193 OA 
BRANCH  13  14
HETATM   14  C   UNL     1      -8.343  10.269  65.451  1.00  0.00    -0.162 C  
BRANCH  14  15
HETATM   15  N   UNL     1      -9.326  11.328  65.405  1.00  0.00    -0.218 NA 
HETATM   16  C   UNL     1     -10.367  11.401  64.510  1.00  0.00    -0.313 A  
HETATM   17  N   UNL     1     -11.184  12.403  64.778  1.00  0.00    -0.301 NA 
HETATM   18  C   UNL     1     -10.651  13.002  65.899  1.00  0.00    -0.275 A  
HETATM   19  C   UNL     1      -9.509  12.344  66.280  1.00  0.00    -0.220 A  
HETATM   20  N   UNL     1      -8.799  12.708  67.354  1.00  0.00    -0.180 NA 
HETATM   21  C   UNL     1      -9.283  13.766  68.083  1.00  0.00    -0.199 C  
HETATM   22  N   UNL     1      -8.551  14.038  69.191  1.00  0.00    -0.355 NA 
HETATM   23  N   UNL     1     -10.352  14.458  67.815  1.00  0.00    -0.236 N  
HETATM   24  H2  UNL     1      -7.721  13.508  69.458  1.00  0.00     0.000 HD 
HETATM   25  H1  UNL     1      -8.910  14.824  69.733  1.00  0.00     0.000 HD 
HETATM   26  H   UNL     1     -10.626  15.228  68.426  1.00  0.00     0.000 HD 
HETATM   27  C   UNL     1     -11.126  14.148  66.691  1.00  0.00    -0.312 C  
HETATM   28  O   UNL     1     -12.132  14.780  66.390  1.00  0.00    -0.264 OA 
ENDBRANCH  14  15
ENDBRANCH  13  14
ENDBRANCH  12  13
BRANCH  12  29
HETATM   29  C   UNL     1      -9.842   8.499  66.932  1.00  0.00    -0.242 C  
HETATM   30  O   UNL     1      -9.846   7.495  67.949  1.00  0.00    -0.145 OA 
HETATM   31  H   UNL     1     -10.338   7.807  68.698  1.00  0.00     0.000 HD 
ENDBRANCH  12  29
ENDBRANCH  11  12
ENDBRANCH  10  11
ENDBRANCH   8  10
ENDBRANCH   4   8
TORSDOF 8
ENDMDL
MODEL      391
REMARK 921   NORMALIZED FREE ENERGY PREDICTED BY IDOCK:   -2.85 KCAL/MOL
REMARK 922        TOTAL FREE ENERGY PREDICTED BY IDOCK:   -5.40 KCAL/MOL
REMARK 923 INTER-LIGAND FREE ENERGY PREDICTED BY IDOCK:   -5.11 KCAL/MOL
REMARK 924 INTRA-LIGAND FREE ENERGY PREDICTED BY IDOCK:   -0.30 KCAL/MOL
REMARK 927      BINDING AFFINITY PREDICTED BY RF-SCORE:    0.00 PKD
ROOT
HETATM    1  C   UNL     1      -9.426  16.331  65.982  1.00  0.00    -0.369 C  
HETATM    2  C   UNL     1      -9.514  15.635  67.346  1.00  0.00    -0.217 C  
HETATM    3  C   UNL     1      -8.846  16.504  68.416  1.00  0.00    -0.218 C  
HETATM    4  C   UNL     1      -8.942  14.195  67.331  1.00  0.00    -0.202 C  
HETATM    5  N   UNL     1      -7.517  14.171  66.932  1.00  0.00    -0.274 NA 
HETATM    6  H1  UNL     1      -7.140  13.223  66.923  1.00  0.00     0.000 HD 
HETATM    7  H2  UNL     1      -6.956  14.786  67.522  1.00  0.00     0.000 HD 
ENDROOT
BRANCH   4   8
HETATM    8  C   UNL     1      -9.790  13.272  66.433  1.00  0.00    -0.281 C  
HETATM    9  O   UNL     1     -10.096  13.522  65.273  1.00  0.00    -0.303 OA 
BRANCH   8  10
HETATM   10  O   UNL     1     -10.224  12.168  67.113  1.00  0.00    -0.208 OA 
BRANCH  10  11
HETATM   11  C   UNL     1      -9.699  11.995  68.441  1.00  0.00    -0.199 C  
BRANCH  11  12
HETATM   12  C   UNL     1     -10.073  10.603  68.975  1.00  0.00    -0.213 C  
BRANCH  12  13
HETATM   13  O   UNL     1     -10.164   9.602  67.935  1.00  0.00    -0.174 OA 
BRANCH  13  14
HETATM   14  C   UNL     1      -8.889   9.164  67.468  1.00  0.00    -0.119 C  
BRANCH  14  15
HETATM   15  N   UNL     1      -8.118   8.675  68.589  1.00  0.00    -0.115 NA 
HETATM   16  C   UNL     1      -7.011   9.297  69.116  1.00  0.00    -0.058 A  
HETATM   17  N   UNL     1      -6.582   8.702  70.214  1.00  0.00    -0.038 NA 
HETATM   18  C   UNL     1      -7.452   7.652  70.409  1.00  0.00    -0.079 A  
HETATM   19  C   UNL     1      -8.392   7.634  69.409  1.00  0.00    -0.131 A  
HETATM   20  N   UNL     1      -9.373   6.726  69.366  1.00  0.00    -0.149 NA 
HETATM   21  C   UNL     1      -9.416   5.815  70.393  1.00  0.00    -0.166 C  
HETATM   22  N   UNL     1     -10.471   4.968  70.320  1.00  0.00    -0.232 NA 
HETATM   23  N   UNL     1      -8.581   5.741  71.389  1.00  0.00    -0.128 N  
HETATM   24  H2  UNL     1     -11.166   5.003  69.574  1.00  0.00     0.000 HD 
HETATM   25  H1  UNL     1     -10.503   4.291  71.082  1.00  0.00     0.000 HD 
HETATM   26  H   UNL     1      -8.703   5.024  72.103  1.00  0.00     0.000 HD 
HETATM   27  C   UNL     1      -7.514   6.644  71.480  1.00  0.00    -0.088 C  
HETATM   28  O   UNL     1      -6.695   6.606  72.391  1.00  0.00    -0.062 OA 
ENDBRANCH  14  15
ENDBRANCH  13  14
ENDBRANCH  12  13
BRANCH  12  29
HETATM   29  C   UNL     1     -11.434  10.653  69.686  1.00  0.00    -0.291 C  
HETATM   30  O   UNL     1     -12.470  10.819  68.715  1.00  0.00    -0.793 OA 
HETATM   31  H   UNL     1     -13.312  10.851  69.155  1.00  0.00     0.000 HD 
ENDBRANCH  12  29
ENDBRANCH  11  12
ENDBRANCH  10  11
ENDBRANCH   8  10
ENDBRANCH   4   8
TORSDOF 8
ENDMDL
MODEL      392
REMARK 921   NORMALIZED FREE ENERGY PREDICTED BY IDOCK:   -2.84 KCAL/MOL
REMARK 922        TOTAL FREE ENERGY PREDICTED BY IDOCK:   -5.38 KCAL/MOL
REMARK 923 INTER-LIGAND FREE ENERGY PREDICTED BY IDOCK:   -4.75 KCAL/MOL
REMARK 924 INTRA-LIGAND FREE ENERGY PREDICTED BY IDOCK:   -0.63 KCAL/MOL
REMARK 927      BINDING AFFINITY PREDICTED BY RF-SCORE:    0.00 PKD
ROOT
HETATM    1  C   UNL     1     -12.207  11.641  68.936  1.00  0.00    -0.112 C  
HETATM    2  C   UNL     1     -11.347  12.890  68.709  1.00  0.00    -0.333 C  
HETATM    3  C   UNL     1     -11.797  14.008  69.655  1.00  0.00    -0.386 C  
HETATM    4  C   UNL     1     -11.332  13.357  67.231  1.00  0.00    -0.319 C  
HETATM    5  N   UNL     1     -12.690  13.678  66.739  1.00  0.00    -0.238 NA 
HETATM    6  H1  UNL     1     -12.679  13.985  65.766  1.00  0.00     0.000 HD 
HETATM    7  H2  UNL     1     -13.149  14.364  67.338  1.00  0.00     0.000 HD 
ENDROOT
BRANCH   4   8
HETATM    8  C   UNL     1     -10.642  12.313  66.329  1.00  0.00    -0.251 C  
HETATM    9  O   UNL     1     -11.231  11.557  65.565  1.00  0.00    -0.244 OA 
BRANCH   8  10
HETATM   10  O   UNL     1      -9.291  12.281  66.539  1.00  0.00    -0.223 OA 
BRANCH  10  11
HETATM   11  C   UNL     1      -8.808  11.238  67.404  1.00  0.00    -0.145 C  
BRANCH  11  12
HETATM   12  C   UNL     1      -8.577   9.951  66.596  1.00  0.00    -0.125 C  
BRANCH  12  13
HETATM   13  O   UNL     1      -9.075   8.766  67.259  1.00  0.00    -0.130 OA 
BRANCH  13  14
HETATM   14  C   UNL     1      -8.671   8.680  68.625  1.00  0.00    -0.138 C  
BRANCH  14  15
HETATM   15  N   UNL     1      -8.585   7.287  69.004  1.00  0.00    -0.129 NA 
HETATM   16  C   UNL     1      -7.628   6.406  68.560  1.00  0.00    -0.097 A  
HETATM   17  N   UNL     1      -7.709   5.237  69.166  1.00  0.00    -0.080 NA 
HETATM   18  C   UNL     1      -8.761   5.368  70.046  1.00  0.00    -0.122 A  
HETATM   19  C   UNL     1      -9.301   6.626  69.943  1.00  0.00    -0.153 A  
HETATM   20  N   UNL     1     -10.327   7.028  70.700  1.00  0.00    -0.206 NA 
HETATM   21  C   UNL     1     -10.808   6.125  71.617  1.00  0.00    -0.258 C  
HETATM   22  N   UNL     1     -11.802   6.621  72.393  1.00  0.00    -0.468 NA 
HETATM   23  N   UNL     1     -10.374   4.912  71.800  1.00  0.00    -0.198 N  
HETATM   24  H2  UNL     1     -12.159   7.572  72.305  1.00  0.00     0.000 HD 
HETATM   25  H1  UNL     1     -12.160   5.950  73.073  1.00  0.00     0.000 HD 
HETATM   26  H   UNL     1     -10.802   4.320  72.512  1.00  0.00     0.000 HD 
HETATM   27  C   UNL     1      -9.320   4.417  71.022  1.00  0.00    -0.149 C  
HETATM   28  O   UNL     1      -8.886   3.278  71.148  1.00  0.00    -0.075 OA 
ENDBRANCH  14  15
ENDBRANCH  13  14
ENDBRANCH  12  13
BRANCH  12  29
HETATM   29  C   UNL     1      -7.076   9.742  66.345  1.00  0.00    -0.094 C  
HETATM   30  O   UNL     1      -6.362  10.919  66.731  1.00  0.00    -0.077 OA 
HETATM   31  H   UNL     1      -5.434  10.790  66.575  1.00  0.00     0.000 HD 
ENDBRANCH  12  29
ENDBRANCH  11  12
ENDBRANCH  10  11
ENDBRANCH   8  10
ENDBRANCH   4   8
TORSDOF 8
ENDMDL
MODEL      393
REMARK 921   NORMALIZED FREE ENERGY PREDICTED BY IDOCK:   -2.80 KCAL/MOL
REMARK 922        TOTAL FREE ENERGY PREDICTED BY IDOCK:   -5.32 KCAL/MOL
REMARK 923 INTER-LIGAND FREE ENERGY PREDICTED BY IDOCK:   -4.36 KCAL/MOL
REMARK 924 INTRA-LIGAND FREE ENERGY PREDICTED BY IDOCK:   -0.97 KCAL/MOL
REMARK 927      BINDING AFFINITY PREDICTED BY RF-SCORE:    0.00 PKD
ROOT
HETATM    1  C   UNL     1     -11.559  16.786  72.629  1.00  0.00     0.121 C  
HETATM    2  C   UNL     1     -12.752  15.932  73.075  1.00  0.00    -0.611 C  
HETATM    3  C   UNL     1     -12.613  15.582  74.560  1.00  0.00    -0.570 C  
HETATM    4  C   UNL     1     -12.956  14.669  72.201  1.00  0.00    -0.342 C  
HETATM    5  N   UNL     1     -11.768  13.786  72.221  1.00  0.00     0.798 NA 
HETATM    6  H1  UNL     1     -11.903  12.954  71.646  1.00  0.00     0.000 HD 
HETATM    7  H2  UNL     1     -11.507  13.537  73.175  1.00  0.00     0.000 HD 
ENDROOT
BRANCH   4   8
HETATM    8  C   UNL     1     -13.345  15.052  70.758  1.00  0.00    -0.315 C  
HETATM    9  O   UNL     1     -14.282  15.783  70.462  1.00  0.00     0.108 OA 
BRANCH   8  10
HETATM   10  O   UNL     1     -12.558  14.415  69.839  1.00  0.00    -0.303 OA 
BRANCH  10  11
HETATM   11  C   UNL     1     -12.118  15.208  68.722  1.00  0.00    -0.165 C  
BRANCH  11  12
HETATM   12  C   UNL     1     -10.796  14.650  68.172  1.00  0.00    -0.252 C  
BRANCH  12  13
HETATM   13  O   UNL     1     -10.879  13.255  67.799  1.00  0.00    -0.244 OA 
BRANCH  13  14
HETATM   14  C   UNL     1      -9.675  12.535  68.057  1.00  0.00    -0.215 C  
BRANCH  14  15
HETATM   15  N   UNL     1      -9.703  11.290  67.323  1.00  0.00    -0.173 NA 
HETATM   16  C   UNL     1      -9.279  11.129  66.025  1.00  0.00    -0.205 A  
HETATM   17  N   UNL     1      -9.295   9.864  65.649  1.00  0.00    -0.195 NA 
HETATM   18  C   UNL     1      -9.745   9.174  66.754  1.00  0.00    -0.210 A  
HETATM   19  C   UNL     1      -9.999  10.051  67.779  1.00  0.00    -0.170 A  
HETATM   20  N   UNL     1     -10.430   9.643  68.978  1.00  0.00    -0.207 NA 
HETATM   21  C   UNL     1     -10.584   8.289  69.150  1.00  0.00    -0.165 C  
HETATM   22  N   UNL     1     -10.961   7.945  70.406  1.00  0.00    -0.249 NA 
HETATM   23  N   UNL     1     -10.373   7.372  68.251  1.00  0.00    -0.190 N  
HETATM   24  H2  UNL     1     -11.113   8.624  71.150  1.00  0.00     0.000 HD 
HETATM   25  H1  UNL     1     -11.076   6.939  70.534  1.00  0.00     0.000 HD 
HETATM   26  H   UNL     1     -10.518   6.389  68.483  1.00  0.00     0.000 HD 
HETATM   27  C   UNL     1      -9.947   7.732  66.967  1.00  0.00    -0.244 C  
HETATM   28  O   UNL     1      -9.748   6.906  66.084  1.00  0.00    -0.048 OA 
ENDBRANCH  14  15
ENDBRANCH  13  14
ENDBRANCH  12  13
BRANCH  12  29
HETATM   29  C   UNL     1      -9.684  14.780  69.225  1.00  0.00    -0.091 C  
HETATM   30  O   UNL     1      -9.752  16.074  69.828  1.00  0.00    -0.221 OA 
HETATM   31  H   UNL     1      -9.065  16.154  70.479  1.00  0.00     0.000 HD 
ENDBRANCH  12  29
ENDBRANCH  11  12
ENDBRANCH  10  11
ENDBRANCH   8  10
ENDBRANCH   4   8
TORSDOF 8
ENDMDL
MODEL      394
REMARK 921   NORMALIZED FREE ENERGY PREDICTED BY IDOCK:   -2.80 KCAL/MOL
REMARK 922        TOTAL FREE ENERGY PREDICTED BY IDOCK:   -5.32 KCAL/MOL
REMARK 923 INTER-LIGAND FREE ENERGY PREDICTED BY IDOCK:   -4.32 KCAL/MOL
REMARK 924 INTRA-LIGAND FREE ENERGY PREDICTED BY IDOCK:   -1.00 KCAL/MOL
REMARK 927      BINDING AFFINITY PREDICTED BY RF-SCORE:    0.00 PKD
ROOT
HETATM    1  C   UNL     1      -8.897   8.410  65.352  1.00  0.00    -0.146 C  
HETATM    2  C   UNL     1      -8.351   9.658  64.647  1.00  0.00    -0.162 C  
HETATM    3  C   UNL     1      -8.480   9.495  63.129  1.00  0.00    -0.199 C  
HETATM    4  C   UNL     1      -6.901  10.007  65.068  1.00  0.00    -0.132 C  
HETATM    5  N   UNL     1      -5.959   8.905  64.774  1.00  0.00    -0.064 NA 
HETATM    6  H1  UNL     1      -5.005   9.135  65.051  1.00  0.00     0.000 HD 
HETATM    7  H2  UNL     1      -6.003   8.631  63.792  1.00  0.00     0.000 HD 
ENDROOT
BRANCH   4   8
HETATM    8  C   UNL     1      -6.840  10.414  66.555  1.00  0.00    -0.107 C  
HETATM    9  O   UNL     1      -6.175   9.835  67.406  1.00  0.00    -0.058 OA 
BRANCH   8  10
HETATM   10  O   UNL     1      -7.677  11.460  66.826  1.00  0.00    -0.149 OA 
BRANCH  10  11
HETATM   11  C   UNL     1      -7.980  11.688  68.214  1.00  0.00    -0.143 C  
BRANCH  11  12
HETATM   12  C   UNL     1      -9.494  11.878  68.395  1.00  0.00    -0.189 C  
BRANCH  12  13
HETATM   13  O   UNL     1     -10.098  10.865  69.232  1.00  0.00    -0.208 OA 
BRANCH  13  14
HETATM   14  C   UNL     1      -9.141   9.999  69.840  1.00  0.00    -0.154 C  
BRANCH  14  15
HETATM   15  N   UNL     1      -9.797   8.773  70.236  1.00  0.00    -0.170 NA 
HETATM   16  C   UNL     1     -10.608   8.014  69.425  1.00  0.00    -0.205 A  
HETATM   17  N   UNL     1     -10.967   6.882  70.001  1.00  0.00    -0.264 NA 
HETATM   18  C   UNL     1     -10.359   6.907  71.237  1.00  0.00    -0.203 A  
HETATM   19  C   UNL     1      -9.644   8.070  71.382  1.00  0.00    -0.154 A  
HETATM   20  N   UNL     1      -8.939   8.343  72.485  1.00  0.00    -0.235 NA 
HETATM   21  C   UNL     1      -8.938   7.385  73.469  1.00  0.00    -0.198 C  
HETATM   22  N   UNL     1      -8.152   7.699  74.527  1.00  0.00    -0.200 NA 
HETATM   23  N   UNL     1      -9.576   6.251  73.437  1.00  0.00    -0.146 N  
HETATM   24  H2  UNL     1      -7.613   8.563  74.587  1.00  0.00     0.000 HD 
HETATM   25  H1  UNL     1      -8.152   6.988  75.259  1.00  0.00     0.000 HD 
HETATM   26  H   UNL     1      -9.508   5.607  74.225  1.00  0.00     0.000 HD 
HETATM   27  C   UNL     1     -10.356   5.914  72.324  1.00  0.00    -0.198 C  
HETATM   28  O   UNL     1     -10.985   4.865  72.254  1.00  0.00    -0.155 OA 
ENDBRANCH  14  15
ENDBRANCH  13  14
ENDBRANCH  12  13
BRANCH  12  29
HETATM   29  C   UNL     1     -10.203  11.833  67.033  1.00  0.00    -0.214 C  
HETATM   30  O   UNL     1     -10.462  13.167  66.589  1.00  0.00    -0.271 OA 
HETATM   31  H   UNL     1     -10.901  13.139  65.747  1.00  0.00     0.000 HD 
ENDBRANCH  12  29
ENDBRANCH  11  12
ENDBRANCH  10  11
ENDBRANCH   8  10
ENDBRANCH   4   8
TORSDOF 8
ENDMDL
MODEL      395
REMARK 921   NORMALIZED FREE ENERGY PREDICTED BY IDOCK:   -2.80 KCAL/MOL
REMARK 922        TOTAL FREE ENERGY PREDICTED BY IDOCK:   -5.32 KCAL/MOL
REMARK 923 INTER-LIGAND FREE ENERGY PREDICTED BY IDOCK:   -5.27 KCAL/MOL
REMARK 924 INTRA-LIGAND FREE ENERGY PREDICTED BY IDOCK:   -0.05 KCAL/MOL
REMARK 927      BINDING AFFINITY PREDICTED BY RF-SCORE:    0.00 PKD
ROOT
HETATM    1  C   UNL     1      -8.643   7.724  69.061  1.00  0.00    -0.135 C  
HETATM    2  C   UNL     1      -8.748   8.842  68.016  1.00  0.00    -0.141 C  
HETATM    3  C   UNL     1      -9.794   9.870  68.460  1.00  0.00    -0.168 C  
HETATM    4  C   UNL     1      -9.030   8.313  66.587  1.00  0.00    -0.150 C  
HETATM    5  N   UNL     1     -10.294   7.547  66.521  1.00  0.00    -0.501 NA 
HETATM    6  H1  UNL     1     -10.479   7.199  65.580  1.00  0.00     0.000 HD 
HETATM    7  H2  UNL     1     -11.079   8.095  66.873  1.00  0.00     0.000 HD 
ENDROOT
BRANCH   4   8
HETATM    8  C   UNL     1      -7.842   7.480  66.062  1.00  0.00    -0.101 C  
HETATM    9  O   UNL     1      -7.201   6.683  66.736  1.00  0.00    -0.074 OA 
BRANCH   8  10
HETATM   10  O   UNL     1      -7.543   7.793  64.765  1.00  0.00    -0.093 OA 
BRANCH  10  11
HETATM   11  C   UNL     1      -8.610   8.365  63.988  1.00  0.00     0.113 C  
BRANCH  11  12
HETATM   12  C   UNL     1      -8.472   9.895  63.954  1.00  0.00    -0.181 C  
BRANCH  12  13
HETATM   13  O   UNL     1      -9.707  10.570  63.619  1.00  0.00    -0.291 OA 
BRANCH  13  14
HETATM   14  C   UNL     1      -9.632  11.985  63.779  1.00  0.00    -0.071 C  
BRANCH  14  15
HETATM   15  N   UNL     1     -10.525  12.388  64.842  1.00  0.00    -0.289 NA 
HETATM   16  C   UNL     1     -11.860  12.068  64.916  1.00  0.00    -0.238 A  
HETATM   17  N   UNL     1     -12.402  12.455  66.055  1.00  0.00    -0.551 NA 
HETATM   18  C   UNL     1     -11.372  13.046  66.753  1.00  0.00    -0.324 A  
HETATM   19  C   UNL     1     -10.221  13.008  66.006  1.00  0.00    -0.287 A  
HETATM   20  N   UNL     1      -9.060  13.499  66.455  1.00  0.00    -0.171 NA 
HETATM   21  C   UNL     1      -9.064  14.025  67.724  1.00  0.00    -0.192 C  
HETATM   22  N   UNL     1      -7.842  14.443  68.137  1.00  0.00    -0.127 NA 
HETATM   23  N   UNL     1     -10.092  14.111  68.517  1.00  0.00    -0.240 N  
HETATM   24  H2  UNL     1      -7.003  14.373  67.563  1.00  0.00     0.000 HD 
HETATM   25  H1  UNL     1      -7.844  14.835  69.079  1.00  0.00     0.000 HD 
HETATM   26  H   UNL     1      -9.985  14.521  69.445  1.00  0.00     0.000 HD 
HETATM   27  C   UNL     1     -11.343  13.642  68.099  1.00  0.00    -0.288 C  
HETATM   28  O   UNL     1     -12.342  13.714  68.804  1.00  0.00    -0.261 OA 
ENDBRANCH  14  15
ENDBRANCH  13  14
ENDBRANCH  12  13
BRANCH  12  29
HETATM   29  C   UNL     1      -7.423  10.312  62.911  1.00  0.00    -0.140 C  
HETATM   30  O   UNL     1      -6.247  10.774  63.580  1.00  0.00    -0.370 OA 
HETATM   31  H   UNL     1      -5.599  11.031  62.936  1.00  0.00     0.000 HD 
ENDBRANCH  12  29
ENDBRANCH  11  12
ENDBRANCH  10  11
ENDBRANCH   8  10
ENDBRANCH   4   8
TORSDOF 8
ENDMDL
MODEL      396
REMARK 921   NORMALIZED FREE ENERGY PREDICTED BY IDOCK:   -2.78 KCAL/MOL
REMARK 922        TOTAL FREE ENERGY PREDICTED BY IDOCK:   -5.29 KCAL/MOL
REMARK 923 INTER-LIGAND FREE ENERGY PREDICTED BY IDOCK:   -4.43 KCAL/MOL
REMARK 924 INTRA-LIGAND FREE ENERGY PREDICTED BY IDOCK:   -0.86 KCAL/MOL
REMARK 927      BINDING AFFINITY PREDICTED BY RF-SCORE:    0.00 PKD
ROOT
HETATM    1  C   UNL     1     -12.077  14.623  72.124  1.00  0.00    -0.319 C  
HETATM    2  C   UNL     1     -11.258  14.793  70.838  1.00  0.00    -0.131 C  
HETATM    3  C   UNL     1     -10.929  16.274  70.625  1.00  0.00    -0.179 C  
HETATM    4  C   UNL     1     -11.941  14.168  69.596  1.00  0.00    -0.336 C  
HETATM    5  N   UNL     1     -13.270  14.766  69.336  1.00  0.00     0.374 NA 
HETATM    6  H1  UNL     1     -13.719  14.355  68.519  1.00  0.00     0.000 HD 
HETATM    7  H2  UNL     1     -13.210  15.781  69.255  1.00  0.00     0.000 HD 
ENDROOT
BRANCH   4   8
HETATM    8  C   UNL     1     -12.033  12.634  69.728  1.00  0.00    -0.295 C  
HETATM    9  O   UNL     1     -12.038  12.028  70.793  1.00  0.00    -0.349 OA 
BRANCH   8  10
HETATM   10  O   UNL     1     -12.037  12.023  68.506  1.00  0.00    -0.367 OA 
BRANCH  10  11
HETATM   11  C   UNL     1     -10.815  12.109  67.750  1.00  0.00    -0.224 C  
BRANCH  11  12
HETATM   12  C   UNL     1      -9.800  11.081  68.276  1.00  0.00    -0.178 C  
BRANCH  12  13
HETATM   13  O   UNL     1      -8.610  10.989  67.460  1.00  0.00    -0.126 OA 
BRANCH  13  14
HETATM   14  C   UNL     1      -8.205  12.245  66.918  1.00  0.00    -0.112 C  
BRANCH  14  15
HETATM   15  N   UNL     1      -7.494  12.990  67.933  1.00  0.00    -0.121 NA 
HETATM   16  C   UNL     1      -6.441  12.508  68.673  1.00  0.00    -0.078 A  
HETATM   17  N   UNL     1      -5.898  13.442  69.433  1.00  0.00    -0.087 NA 
HETATM   18  C   UNL     1      -6.629  14.579  69.169  1.00  0.00    -0.111 A  
HETATM   19  C   UNL     1      -7.611  14.300  68.251  1.00  0.00    -0.130 A  
HETATM   20  N   UNL     1      -8.456  15.235  67.802  1.00  0.00    -0.147 NA 
HETATM   21  C   UNL     1      -8.280  16.508  68.285  1.00  0.00    -0.185 C  
HETATM   22  N   UNL     1      -9.127  17.414  67.739  1.00  0.00    -0.240 NA 
HETATM   23  N   UNL     1      -7.385  16.884  69.152  1.00  0.00    -0.229 N  
HETATM   24  H2  UNL     1      -9.827  17.173  67.037  1.00  0.00     0.000 HD 
HETATM   25  H1  UNL     1      -8.997  18.360  68.097  1.00  0.00     0.000 HD 
HETATM   26  H   UNL     1      -7.338  17.860  69.445  1.00  0.00     0.000 HD 
HETATM   27  C   UNL     1      -6.486  15.951  69.684  1.00  0.00    -0.186 C  
HETATM   28  O   UNL     1      -5.636  16.254  70.512  1.00  0.00    -0.168 OA 
ENDBRANCH  14  15
ENDBRANCH  13  14
ENDBRANCH  12  13
BRANCH  12  29
HETATM   29  C   UNL     1     -10.435   9.683  68.324  1.00  0.00    -0.219 C  
HETATM   30  O   UNL     1     -11.465   9.596  67.337  1.00  0.00    -0.284 OA 
HETATM   31  H   UNL     1     -11.857   8.731  67.367  1.00  0.00     0.000 HD 
ENDBRANCH  12  29
ENDBRANCH  11  12
ENDBRANCH  10  11
ENDBRANCH   8  10
ENDBRANCH   4   8
TORSDOF 8
ENDMDL
MODEL      397
REMARK 921   NORMALIZED FREE ENERGY PREDICTED BY IDOCK:   -2.76 KCAL/MOL
REMARK 922        TOTAL FREE ENERGY PREDICTED BY IDOCK:   -5.27 KCAL/MOL
REMARK 923 INTER-LIGAND FREE ENERGY PREDICTED BY IDOCK:   -5.24 KCAL/MOL
REMARK 924 INTRA-LIGAND FREE ENERGY PREDICTED BY IDOCK:   -0.02 KCAL/MOL
REMARK 927      BINDING AFFINITY PREDICTED BY RF-SCORE:    0.00 PKD
ROOT
HETATM    1  C   UNL     1     -10.765  11.262  64.356  1.00  0.00    -0.407 C  
HETATM    2  C   UNL     1     -11.906  12.158  64.852  1.00  0.00    -0.366 C  
HETATM    3  C   UNL     1     -12.242  13.209  63.789  1.00  0.00    -0.528 C  
HETATM    4  C   UNL     1     -11.616  12.804  66.231  1.00  0.00    -0.379 C  
HETATM    5  N   UNL     1     -10.398  13.644  66.202  1.00  0.00    -0.290 NA 
HETATM    6  H1  UNL     1     -10.208  14.069  67.110  1.00  0.00     0.000 HD 
HETATM    7  H2  UNL     1     -10.451  14.349  65.467  1.00  0.00     0.000 HD 
ENDROOT
BRANCH   4   8
HETATM    8  C   UNL     1     -11.532  11.732  67.337  1.00  0.00    -0.305 C  
HETATM    9  O   UNL     1     -12.205  11.737  68.361  1.00  0.00    -0.467 OA 
BRANCH   8  10
HETATM   10  O   UNL     1     -10.559  10.810  67.071  1.00  0.00    -0.235 OA 
BRANCH  10  11
HETATM   11  C   UNL     1     -10.625   9.583  67.820  1.00  0.00    -0.261 C  
BRANCH  11  12
HETATM   12  C   UNL     1      -9.327   8.782  67.629  1.00  0.00    -0.137 C  
BRANCH  12  13
HETATM   13  O   UNL     1      -9.327   7.979  66.426  1.00  0.00    -0.185 OA 
BRANCH  13  14
HETATM   14  C   UNL     1      -9.003   6.611  66.667  1.00  0.00    -0.142 C  
BRANCH  14  15
HETATM   15  N   UNL     1      -8.308   6.080  65.516  1.00  0.00    -0.142 NA 
HETATM   16  C   UNL     1      -7.275   6.706  64.859  1.00  0.00    -0.074 A  
HETATM   17  N   UNL     1      -6.741   5.939  63.927  1.00  0.00    -0.036 NA 
HETATM   18  C   UNL     1      -7.456   4.763  63.985  1.00  0.00    -0.060 A  
HETATM   19  C   UNL     1      -8.420   4.852  64.959  1.00  0.00    -0.142 A  
HETATM   20  N   UNL     1      -9.247   3.839  65.240  1.00  0.00    -0.143 NA 
HETATM   21  C   UNL     1      -9.071   2.681  64.522  1.00  0.00    -0.127 C  
HETATM   22  N   UNL     1      -9.898   1.678  64.904  1.00  0.00    -0.330 NA 
HETATM   23  N   UNL     1      -8.192   2.487  63.582  1.00  0.00    -0.081 N  
HETATM   24  H2  UNL     1     -10.585   1.773  65.652  1.00  0.00     0.000 HD 
HETATM   25  H1  UNL     1      -9.768   0.818  64.371  1.00  0.00     0.000 HD 
HETATM   26  H   UNL     1      -8.144   1.585  63.109  1.00  0.00     0.000 HD 
HETATM   27  C   UNL     1      -7.314   3.515  63.218  1.00  0.00    -0.051 C  
HETATM   28  O   UNL     1      -6.479   3.384  62.330  1.00  0.00    -0.020 OA 
ENDBRANCH  14  15
ENDBRANCH  13  14
ENDBRANCH  12  13
BRANCH  12  29
HETATM   29  C   UNL     1      -9.109   7.832  68.817  1.00  0.00    -0.140 C  
HETATM   30  O   UNL     1     -10.255   7.868  69.670  1.00  0.00    -0.197 OA 
HETATM   31  H   UNL     1     -10.120   7.281  70.404  1.00  0.00     0.000 HD 
ENDBRANCH  12  29
ENDBRANCH  11  12
ENDBRANCH  10  11
ENDBRANCH   8  10
ENDBRANCH   4   8
TORSDOF 8
ENDMDL
MODEL      398
REMARK 921   NORMALIZED FREE ENERGY PREDICTED BY IDOCK:   -2.72 KCAL/MOL
REMARK 922        TOTAL FREE ENERGY PREDICTED BY IDOCK:   -5.21 KCAL/MOL
REMARK 923 INTER-LIGAND FREE ENERGY PREDICTED BY IDOCK:   -4.46 KCAL/MOL
REMARK 924 INTRA-LIGAND FREE ENERGY PREDICTED BY IDOCK:   -0.75 KCAL/MOL
REMARK 927      BINDING AFFINITY PREDICTED BY RF-SCORE:    0.00 PKD
ROOT
HETATM    1  C   UNL     1      -7.500   7.425  71.402  1.00  0.00    -0.080 C  
HETATM    2  C   UNL     1      -6.431   6.622  70.651  1.00  0.00    -0.051 C  
HETATM    3  C   UNL     1      -5.324   6.197  71.622  1.00  0.00    -0.022 C  
HETATM    4  C   UNL     1      -5.862   7.371  69.420  1.00  0.00    -0.026 C  
HETATM    5  N   UNL     1      -5.240   8.660  69.795  1.00  0.00    -0.029 NA 
HETATM    6  H1  UNL     1      -4.866   9.153  68.984  1.00  0.00     0.000 HD 
HETATM    7  H2  UNL     1      -4.527   8.533  70.513  1.00  0.00     0.000 HD 
ENDROOT
BRANCH   4   8
HETATM    8  C   UNL     1      -6.947   7.565  68.341  1.00  0.00    -0.079 C  
HETATM    9  O   UNL     1      -7.162   8.619  67.754  1.00  0.00    -0.085 OA 
BRANCH   8  10
HETATM   10  O   UNL     1      -7.694   6.434  68.168  1.00  0.00    -0.101 OA 
BRANCH  10  11
HETATM   11  C   UNL     1      -7.447   5.687  66.963  1.00  0.00    -0.084 C  
BRANCH  11  12
HETATM   12  C   UNL     1      -8.553   5.971  65.935  1.00  0.00    -0.150 C  
BRANCH  12  13
HETATM   13  O   UNL     1      -9.480   6.994  66.366  1.00  0.00    -0.175 OA 
BRANCH  13  14
HETATM   14  C   UNL     1     -10.695   6.461  66.890  1.00  0.00    -0.338 C  
BRANCH  14  15
HETATM   15  N   UNL     1     -10.871   6.931  68.245  1.00  0.00    -0.206 NA 
HETATM   16  C   UNL     1     -11.125   6.129  69.333  1.00  0.00    -0.409 A  
HETATM   17  N   UNL     1     -11.110   6.807  70.465  1.00  0.00    -0.278 NA 
HETATM   18  C   UNL     1     -10.829   8.104  70.096  1.00  0.00    -0.241 A  
HETATM   19  C   UNL     1     -10.686   8.180  68.733  1.00  0.00    -0.040 A  
HETATM   20  N   UNL     1     -10.391   9.325  68.108  1.00  0.00    -0.206 NA 
HETATM   21  C   UNL     1     -10.207  10.431  68.902  1.00  0.00    -0.205 C  
HETATM   22  N   UNL     1      -9.847  11.539  68.208  1.00  0.00    -0.197 NA 
HETATM   23  N   UNL     1     -10.316  10.473  70.198  1.00  0.00    -0.431 N  
HETATM   24  H2  UNL     1      -9.724  11.550  67.196  1.00  0.00     0.000 HD 
HETATM   25  H1  UNL     1      -9.711  12.360  68.797  1.00  0.00     0.000 HD 
HETATM   26  H   UNL     1     -10.158  11.350  70.694  1.00  0.00     0.000 HD 
HETATM   27  C   UNL     1     -10.651   9.316  70.912  1.00  0.00    -0.296 C  
HETATM   28  O   UNL     1     -10.778   9.309  72.131  1.00  0.00    -0.201 OA 
ENDBRANCH  14  15
ENDBRANCH  13  14
ENDBRANCH  12  13
BRANCH  12  29
HETATM   29  C   UNL     1      -9.366   4.697  65.662  1.00  0.00    -0.160 C  
HETATM   30  O   UNL     1      -9.913   4.755  64.343  1.00  0.00    -0.369 OA 
HETATM   31  H   UNL     1     -10.416   3.968  64.175  1.00  0.00     0.000 HD 
ENDBRANCH  12  29
ENDBRANCH  11  12
ENDBRANCH  10  11
ENDBRANCH   8  10
ENDBRANCH   4   8
TORSDOF 8
ENDMDL
MODEL      399
REMARK 921   NORMALIZED FREE ENERGY PREDICTED BY IDOCK:   -2.70 KCAL/MOL
REMARK 922        TOTAL FREE ENERGY PREDICTED BY IDOCK:   -5.17 KCAL/MOL
REMARK 923 INTER-LIGAND FREE ENERGY PREDICTED BY IDOCK:   -4.81 KCAL/MOL
REMARK 924 INTRA-LIGAND FREE ENERGY PREDICTED BY IDOCK:   -0.37 KCAL/MOL
REMARK 927      BINDING AFFINITY PREDICTED BY RF-SCORE:    0.00 PKD
ROOT
HETATM    1  C   UNL     1      -7.666   8.001  63.984  1.00  0.00    -0.137 C  
HETATM    2  C   UNL     1      -7.366   8.628  65.351  1.00  0.00    -0.084 C  
HETATM    3  C   UNL     1      -6.290   9.708  65.201  1.00  0.00    -0.083 C  
HETATM    4  C   UNL     1      -6.988   7.581  66.429  1.00  0.00    -0.070 C  
HETATM    5  N   UNL     1      -5.790   6.802  66.046  1.00  0.00    -0.029 NA 
HETATM    6  H1  UNL     1      -5.541   6.113  66.756  1.00  0.00     0.000 HD 
HETATM    7  H2  UNL     1      -5.002   7.413  65.832  1.00  0.00     0.000 HD 
ENDROOT
BRANCH   4   8
HETATM    8  C   UNL     1      -8.182   6.656  66.744  1.00  0.00    -0.114 C  
HETATM    9  O   UNL     1      -8.605   5.789  65.990  1.00  0.00    -0.128 OA 
BRANCH   8  10
HETATM   10  O   UNL     1      -8.759   6.970  67.943  1.00  0.00    -0.126 OA 
BRANCH  10  11
HETATM   11  C   UNL     1      -7.977   7.792  68.828  1.00  0.00    -0.125 C  
BRANCH  11  12
HETATM   12  C   UNL     1      -8.877   8.388  69.922  1.00  0.00    -0.137 C  
BRANCH  12  13
HETATM   13  O   UNL     1     -10.206   8.709  69.451  1.00  0.00    -0.200 OA 
BRANCH  13  14
HETATM   14  C   UNL     1     -10.206   9.626  68.359  1.00  0.00    -0.188 C  
BRANCH  14  15
HETATM   15  N   UNL     1     -10.873  10.843  68.764  1.00  0.00    -0.192 NA 
HETATM   16  C   UNL     1     -11.820  10.931  69.757  1.00  0.00    -0.345 A  
HETATM   17  N   UNL     1     -12.164  12.181  70.006  1.00  0.00    -0.241 NA 
HETATM   18  C   UNL     1     -11.404  12.935  69.139  1.00  0.00    -0.273 A  
HETATM   19  C   UNL     1     -10.615  12.113  68.375  1.00  0.00    -0.226 A  
HETATM   20  N   UNL     1      -9.761  12.588  67.461  1.00  0.00    -0.193 NA 
HETATM   21  C   UNL     1      -9.688  13.954  67.337  1.00  0.00    -0.234 C  
HETATM   22  N   UNL     1      -8.758  14.366  66.441  1.00  0.00    -0.454 NA 
HETATM   23  N   UNL     1     -10.386  14.824  68.008  1.00  0.00    -0.235 N  
HETATM   24  H2  UNL     1      -8.170  13.724  65.911  1.00  0.00     0.000 HD 
HETATM   25  H1  UNL     1      -8.704  15.380  66.349  1.00  0.00     0.000 HD 
HETATM   26  H   UNL     1     -10.253  15.822  67.839  1.00  0.00     0.000 HD 
HETATM   27  C   UNL     1     -11.318  14.394  68.960  1.00  0.00    -0.269 C  
HETATM   28  O   UNL     1     -12.007  15.175  69.606  1.00  0.00    -0.307 OA 
ENDBRANCH  14  15
ENDBRANCH  13  14
ENDBRANCH  12  13
BRANCH  12  29
HETATM   29  C   UNL     1      -8.259   9.682  70.472  1.00  0.00    -0.098 C  
HETATM   30  O   UNL     1      -7.233   9.356  71.412  1.00  0.00    -0.318 OA 
HETATM   31  H   UNL     1      -6.851  10.156  71.752  1.00  0.00     0.000 HD 
ENDBRANCH  12  29
ENDBRANCH  11  12
ENDBRANCH  10  11
ENDBRANCH   8  10
ENDBRANCH   4   8
TORSDOF 8
ENDMDL
MODEL      400
REMARK 921   NORMALIZED FREE ENERGY PREDICTED BY IDOCK:   -2.68 KCAL/MOL
REMARK 922        TOTAL FREE ENERGY PREDICTED BY IDOCK:   -5.15 KCAL/MOL
REMARK 923 INTER-LIGAND FREE ENERGY PREDICTED BY IDOCK:   -4.56 KCAL/MOL
REMARK 924 INTRA-LIGAND FREE ENERGY PREDICTED BY IDOCK:   -0.59 KCAL/MOL
REMARK 927      BINDING AFFINITY PREDICTED BY RF-SCORE:    0.00 PKD
ROOT
HETATM    1  C   UNL     1     -11.619  16.461  72.665  1.00  0.00    -0.216 C  
HETATM    2  C   UNL     1     -12.866  15.655  73.050  1.00  0.00    -0.599 C  
HETATM    3  C   UNL     1     -12.862  15.381  74.557  1.00  0.00     0.044 C  
HETATM    4  C   UNL     1     -13.025  14.352  72.227  1.00  0.00    -0.374 C  
HETATM    5  N   UNL     1     -11.865  13.448  72.394  1.00  0.00     1.218 NA 
HETATM    6  H1  UNL     1     -11.970  12.590  71.852  1.00  0.00     0.000 HD 
HETATM    7  H2  UNL     1     -11.692  13.245  73.378  1.00  0.00     0.000 HD 
ENDROOT
BRANCH   4   8
HETATM    8  C   UNL     1     -13.280  14.666  70.738  1.00  0.00    -0.281 C  
HETATM    9  O   UNL     1     -14.105  15.475  70.331  1.00  0.00     0.038 OA 
BRANCH   8  10
HETATM   10  O   UNL     1     -12.522  13.876  69.920  1.00  0.00    -0.320 OA 
BRANCH  10  11
HETATM   11  C   UNL     1     -12.397  14.311  68.554  1.00  0.00     0.001 C  
BRANCH  11  12
HETATM   12  C   UNL     1     -11.391  13.419  67.810  1.00  0.00    -0.294 C  
BRANCH  12  13
HETATM   13  O   UNL     1     -11.758  12.020  67.818  1.00  0.00    -0.402 OA 
BRANCH  13  14
HETATM   14  C   UNL     1     -10.683  11.163  68.196  1.00  0.00    -0.204 C  
BRANCH  14  15
HETATM   15  N   UNL     1     -11.086  10.375  69.339  1.00  0.00    -0.239 NA 
HETATM   16  C   UNL     1     -11.685  10.875  70.471  1.00  0.00    -0.342 A  
HETATM   17  N   UNL     1     -12.063   9.919  71.298  1.00  0.00    -0.365 NA 
HETATM   18  C   UNL     1     -11.698   8.747  70.672  1.00  0.00    -0.166 A  
HETATM   19  C   UNL     1     -11.094   9.028  69.472  1.00  0.00    -0.024 A  
HETATM   20  N   UNL     1     -10.657   8.069  68.649  1.00  0.00    -0.158 NA 
HETATM   21  C   UNL     1     -10.865   6.771  69.050  1.00  0.00    -0.249 C  
HETATM   22  N   UNL     1     -10.456   5.854  68.140  1.00  0.00    -0.212 NA 
HETATM   23  N   UNL     1     -11.424   6.391  70.162  1.00  0.00    -0.413 N  
HETATM   24  H2  UNL     1     -10.036   6.102  67.244  1.00  0.00     0.000 HD 
HETATM   25  H1  UNL     1     -10.610   4.890  68.437  1.00  0.00     0.000 HD 
HETATM   26  H   UNL     1     -11.532   5.397  70.363  1.00  0.00     0.000 HD 
HETATM   27  C   UNL     1     -11.880   7.344  71.081  1.00  0.00    -0.301 C  
HETATM   28  O   UNL     1     -12.400   7.035  72.146  1.00  0.00    -0.275 OA 
ENDBRANCH  14  15
ENDBRANCH  13  14
ENDBRANCH  12  13
BRANCH  12  29
HETATM   29  C   UNL     1     -10.000  13.535  68.452  1.00  0.00    -0.232 C  
HETATM   30  O   UNL     1      -9.429  14.801  68.120  1.00  0.00    -0.198 OA 
HETATM   31  H   UNL     1      -8.569  14.873  68.517  1.00  0.00     0.000 HD 
ENDBRANCH  12  29
ENDBRANCH  11  12
ENDBRANCH  10  11
ENDBRANCH   8  10
ENDBRANCH   4   8
TORSDOF 8
ENDMDL
MODEL      401
REMARK 921   NORMALIZED FREE ENERGY PREDICTED BY IDOCK:   -2.67 KCAL/MOL
REMARK 922        TOTAL FREE ENERGY PREDICTED BY IDOCK:   -5.13 KCAL/MOL
REMARK 923 INTER-LIGAND FREE ENERGY PREDICTED BY IDOCK:   -4.77 KCAL/MOL
REMARK 924 INTRA-LIGAND FREE ENERGY PREDICTED BY IDOCK:   -0.36 KCAL/MOL
REMARK 927      BINDING AFFINITY PREDICTED BY RF-SCORE:    0.00 PKD
ROOT
HETATM    1  C   UNL     1      -7.412   9.755  64.261  1.00  0.00    -0.132 C  
HETATM    2  C   UNL     1      -8.813   9.541  64.846  1.00  0.00    -0.240 C  
HETATM    3  C   UNL     1      -9.631  10.830  64.717  1.00  0.00    -0.314 C  
HETATM    4  C   UNL     1      -8.790   9.015  66.303  1.00  0.00    -0.151 C  
HETATM    5  N   UNL     1      -8.086   9.944  67.215  1.00  0.00    -0.113 NA 
HETATM    6  H1  UNL     1      -8.071   9.598  68.174  1.00  0.00     0.000 HD 
HETATM    7  H2  UNL     1      -8.482  10.883  67.166  1.00  0.00     0.000 HD 
ENDROOT
BRANCH   4   8
HETATM    8  C   UNL     1      -8.184   7.598  66.370  1.00  0.00    -0.124 C  
HETATM    9  O   UNL     1      -8.651   6.615  65.807  1.00  0.00    -0.148 OA 
BRANCH   8  10
HETATM   10  O   UNL     1      -7.097   7.554  67.198  1.00  0.00    -0.080 OA 
BRANCH  10  11
HETATM   11  C   UNL     1      -7.371   7.617  68.609  1.00  0.00    -0.091 C  
BRANCH  11  12
HETATM   12  C   UNL     1      -7.912   6.263  69.098  1.00  0.00    -0.110 C  
BRANCH  12  13
HETATM   13  O   UNL     1      -9.225   6.359  69.696  1.00  0.00    -0.142 OA 
BRANCH  13  14
HETATM   14  C   UNL     1     -10.108   7.214  68.972  1.00  0.00    -0.183 C  
BRANCH  14  15
HETATM   15  N   UNL     1     -10.859   8.020  69.909  1.00  0.00    -0.242 NA 
HETATM   16  C   UNL     1     -11.318   7.588  71.131  1.00  0.00    -0.267 A  
HETATM   17  N   UNL     1     -11.857   8.567  71.833  1.00  0.00    -0.316 NA 
HETATM   18  C   UNL     1     -11.738   9.682  71.033  1.00  0.00    -0.353 A  
HETATM   19  C   UNL     1     -11.129   9.344  69.850  1.00  0.00    -0.200 A  
HETATM   20  N   UNL     1     -10.872  10.245  68.895  1.00  0.00    -0.217 NA 
HETATM   21  C   UNL     1     -11.225  11.545  69.163  1.00  0.00    -0.274 C  
HETATM   22  N   UNL     1     -10.877  12.412  68.181  1.00  0.00    -0.212 NA 
HETATM   23  N   UNL     1     -11.804  11.976  70.246  1.00  0.00    -0.502 N  
HETATM   24  H2  UNL     1     -10.399  12.127  67.326  1.00  0.00     0.000 HD 
HETATM   25  H1  UNL     1     -11.139  13.378  68.380  1.00  0.00     0.000 HD 
HETATM   26  H   UNL     1     -12.023  12.967  70.346  1.00  0.00     0.000 HD 
HETATM   27  C   UNL     1     -12.126  11.082  71.274  1.00  0.00    -0.174 C  
HETATM   28  O   UNL     1     -12.684  11.438  72.306  1.00  0.00    -0.028 OA 
ENDBRANCH  14  15
ENDBRANCH  13  14
ENDBRANCH  12  13
BRANCH  12  29
HETATM   29  C   UNL     1      -6.969   5.663  70.152  1.00  0.00    -0.065 C  
HETATM   30  O   UNL     1      -7.729   5.247  71.288  1.00  0.00    -0.096 OA 
HETATM   31  H   UNL     1      -7.146   4.877  71.940  1.00  0.00     0.000 HD 
ENDBRANCH  12  29
ENDBRANCH  11  12
ENDBRANCH  10  11
ENDBRANCH   8  10
ENDBRANCH   4   8
TORSDOF 8
ENDMDL
MODEL      402
REMARK 921   NORMALIZED FREE ENERGY PREDICTED BY IDOCK:   -2.60 KCAL/MOL
REMARK 922        TOTAL FREE ENERGY PREDICTED BY IDOCK:   -5.04 KCAL/MOL
REMARK 923 INTER-LIGAND FREE ENERGY PREDICTED BY IDOCK:   -4.32 KCAL/MOL
REMARK 924 INTRA-LIGAND FREE ENERGY PREDICTED BY IDOCK:   -0.71 KCAL/MOL
REMARK 927      BINDING AFFINITY PREDICTED BY RF-SCORE:    0.00 PKD
ROOT
HETATM    1  C   UNL     1      -9.540  16.133  68.485  1.00  0.00    -0.215 C  
HETATM    2  C   UNL     1      -8.779  15.310  67.438  1.00  0.00    -0.194 C  
HETATM    3  C   UNL     1      -7.612  16.131  66.880  1.00  0.00    -0.275 C  
HETATM    4  C   UNL     1      -9.694  14.766  66.312  1.00  0.00    -0.303 C  
HETATM    5  N   UNL     1     -10.378  15.857  65.581  1.00  0.00    -0.367 NA 
HETATM    6  H1  UNL     1     -10.979  15.498  64.839  1.00  0.00     0.000 HD 
HETATM    7  H2  UNL     1      -9.710  16.537  65.219  1.00  0.00     0.000 HD 
ENDROOT
BRANCH   4   8
HETATM    8  C   UNL     1     -10.706  13.742  66.866  1.00  0.00    -0.280 C  
HETATM    9  O   UNL     1     -11.921  13.894  66.858  1.00  0.00    -0.396 OA 
BRANCH   8  10
HETATM   10  O   UNL     1     -10.077  12.671  67.436  1.00  0.00    -0.215 OA 
BRANCH  10  11
HETATM   11  C   UNL     1     -10.777  11.416  67.374  1.00  0.00    -0.232 C  
BRANCH  11  12
HETATM   12  C   UNL     1      -9.796  10.284  67.030  1.00  0.00    -0.193 C  
BRANCH  12  13
HETATM   13  O   UNL     1      -9.146  10.465  65.751  1.00  0.00    -0.156 OA 
BRANCH  13  14
HETATM   14  C   UNL     1      -7.785  10.038  65.750  1.00  0.00    -0.122 C  
BRANCH  14  15
HETATM   15  N   UNL     1      -7.124  10.566  66.922  1.00  0.00    -0.096 NA 
HETATM   16  C   UNL     1      -6.897  11.899  67.167  1.00  0.00    -0.144 A  
HETATM   17  N   UNL     1      -6.393  12.105  68.369  1.00  0.00    -0.051 NA 
HETATM   18  C   UNL     1      -6.293  10.851  68.930  1.00  0.00    -0.046 A  
HETATM   19  C   UNL     1      -6.738   9.906  68.039  1.00  0.00    -0.061 A  
HETATM   20  N   UNL     1      -6.768   8.602  68.335  1.00  0.00    -0.063 NA 
HETATM   21  C   UNL     1      -6.354   8.247  69.596  1.00  0.00    -0.036 C  
HETATM   22  N   UNL     1      -6.473   6.920  69.849  1.00  0.00    -0.042 NA 
HETATM   23  N   UNL     1      -5.916   9.055  70.516  1.00  0.00    -0.035 N  
HETATM   24  H2  UNL     1      -6.835   6.251  69.169  1.00  0.00     0.000 HD 
HETATM   25  H1  UNL     1      -6.165   6.656  70.784  1.00  0.00     0.000 HD 
HETATM   26  H   UNL     1      -5.632   8.686  71.424  1.00  0.00     0.000 HD 
HETATM   27  C   UNL     1      -5.832  10.429  70.263  1.00  0.00    -0.082 C  
HETATM   28  O   UNL     1      -5.413  11.228  71.093  1.00  0.00    -0.260 OA 
ENDBRANCH  14  15
ENDBRANCH  13  14
ENDBRANCH  12  13
BRANCH  12  29
HETATM   29  C   UNL     1     -10.532   8.937  66.987  1.00  0.00    -0.256 C  
HETATM   30  O   UNL     1     -10.409   8.288  68.254  1.00  0.00    -0.203 OA 
HETATM   31  H   UNL     1     -10.864   7.454  68.227  1.00  0.00     0.000 HD 
ENDBRANCH  12  29
ENDBRANCH  11  12
ENDBRANCH  10  11
ENDBRANCH   8  10
ENDBRANCH   4   8
TORSDOF 8
ENDMDL
MODEL      403
REMARK 921   NORMALIZED FREE ENERGY PREDICTED BY IDOCK:   -2.54 KCAL/MOL
REMARK 922        TOTAL FREE ENERGY PREDICTED BY IDOCK:   -4.95 KCAL/MOL
REMARK 923 INTER-LIGAND FREE ENERGY PREDICTED BY IDOCK:   -4.20 KCAL/MOL
REMARK 924 INTRA-LIGAND FREE ENERGY PREDICTED BY IDOCK:   -0.74 KCAL/MOL
REMARK 927      BINDING AFFINITY PREDICTED BY RF-SCORE:    0.00 PKD
ROOT
HETATM    1  C   UNL     1     -10.669   3.937  64.427  1.00  0.00    -0.200 C  
HETATM    2  C   UNL     1      -9.241   4.095  64.964  1.00  0.00    -0.154 C  
HETATM    3  C   UNL     1      -8.331   3.033  64.338  1.00  0.00    -0.086 C  
HETATM    4  C   UNL     1      -9.168   4.077  66.512  1.00  0.00    -0.163 C  
HETATM    5  N   UNL     1      -9.698   2.815  67.075  1.00  0.00    -0.364 NA 
HETATM    6  H1  UNL     1      -9.649   2.804  68.094  1.00  0.00     0.000 HD 
HETATM    7  H2  UNL     1      -9.229   2.003  66.674  1.00  0.00     0.000 HD 
ENDROOT
BRANCH   4   8
HETATM    8  C   UNL     1      -9.884   5.304  67.113  1.00  0.00    -0.164 C  
HETATM    9  O   UNL     1     -10.849   5.243  67.867  1.00  0.00    -0.034 OA 
BRANCH   8  10
HETATM   10  O   UNL     1      -9.357   6.474  66.645  1.00  0.00    -0.150 OA 
BRANCH  10  11
HETATM   11  C   UNL     1      -8.017   6.782  67.072  1.00  0.00    -0.109 C  
BRANCH  11  12
HETATM   12  C   UNL     1      -8.057   7.622  68.359  1.00  0.00    -0.124 C  
BRANCH  12  13
HETATM   13  O   UNL     1      -8.058   9.046  68.108  1.00  0.00    -0.104 OA 
BRANCH  13  14
HETATM   14  C   UNL     1      -7.937   9.370  66.724  1.00  0.00    -0.108 C  
BRANCH  14  15
HETATM   15  N   UNL     1      -8.891  10.405  66.396  1.00  0.00    -0.144 NA 
HETATM   16  C   UNL     1     -10.150  10.187  65.889  1.00  0.00    -0.254 A  
HETATM   17  N   UNL     1     -10.853  11.301  65.806  1.00  0.00    -0.234 NA 
HETATM   18  C   UNL     1     -10.014  12.284  66.285  1.00  0.00    -0.232 A  
HETATM   19  C   UNL     1      -8.809  11.733  66.644  1.00  0.00    -0.189 A  
HETATM   20  N   UNL     1      -7.814  12.464  67.159  1.00  0.00    -0.163 NA 
HETATM   21  C   UNL     1      -8.064  13.802  67.343  1.00  0.00    -0.177 C  
HETATM   22  N   UNL     1      -7.037  14.467  67.928  1.00  0.00    -0.140 NA 
HETATM   23  N   UNL     1      -9.165  14.427  67.041  1.00  0.00    -0.224 N  
HETATM   24  H2  UNL     1      -6.165  14.017  68.206  1.00  0.00     0.000 HD 
HETATM   25  H1  UNL     1      -7.222  15.461  68.064  1.00  0.00     0.000 HD 
HETATM   26  H   UNL     1      -9.248  15.427  67.219  1.00  0.00     0.000 HD 
HETATM   27  C   UNL     1     -10.236  13.727  66.472  1.00  0.00    -0.284 C  
HETATM   28  O   UNL     1     -11.287  14.274  66.159  1.00  0.00    -0.328 OA 
ENDBRANCH  14  15
ENDBRANCH  13  14
ENDBRANCH  12  13
BRANCH  12  29
HETATM   29  C   UNL     1      -6.835   7.309  69.235  1.00  0.00    -0.054 C  
HETATM   30  O   UNL     1      -5.714   7.016  68.399  1.00  0.00    -0.020 OA 
HETATM   31  H   UNL     1      -4.958   6.822  68.941  1.00  0.00     0.000 HD 
ENDBRANCH  12  29
ENDBRANCH  11  12
ENDBRANCH  10  11
ENDBRANCH   8  10
ENDBRANCH   4   8
TORSDOF 8
ENDMDL
MODEL      404
REMARK 921   NORMALIZED FREE ENERGY PREDICTED BY IDOCK:   -2.50 KCAL/MOL
REMARK 922        TOTAL FREE ENERGY PREDICTED BY IDOCK:   -4.88 KCAL/MOL
REMARK 923 INTER-LIGAND FREE ENERGY PREDICTED BY IDOCK:   -3.98 KCAL/MOL
REMARK 924 INTRA-LIGAND FREE ENERGY PREDICTED BY IDOCK:   -0.90 KCAL/MOL
REMARK 927      BINDING AFFINITY PREDICTED BY RF-SCORE:    0.00 PKD
ROOT
HETATM    1  C   UNL     1     -11.672  16.539  72.535  1.00  0.00    -0.350 C  
HETATM    2  C   UNL     1     -12.751  15.505  72.879  1.00  0.00    -0.545 C  
HETATM    3  C   UNL     1     -12.509  14.951  74.286  1.00  0.00    -0.299 C  
HETATM    4  C   UNL     1     -12.865  14.374  71.825  1.00  0.00    -0.347 C  
HETATM    5  N   UNL     1     -11.595  13.630  71.673  1.00  0.00     0.534 NA 
HETATM    6  H1  UNL     1     -11.671  12.885  70.980  1.00  0.00     0.000 HD 
HETATM    7  H2  UNL     1     -11.267  13.269  72.569  1.00  0.00     0.000 HD 
ENDROOT
BRANCH   4   8
HETATM    8  C   UNL     1     -13.356  14.927  70.471  1.00  0.00    -0.105 C  
HETATM    9  O   UNL     1     -14.400  15.548  70.313  1.00  0.00     0.485 OA 
BRANCH   8  10
HETATM   10  O   UNL     1     -12.518  14.575  69.451  1.00  0.00    -0.230 OA 
BRANCH  10  11
HETATM   11  C   UNL     1     -11.886  15.659  68.746  1.00  0.00    -0.321 C  
BRANCH  11  12
HETATM   12  C   UNL     1     -10.486  15.234  68.275  1.00  0.00    -0.244 C  
BRANCH  12  13
HETATM   13  O   UNL     1     -10.433  13.863  67.817  1.00  0.00    -0.238 OA 
BRANCH  13  14
HETATM   14  C   UNL     1      -9.144  13.482  67.342  1.00  0.00    -0.219 C  
BRANCH  14  15
HETATM   15  N   UNL     1      -9.071  12.040  67.279  1.00  0.00    -0.172 NA 
HETATM   16  C   UNL     1      -9.589  11.267  66.267  1.00  0.00    -0.209 A  
HETATM   17  N   UNL     1      -9.266   9.994  66.399  1.00  0.00    -0.152 NA 
HETATM   18  C   UNL     1      -8.500   9.941  67.543  1.00  0.00    -0.115 A  
HETATM   19  C   UNL     1      -8.384  11.197  68.084  1.00  0.00    -0.136 A  
HETATM   20  N   UNL     1      -7.674  11.434  69.193  1.00  0.00    -0.064 NA 
HETATM   21  C   UNL     1      -7.036  10.358  69.759  1.00  0.00    -0.138 C  
HETATM   22  N   UNL     1      -6.284  10.683  70.839  1.00  0.00    -0.350 NA 
HETATM   23  N   UNL     1      -7.075   9.130  69.331  1.00  0.00    -0.052 N  
HETATM   24  H2  UNL     1      -6.201  11.635  71.197  1.00  0.00     0.000 HD 
HETATM   25  H1  UNL     1      -5.810   9.884  71.260  1.00  0.00     0.000 HD 
HETATM   26  H   UNL     1      -6.562   8.401  69.827  1.00  0.00     0.000 HD 
HETATM   27  C   UNL     1      -7.822   8.806  68.192  1.00  0.00    -0.102 C  
HETATM   28  O   UNL     1      -7.901   7.663  67.759  1.00  0.00    -0.115 OA 
ENDBRANCH  14  15
ENDBRANCH  13  14
ENDBRANCH  12  13
BRANCH  12  29
HETATM   29  C   UNL     1      -9.474  15.376  69.422  1.00  0.00    -0.267 C  
HETATM   30  O   UNL     1      -8.599  16.473  69.150  1.00  0.00    -0.230 OA 
HETATM   31  H   UNL     1      -7.973  16.560  69.859  1.00  0.00     0.000 HD 
ENDBRANCH  12  29
ENDBRANCH  11  12
ENDBRANCH  10  11
ENDBRANCH   8  10
ENDBRANCH   4   8
TORSDOF 8
ENDMDL
MODEL      405
REMARK 921   NORMALIZED FREE ENERGY PREDICTED BY IDOCK:   -2.49 KCAL/MOL
REMARK 922        TOTAL FREE ENERGY PREDICTED BY IDOCK:   -4.88 KCAL/MOL
REMARK 923 INTER-LIGAND FREE ENERGY PREDICTED BY IDOCK:   -4.06 KCAL/MOL
REMARK 924 INTRA-LIGAND FREE ENERGY PREDICTED BY IDOCK:   -0.82 KCAL/MOL
REMARK 927      BINDING AFFINITY PREDICTED BY RF-SCORE:    0.00 PKD
ROOT
HETATM    1  C   UNL     1     -10.694   9.409  71.432  1.00  0.00    -0.407 C  
HETATM    2  C   UNL     1     -11.686   8.424  70.801  1.00  0.00    -0.219 C  
HETATM    3  C   UNL     1     -13.121   8.874  71.093  1.00  0.00    -0.144 C  
HETATM    4  C   UNL     1     -11.442   6.956  71.233  1.00  0.00    -0.296 C  
HETATM    5  N   UNL     1     -11.549   6.786  72.700  1.00  0.00    -0.460 NA 
HETATM    6  H1  UNL     1     -11.388   5.820  72.983  1.00  0.00     0.000 HD 
HETATM    7  H2  UNL     1     -12.443   7.131  73.049  1.00  0.00     0.000 HD 
ENDROOT
BRANCH   4   8
HETATM    8  C   UNL     1     -10.086   6.442  70.707  1.00  0.00    -0.187 C  
HETATM    9  O   UNL     1      -9.058   6.390  71.372  1.00  0.00    -0.145 OA 
BRANCH   8  10
HETATM   10  O   UNL     1     -10.151   6.118  69.381  1.00  0.00    -0.166 OA 
BRANCH  10  11
HETATM   11  C   UNL     1      -9.286   6.860  68.503  1.00  0.00    -0.129 C  
BRANCH  11  12
HETATM   12  C   UNL     1      -7.894   6.209  68.465  1.00  0.00    -0.104 C  
BRANCH  12  13
HETATM   13  O   UNL     1      -6.865   7.096  67.968  1.00  0.00    -0.065 OA 
BRANCH  13  14
HETATM   14  C   UNL     1      -6.067   7.662  69.006  1.00  0.00    -0.035 C  
BRANCH  14  15
HETATM   15  N   UNL     1      -6.503   9.019  69.250  1.00  0.00    -0.045 NA 
HETATM   16  C   UNL     1      -6.942   9.501  70.460  1.00  0.00    -0.123 A  
HETATM   17  N   UNL     1      -7.153  10.804  70.430  1.00  0.00    -0.113 NA 
HETATM   18  C   UNL     1      -6.831  11.183  69.145  1.00  0.00    -0.102 A  
HETATM   19  C   UNL     1      -6.436  10.086  68.420  1.00  0.00    -0.054 A  
HETATM   20  N   UNL     1      -6.049  10.174  67.143  1.00  0.00    -0.051 NA 
HETATM   21  C   UNL     1      -6.039  11.430  66.588  1.00  0.00    -0.140 C  
HETATM   22  N   UNL     1      -5.575  11.453  65.314  1.00  0.00    -0.419 NA 
HETATM   23  N   UNL     1      -6.390  12.534  67.180  1.00  0.00    -0.288 N  
HETATM   24  H2  UNL     1      -5.264  10.618  64.817  1.00  0.00     0.000 HD 
HETATM   25  H1  UNL     1      -5.567  12.385  64.901  1.00  0.00     0.000 HD 
HETATM   26  H   UNL     1      -6.343  13.419  66.674  1.00  0.00     0.000 HD 
HETATM   27  C   UNL     1      -6.832  12.510  68.508  1.00  0.00    -0.083 C  
HETATM   28  O   UNL     1      -7.186  13.521  69.103  1.00  0.00    -0.080 OA 
ENDBRANCH  14  15
ENDBRANCH  13  14
ENDBRANCH  12  13
BRANCH  12  29
HETATM   29  C   UNL     1      -7.911   4.969  67.558  1.00  0.00    -0.095 C  
HETATM   30  O   UNL     1      -8.379   5.338  66.259  1.00  0.00    -0.112 OA 
HETATM   31  H   UNL     1      -8.390   4.572  65.698  1.00  0.00     0.000 HD 
ENDBRANCH  12  29
ENDBRANCH  11  12
ENDBRANCH  10  11
ENDBRANCH   8  10
ENDBRANCH   4   8
TORSDOF 8
ENDMDL
MODEL      406
REMARK 921   NORMALIZED FREE ENERGY PREDICTED BY IDOCK:   -2.47 KCAL/MOL
REMARK 922        TOTAL FREE ENERGY PREDICTED BY IDOCK:   -4.84 KCAL/MOL
REMARK 923 INTER-LIGAND FREE ENERGY PREDICTED BY IDOCK:   -4.44 KCAL/MOL
REMARK 924 INTRA-LIGAND FREE ENERGY PREDICTED BY IDOCK:   -0.40 KCAL/MOL
REMARK 927      BINDING AFFINITY PREDICTED BY RF-SCORE:    0.00 PKD
ROOT
HETATM    1  C   UNL     1      -9.230  13.529  68.858  1.00  0.00     0.199 C  
HETATM    2  C   UNL     1     -10.479  12.911  68.217  1.00  0.00    -0.250 C  
HETATM    3  C   UNL     1     -11.180  13.953  67.339  1.00  0.00    -0.330 C  
HETATM    4  C   UNL     1     -11.445  12.283  69.252  1.00  0.00    -0.292 C  
HETATM    5  N   UNL     1     -11.921  13.279  70.239  1.00  0.00    -0.471 NA 
HETATM    6  H1  UNL     1     -12.558  12.865  70.920  1.00  0.00     0.000 HD 
HETATM    7  H2  UNL     1     -12.344  14.085  69.778  1.00  0.00     0.000 HD 
ENDROOT
BRANCH   4   8
HETATM    8  C   UNL     1     -10.797  11.069  69.949  1.00  0.00    -0.077 C  
HETATM    9  O   UNL     1      -9.723  10.576  69.627  1.00  0.00    -0.176 OA 
BRANCH   8  10
HETATM   10  O   UNL     1     -11.604  10.562  70.929  1.00  0.00    -0.338 OA 
BRANCH  10  11
HETATM   11  C   UNL     1     -12.048   9.206  70.746  1.00  0.00    -0.149 C  
BRANCH  11  12
HETATM   12  C   UNL     1     -12.119   8.490  72.105  1.00  0.00    -0.383 C  
BRANCH  12  13
HETATM   13  O   UNL     1     -11.189   7.388  72.215  1.00  0.00    -0.247 OA 
BRANCH  13  14
HETATM   14  C   UNL     1      -9.915   7.781  72.722  1.00  0.00    -0.260 C  
BRANCH  14  15
HETATM   15  N   UNL     1      -9.092   6.604  72.894  1.00  0.00    -0.129 NA 
HETATM   16  C   UNL     1      -9.413   5.525  73.683  1.00  0.00    -0.138 A  
HETATM   17  N   UNL     1      -8.545   4.539  73.553  1.00  0.00    -0.101 NA 
HETATM   18  C   UNL     1      -7.625   4.997  72.636  1.00  0.00    -0.096 A  
HETATM   19  C   UNL     1      -7.959   6.267  72.235  1.00  0.00    -0.104 A  
HETATM   20  N   UNL     1      -7.241   6.943  71.332  1.00  0.00    -0.078 NA 
HETATM   21  C   UNL     1      -6.155   6.295  70.796  1.00  0.00    -0.038 C  
HETATM   22  N   UNL     1      -5.514   7.013  69.843  1.00  0.00    -0.018 NA 
HETATM   23  N   UNL     1      -5.749   5.096  71.101  1.00  0.00    -0.012 N  
HETATM   24  H2  UNL     1      -5.809   7.945  69.551  1.00  0.00     0.000 HD 
HETATM   25  H1  UNL     1      -4.708   6.532  69.444  1.00  0.00     0.000 HD 
HETATM   26  H   UNL     1      -4.927   4.705  70.641  1.00  0.00     0.000 HD 
HETATM   27  C   UNL     1      -6.439   4.343  72.059  1.00  0.00    -0.022 C  
HETATM   28  O   UNL     1      -6.087   3.217  72.389  1.00  0.00    -0.009 OA 
ENDBRANCH  14  15
ENDBRANCH  13  14
ENDBRANCH  12  13
BRANCH  12  29
HETATM   29  C   UNL     1     -13.529   7.927  72.337  1.00  0.00     0.098 C  
HETATM   30  O   UNL     1     -14.147   8.626  73.420  1.00  0.00    -1.023 OA 
HETATM   31  H   UNL     1     -15.019   8.278  73.563  1.00  0.00     0.000 HD 
ENDBRANCH  12  29
ENDBRANCH  11  12
ENDBRANCH  10  11
ENDBRANCH   8  10
ENDBRANCH   4   8
TORSDOF 8
ENDMDL
MODEL      407
REMARK 921   NORMALIZED FREE ENERGY PREDICTED BY IDOCK:   -2.45 KCAL/MOL
REMARK 922        TOTAL FREE ENERGY PREDICTED BY IDOCK:   -4.81 KCAL/MOL
REMARK 923 INTER-LIGAND FREE ENERGY PREDICTED BY IDOCK:   -3.78 KCAL/MOL
REMARK 924 INTRA-LIGAND FREE ENERGY PREDICTED BY IDOCK:   -1.03 KCAL/MOL
REMARK 927      BINDING AFFINITY PREDICTED BY RF-SCORE:    0.00 PKD
ROOT
HETATM    1  C   UNL     1     -11.655  16.762  72.328  1.00  0.00     0.101 C  
HETATM    2  C   UNL     1     -12.699  15.809  72.923  1.00  0.00    -0.572 C  
HETATM    3  C   UNL     1     -12.362  15.521  74.390  1.00  0.00    -0.798 C  
HETATM    4  C   UNL     1     -12.868  14.505  72.103  1.00  0.00    -0.339 C  
HETATM    5  N   UNL     1     -11.602  13.744  72.008  1.00  0.00     0.794 NA 
HETATM    6  H1  UNL     1     -11.714  12.886  71.468  1.00  0.00     0.000 HD 
HETATM    7  H2  UNL     1     -11.213  13.552  72.931  1.00  0.00     0.000 HD 
ENDROOT
BRANCH   4   8
HETATM    8  C   UNL     1     -13.450  14.802  70.706  1.00  0.00    -0.189 C  
HETATM    9  O   UNL     1     -14.407  15.537  70.495  1.00  0.00     0.013 OA 
BRANCH   8  10
HETATM   10  O   UNL     1     -12.813  14.084  69.733  1.00  0.00    -0.086 OA 
BRANCH  10  11
HETATM   11  C   UNL     1     -11.965  14.834  68.844  1.00  0.00    -0.263 C  
BRANCH  11  12
HETATM   12  C   UNL     1     -10.691  14.031  68.533  1.00  0.00    -0.256 C  
BRANCH  12  13
HETATM   13  O   UNL     1     -10.568  12.830  69.330  1.00  0.00    -0.028 OA 
BRANCH  13  14
HETATM   14  C   UNL     1      -9.611  11.910  68.809  1.00  0.00    -0.012 C  
BRANCH  14  15
HETATM   15  N   UNL     1      -9.926  10.581  69.284  1.00  0.00    -0.220 NA 
HETATM   16  C   UNL     1     -11.017   9.841  68.894  1.00  0.00    -0.150 A  
HETATM   17  N   UNL     1     -10.987   8.616  69.384  1.00  0.00    -0.096 NA 
HETATM   18  C   UNL     1      -9.824   8.558  70.119  1.00  0.00    -0.178 A  
HETATM   19  C   UNL     1      -9.175   9.766  70.061  1.00  0.00    -0.229 A  
HETATM   20  N   UNL     1      -8.005   9.980  70.674  1.00  0.00    -0.105 NA 
HETATM   21  C   UNL     1      -7.461   8.917  71.351  1.00  0.00    -0.079 C  
HETATM   22  N   UNL     1      -6.248   9.185  71.892  1.00  0.00    -0.212 NA 
HETATM   23  N   UNL     1      -7.987   7.732  71.471  1.00  0.00    -0.089 N  
HETATM   24  H2  UNL     1      -5.784  10.089  71.804  1.00  0.00     0.000 HD 
HETATM   25  H1  UNL     1      -5.843   8.396  72.396  1.00  0.00     0.000 HD 
HETATM   26  H   UNL     1      -7.497   7.009  71.998  1.00  0.00     0.000 HD 
HETATM   27  C   UNL     1      -9.223   7.448  70.877  1.00  0.00    -0.154 C  
HETATM   28  O   UNL     1      -9.763   6.353  70.974  1.00  0.00    -0.175 OA 
ENDBRANCH  14  15
ENDBRANCH  13  14
ENDBRANCH  12  13
BRANCH  12  29
HETATM   29  C   UNL     1      -9.444  14.889  68.798  1.00  0.00    -0.214 C  
HETATM   30  O   UNL     1      -9.674  15.722  69.936  1.00  0.00    -0.250 OA 
HETATM   31  H   UNL     1      -8.904  16.252  70.100  1.00  0.00     0.000 HD 
ENDBRANCH  12  29
ENDBRANCH  11  12
ENDBRANCH  10  11
ENDBRANCH   8  10
ENDBRANCH   4   8
TORSDOF 8
ENDMDL
MODEL      408
REMARK 921   NORMALIZED FREE ENERGY PREDICTED BY IDOCK:   -2.41 KCAL/MOL
REMARK 922        TOTAL FREE ENERGY PREDICTED BY IDOCK:   -4.76 KCAL/MOL
REMARK 923 INTER-LIGAND FREE ENERGY PREDICTED BY IDOCK:   -3.37 KCAL/MOL
REMARK 924 INTRA-LIGAND FREE ENERGY PREDICTED BY IDOCK:   -1.40 KCAL/MOL
REMARK 927      BINDING AFFINITY PREDICTED BY RF-SCORE:    0.00 PKD
ROOT
HETATM    1  C   UNL     1      -8.226   8.493  70.950  1.00  0.00    -0.150 C  
HETATM    2  C   UNL     1      -8.104   6.965  71.004  1.00  0.00    -0.106 C  
HETATM    3  C   UNL     1      -8.191   6.489  72.458  1.00  0.00    -0.104 C  
HETATM    4  C   UNL     1      -6.832   6.432  70.298  1.00  0.00    -0.054 C  
HETATM    5  N   UNL     1      -5.595   6.980  70.899  1.00  0.00    -0.027 NA 
HETATM    6  H1  UNL     1      -4.758   6.629  70.433  1.00  0.00     0.000 HD 
HETATM    7  H2  UNL     1      -5.561   6.805  71.903  1.00  0.00     0.000 HD 
ENDROOT
BRANCH   4   8
HETATM    8  C   UNL     1      -6.886   6.705  68.780  1.00  0.00    -0.070 C  
HETATM    9  O   UNL     1      -6.066   7.377  68.167  1.00  0.00    -0.033 OA 
BRANCH   8  10
HETATM   10  O   UNL     1      -8.005   6.166  68.212  1.00  0.00    -0.105 OA 
BRANCH  10  11
HETATM   11  C   UNL     1      -7.829   4.912  67.529  1.00  0.00    -0.094 C  
BRANCH  11  12
HETATM   12  C   UNL     1      -8.202   5.065  66.046  1.00  0.00    -0.113 C  
BRANCH  12  13
HETATM   13  O   UNL     1      -7.378   6.029  65.350  1.00  0.00    -0.072 OA 
BRANCH  13  14
HETATM   14  C   UNL     1      -8.137   7.052  64.708  1.00  0.00    -0.096 C  
BRANCH  14  15
HETATM   15  N   UNL     1      -7.765   8.335  65.262  1.00  0.00    -0.100 NA 
HETATM   16  C   UNL     1      -6.627   9.035  64.938  1.00  0.00    -0.069 A  
HETATM   17  N   UNL     1      -6.605  10.232  65.494  1.00  0.00    -0.121 NA 
HETATM   18  C   UNL     1      -7.782  10.312  66.205  1.00  0.00    -0.116 A  
HETATM   19  C   UNL     1      -8.492   9.146  66.066  1.00  0.00    -0.131 A  
HETATM   20  N   UNL     1      -9.686   8.962  66.640  1.00  0.00    -0.214 NA 
HETATM   21  C   UNL     1     -10.191  10.015  67.362  1.00  0.00    -0.219 C  
HETATM   22  N   UNL     1     -11.430   9.783  67.860  1.00  0.00    -0.509 NA 
HETATM   23  N   UNL     1      -9.607  11.162  67.559  1.00  0.00    -0.168 N  
HETATM   24  H2  UNL     1     -11.938   8.911  67.712  1.00  0.00     0.000 HD 
HETATM   25  H1  UNL     1     -11.805  10.564  68.397  1.00  0.00     0.000 HD 
HETATM   26  H   UNL     1     -10.072  11.880  68.114  1.00  0.00     0.000 HD 
HETATM   27  C   UNL     1      -8.343  11.410  67.010  1.00  0.00    -0.161 C  
HETATM   28  O   UNL     1      -7.749  12.468  67.178  1.00  0.00    -0.162 OA 
ENDBRANCH  14  15
ENDBRANCH  13  14
ENDBRANCH  12  13
BRANCH  12  29
HETATM   29  C   UNL     1      -9.662   5.523  65.909  1.00  0.00    -0.030 C  
HETATM   30  O   UNL     1     -10.529   4.491  66.384  1.00  0.00    -0.341 OA 
HETATM   31  H   UNL     1     -11.432   4.774  66.299  1.00  0.00     0.000 HD 
ENDBRANCH  12  29
ENDBRANCH  11  12
ENDBRANCH  10  11
ENDBRANCH   8  10
ENDBRANCH   4   8
TORSDOF 8
ENDMDL
MODEL      409
REMARK 921   NORMALIZED FREE ENERGY PREDICTED BY IDOCK:   -2.30 KCAL/MOL
REMARK 922        TOTAL FREE ENERGY PREDICTED BY IDOCK:   -4.58 KCAL/MOL
REMARK 923 INTER-LIGAND FREE ENERGY PREDICTED BY IDOCK:   -3.43 KCAL/MOL
REMARK 924 INTRA-LIGAND FREE ENERGY PREDICTED BY IDOCK:   -1.16 KCAL/MOL
REMARK 927      BINDING AFFINITY PREDICTED BY RF-SCORE:    0.00 PKD
ROOT
HETATM    1  C   UNL     1      -7.250   7.691  70.277  1.00  0.00    -0.067 C  
HETATM    2  C   UNL     1      -8.731   7.305  70.367  1.00  0.00    -0.146 C  
HETATM    3  C   UNL     1      -9.476   8.309  71.252  1.00  0.00    -0.219 C  
HETATM    4  C   UNL     1      -8.951   5.845  70.839  1.00  0.00    -0.146 C  
HETATM    5  N   UNL     1      -8.366   5.603  72.177  1.00  0.00    -0.115 NA 
HETATM    6  H1  UNL     1      -8.511   4.642  72.488  1.00  0.00     0.000 HD 
HETATM    7  H2  UNL     1      -8.718   6.271  72.863  1.00  0.00     0.000 HD 
ENDROOT
BRANCH   4   8
HETATM    8  C   UNL     1      -8.410   4.840  69.801  1.00  0.00    -0.075 C  
HETATM    9  O   UNL     1      -7.756   3.842  70.077  1.00  0.00    -0.048 OA 
BRANCH   8  10
HETATM   10  O   UNL     1      -8.688   5.238  68.524  1.00  0.00    -0.098 OA 
BRANCH  10  11
HETATM   11  C   UNL     1      -9.901   4.720  67.947  1.00  0.00    -0.134 C  
BRANCH  11  12
HETATM   12  C   UNL     1      -9.644   4.276  66.498  1.00  0.00    -0.200 C  
BRANCH  12  13
HETATM   13  O   UNL     1      -8.282   4.501  66.068  1.00  0.00    -0.109 OA 
BRANCH  13  14
HETATM   14  C   UNL     1      -8.146   5.635  65.213  1.00  0.00    -0.125 C  
BRANCH  14  15
HETATM   15  N   UNL     1      -7.496   6.701  65.943  1.00  0.00    -0.079 NA 
HETATM   16  C   UNL     1      -6.165   6.726  66.286  1.00  0.00    -0.044 A  
HETATM   17  N   UNL     1      -5.814   7.875  66.832  1.00  0.00    -0.042 NA 
HETATM   18  C   UNL     1      -6.967   8.629  66.838  1.00  0.00    -0.077 A  
HETATM   19  C   UNL     1      -8.000   7.906  66.296  1.00  0.00    -0.103 A  
HETATM   20  N   UNL     1      -9.232   8.409  66.163  1.00  0.00    -0.202 NA 
HETATM   21  C   UNL     1      -9.416   9.707  66.573  1.00  0.00    -0.181 C  
HETATM   22  N   UNL     1     -10.669  10.172  66.349  1.00  0.00    -0.072 NA 
HETATM   23  N   UNL     1      -8.511  10.482  67.098  1.00  0.00    -0.126 N  
HETATM   24  H2  UNL     1     -11.404   9.612  65.917  1.00  0.00     0.000 HD 
HETATM   25  H1  UNL     1     -10.806  11.135  66.654  1.00  0.00     0.000 HD 
HETATM   26  H   UNL     1      -8.753  11.435  67.369  1.00  0.00     0.000 HD 
HETATM   27  C   UNL     1      -7.208  10.009  67.292  1.00  0.00    -0.086 C  
HETATM   28  O   UNL     1      -6.326  10.696  67.795  1.00  0.00    -0.058 OA 
ENDBRANCH  14  15
ENDBRANCH  13  14
ENDBRANCH  12  13
BRANCH  12  29
HETATM   29  C   UNL     1     -10.564   5.044  65.536  1.00  0.00     0.057 C  
HETATM   30  O   UNL     1     -11.502   4.138  64.952  1.00  0.00    -0.933 OA 
HETATM   31  H   UNL     1     -12.070   4.613  64.357  1.00  0.00     0.000 HD 
ENDBRANCH  12  29
ENDBRANCH  11  12
ENDBRANCH  10  11
ENDBRANCH   8  10
ENDBRANCH   4   8
TORSDOF 8
ENDMDL
MODEL      410
REMARK 921   NORMALIZED FREE ENERGY PREDICTED BY IDOCK:   -2.26 KCAL/MOL
REMARK 922        TOTAL FREE ENERGY PREDICTED BY IDOCK:   -4.54 KCAL/MOL
REMARK 923 INTER-LIGAND FREE ENERGY PREDICTED BY IDOCK:   -3.65 KCAL/MOL
REMARK 924 INTRA-LIGAND FREE ENERGY PREDICTED BY IDOCK:   -0.89 KCAL/MOL
REMARK 927      BINDING AFFINITY PREDICTED BY RF-SCORE:    0.00 PKD
ROOT
HETATM    1  C   UNL     1     -11.430  16.829  72.289  1.00  0.00     0.248 C  
HETATM    2  C   UNL     1     -12.609  16.146  72.992  1.00  0.00    -0.564 C  
HETATM    3  C   UNL     1     -12.346  16.078  74.500  1.00  0.00    -0.698 C  
HETATM    4  C   UNL     1     -12.944  14.753  72.401  1.00  0.00    -0.359 C  
HETATM    5  N   UNL     1     -11.796  13.823  72.494  1.00  0.00     0.783 NA 
HETATM    6  H1  UNL     1     -12.017  12.906  72.105  1.00  0.00     0.000 HD 
HETATM    7  H2  UNL     1     -11.457  13.746  73.452  1.00  0.00     0.000 HD 
ENDROOT
BRANCH   4   8
HETATM    8  C   UNL     1     -13.451  14.875  70.949  1.00  0.00    -0.306 C  
HETATM    9  O   UNL     1     -14.397  15.570  70.601  1.00  0.00    -0.157 OA 
BRANCH   8  10
HETATM   10  O   UNL     1     -12.759  14.053  70.104  1.00  0.00    -0.302 OA 
BRANCH  10  11
HETATM   11  C   UNL     1     -12.525  14.558  68.777  1.00  0.00     0.138 C  
BRANCH  11  12
HETATM   12  C   UNL     1     -11.293  13.873  68.165  1.00  0.00    -0.295 C  
BRANCH  12  13
HETATM   13  O   UNL     1     -11.349  12.430  68.240  1.00  0.00    -0.240 OA 
BRANCH  13  14
HETATM   14  C   UNL     1     -10.140  11.848  68.723  1.00  0.00    -0.120 C  
BRANCH  14  15
HETATM   15  N   UNL     1     -10.000  10.520  68.167  1.00  0.00    -0.150 NA 
HETATM   16  C   UNL     1     -10.991   9.567  68.142  1.00  0.00    -0.089 A  
HETATM   17  N   UNL     1     -10.632   8.495  67.461  1.00  0.00    -0.247 NA 
HETATM   18  C   UNL     1      -9.355   8.768  67.021  1.00  0.00    -0.157 A  
HETATM   19  C   UNL     1      -8.967  10.010  67.459  1.00  0.00    -0.134 A  
HETATM   20  N   UNL     1      -7.773  10.533  67.157  1.00  0.00    -0.099 NA 
HETATM   21  C   UNL     1      -6.952   9.776  66.358  1.00  0.00    -0.093 C  
HETATM   22  N   UNL     1      -5.789  10.394  66.040  1.00  0.00    -0.082 NA 
HETATM   23  N   UNL     1      -7.218   8.592  65.887  1.00  0.00    -0.075 N  
HETATM   24  H2  UNL     1      -5.547  11.331  66.362  1.00  0.00     0.000 HD 
HETATM   25  H1  UNL     1      -5.179   9.832  65.446  1.00  0.00     0.000 HD 
HETATM   26  H   UNL     1      -6.535   8.113  65.299  1.00  0.00     0.000 HD 
HETATM   27  C   UNL     1      -8.438   7.973  66.188  1.00  0.00    -0.135 C  
HETATM   28  O   UNL     1      -8.727   6.855  65.780  1.00  0.00    -0.152 OA 
ENDBRANCH  14  15
ENDBRANCH  13  14
ENDBRANCH  12  13
BRANCH  12  29
HETATM   29  C   UNL     1     -10.017  14.323  68.894  1.00  0.00    -0.156 C  
HETATM   30  O   UNL     1     -10.093  15.725  69.161  1.00  0.00    -0.208 OA 
HETATM   31  H   UNL     1      -9.304  16.003  69.612  1.00  0.00     0.000 HD 
ENDBRANCH  12  29
ENDBRANCH  11  12
ENDBRANCH  10  11
ENDBRANCH   8  10
ENDBRANCH   4   8
TORSDOF 8
ENDMDL
MODEL      411
REMARK 921   NORMALIZED FREE ENERGY PREDICTED BY IDOCK:   -2.21 KCAL/MOL
REMARK 922        TOTAL FREE ENERGY PREDICTED BY IDOCK:   -4.47 KCAL/MOL
REMARK 923 INTER-LIGAND FREE ENERGY PREDICTED BY IDOCK:   -3.78 KCAL/MOL
REMARK 924 INTRA-LIGAND FREE ENERGY PREDICTED BY IDOCK:   -0.69 KCAL/MOL
REMARK 927      BINDING AFFINITY PREDICTED BY RF-SCORE:    0.00 PKD
ROOT
HETATM    1  C   UNL     1      -9.213   8.460  72.468  1.00  0.00    -0.338 C  
HETATM    2  C   UNL     1      -9.930   8.438  71.113  1.00  0.00    -0.245 C  
HETATM    3  C   UNL     1     -10.630   9.780  70.874  1.00  0.00    -0.344 C  
HETATM    4  C   UNL     1     -10.906   7.243  70.962  1.00  0.00    -0.239 C  
HETATM    5  N   UNL     1     -11.960   7.255  72.001  1.00  0.00    -0.295 NA 
HETATM    6  H1  UNL     1     -12.602   6.469  71.901  1.00  0.00     0.000 HD 
HETATM    7  H2  UNL     1     -12.461   8.143  72.011  1.00  0.00     0.000 HD 
ENDROOT
BRANCH   4   8
HETATM    8  C   UNL     1     -10.142   5.903  70.954  1.00  0.00    -0.197 C  
HETATM    9  O   UNL     1     -10.106   5.119  71.895  1.00  0.00    -0.183 OA 
BRANCH   8  10
HETATM   10  O   UNL     1      -9.447   5.727  69.790  1.00  0.00    -0.143 OA 
BRANCH  10  11
HETATM   11  C   UNL     1     -10.219   5.323  68.644  1.00  0.00    -0.153 C  
BRANCH  11  12
HETATM   12  C   UNL     1      -9.521   4.157  67.927  1.00  0.00    -0.167 C  
BRANCH  12  13
HETATM   13  O   UNL     1      -8.103   4.373  67.738  1.00  0.00    -0.094 OA 
BRANCH  13  14
HETATM   14  C   UNL     1      -7.710   4.332  66.367  1.00  0.00    -0.094 C  
BRANCH  14  15
HETATM   15  N   UNL     1      -7.481   5.681  65.900  1.00  0.00    -0.077 NA 
HETATM   16  C   UNL     1      -7.674   6.113  64.609  1.00  0.00    -0.101 A  
HETATM   17  N   UNL     1      -7.515   7.418  64.493  1.00  0.00    -0.087 NA 
HETATM   18  C   UNL     1      -7.210   7.851  65.764  1.00  0.00    -0.071 A  
HETATM   19  C   UNL     1      -7.186   6.784  66.627  1.00  0.00    -0.073 A  
HETATM   20  N   UNL     1      -6.933   6.925  67.933  1.00  0.00    -0.080 NA 
HETATM   21  C   UNL     1      -6.723   8.205  68.385  1.00  0.00    -0.064 C  
HETATM   22  N   UNL     1      -6.538   8.280  69.726  1.00  0.00    -0.039 NA 
HETATM   23  N   UNL     1      -6.724   9.286  67.659  1.00  0.00    -0.068 N  
HETATM   24  H2  UNL     1      -6.554   7.466  70.339  1.00  0.00     0.000 HD 
HETATM   25  H1  UNL     1      -6.381   9.231  70.061  1.00  0.00     0.000 HD 
HETATM   26  H   UNL     1      -6.557  10.192  68.096  1.00  0.00     0.000 HD 
HETATM   27  C   UNL     1      -6.954   9.206  66.280  1.00  0.00    -0.086 C  
HETATM   28  O   UNL     1      -6.951  10.193  65.555  1.00  0.00    -0.117 OA 
ENDBRANCH  14  15
ENDBRANCH  13  14
ENDBRANCH  12  13
BRANCH  12  29
HETATM   29  C   UNL     1     -10.143   3.938  66.539  1.00  0.00     0.161 C  
HETATM   30  O   UNL     1     -10.874   5.105  66.157  1.00  0.00    -0.583 OA 
HETATM   31  H   UNL     1     -11.258   4.970  65.299  1.00  0.00     0.000 HD 
ENDBRANCH  12  29
ENDBRANCH  11  12
ENDBRANCH  10  11
ENDBRANCH   8  10
ENDBRANCH   4   8
TORSDOF 8
ENDMDL
MODEL      412
REMARK 921   NORMALIZED FREE ENERGY PREDICTED BY IDOCK:   -2.15 KCAL/MOL
REMARK 922        TOTAL FREE ENERGY PREDICTED BY IDOCK:   -4.37 KCAL/MOL
REMARK 923 INTER-LIGAND FREE ENERGY PREDICTED BY IDOCK:   -3.73 KCAL/MOL
REMARK 924 INTRA-LIGAND FREE ENERGY PREDICTED BY IDOCK:   -0.63 KCAL/MOL
REMARK 927      BINDING AFFINITY PREDICTED BY RF-SCORE:    0.00 PKD
ROOT
HETATM    1  C   UNL     1      -6.763   4.727  69.714  1.00  0.00    -0.040 C  
HETATM    2  C   UNL     1      -6.727   6.234  69.993  1.00  0.00    -0.053 C  
HETATM    3  C   UNL     1      -5.708   6.534  71.097  1.00  0.00    -0.027 C  
HETATM    4  C   UNL     1      -8.122   6.825  70.319  1.00  0.00    -0.120 C  
HETATM    5  N   UNL     1      -8.729   6.186  71.509  1.00  0.00    -0.135 NA 
HETATM    6  H1  UNL     1      -9.647   6.575  71.723  1.00  0.00     0.000 HD 
HETATM    7  H2  UNL     1      -8.107   6.238  72.315  1.00  0.00     0.000 HD 
ENDROOT
BRANCH   4   8
HETATM    8  C   UNL     1      -9.060   6.737  69.097  1.00  0.00    -0.138 C  
HETATM    9  O   UNL     1     -10.175   6.230  69.114  1.00  0.00    -0.164 OA 
BRANCH   8  10
HETATM   10  O   UNL     1      -8.465   7.230  67.970  1.00  0.00    -0.122 OA 
BRANCH  10  11
HETATM   11  C   UNL     1      -8.918   8.523  67.528  1.00  0.00    -0.135 C  
BRANCH  11  12
HETATM   12  C   UNL     1      -7.712   9.401  67.157  1.00  0.00    -0.091 C  
BRANCH  12  13
HETATM   13  O   UNL     1      -7.955  10.813  67.358  1.00  0.00    -0.109 OA 
BRANCH  13  14
HETATM   14  C   UNL     1      -9.226  11.083  67.947  1.00  0.00    -0.155 C  
BRANCH  14  15
HETATM   15  N   UNL     1      -9.618  12.436  67.622  1.00  0.00    -0.188 NA 
HETATM   16  C   UNL     1     -10.806  12.793  67.029  1.00  0.00    -0.257 A  
HETATM   17  N   UNL     1     -10.958  14.102  66.969  1.00  0.00    -0.295 NA 
HETATM   18  C   UNL     1      -9.822  14.617  67.553  1.00  0.00    -0.218 A  
HETATM   19  C   UNL     1      -8.998  13.593  67.950  1.00  0.00    -0.195 A  
HETATM   20  N   UNL     1      -7.831  13.813  68.566  1.00  0.00    -0.135 NA 
HETATM   21  C   UNL     1      -7.500  15.123  68.811  1.00  0.00    -0.132 C  
HETATM   22  N   UNL     1      -6.338  15.267  69.494  1.00  0.00    -0.134 NA 
HETATM   23  N   UNL     1      -8.203  16.167  68.480  1.00  0.00    -0.176 N  
HETATM   24  H2  UNL     1      -5.765  14.480  69.797  1.00  0.00     0.000 HD 
HETATM   25  H1  UNL     1      -6.091  16.240  69.675  1.00  0.00     0.000 HD 
HETATM   26  H   UNL     1      -7.865  17.102  68.711  1.00  0.00     0.000 HD 
HETATM   27  C   UNL     1      -9.421  16.010  67.809  1.00  0.00    -0.217 C  
HETATM   28  O   UNL     1     -10.111  16.963  67.465  1.00  0.00    -0.266 OA 
ENDBRANCH  14  15
ENDBRANCH  13  14
ENDBRANCH  12  13
BRANCH  12  29
HETATM   29  C   UNL     1      -7.344   9.203  65.679  1.00  0.00    -0.086 C  
HETATM   30  O   UNL     1      -7.856  10.294  64.911  1.00  0.00    -0.146 OA 
HETATM   31  H   UNL     1      -7.628  10.172  63.998  1.00  0.00     0.000 HD 
ENDBRANCH  12  29
ENDBRANCH  11  12
ENDBRANCH  10  11
ENDBRANCH   8  10
ENDBRANCH   4   8
TORSDOF 8
ENDMDL
MODEL      413
REMARK 921   NORMALIZED FREE ENERGY PREDICTED BY IDOCK:   -2.14 KCAL/MOL
REMARK 922        TOTAL FREE ENERGY PREDICTED BY IDOCK:   -4.35 KCAL/MOL
REMARK 923 INTER-LIGAND FREE ENERGY PREDICTED BY IDOCK:   -3.73 KCAL/MOL
REMARK 924 INTRA-LIGAND FREE ENERGY PREDICTED BY IDOCK:   -0.62 KCAL/MOL
REMARK 927      BINDING AFFINITY PREDICTED BY RF-SCORE:    0.00 PKD
ROOT
HETATM    1  C   UNL     1     -11.579  16.952  72.225  1.00  0.00     0.326 C  
HETATM    2  C   UNL     1     -12.522  15.780  72.528  1.00  0.00    -0.542 C  
HETATM    3  C   UNL     1     -12.179  15.179  73.894  1.00  0.00    -0.698 C  
HETATM    4  C   UNL     1     -12.534  14.706  71.411  1.00  0.00    -0.344 C  
HETATM    5  N   UNL     1     -11.191  14.125  71.188  1.00  0.00    -0.040 NA 
HETATM    6  H1  UNL     1     -11.199  13.418  70.453  1.00  0.00     0.000 HD 
HETATM    7  H2  UNL     1     -10.799  13.755  72.054  1.00  0.00     0.000 HD 
ENDROOT
BRANCH   4   8
HETATM    8  C   UNL     1     -13.122  15.275  70.103  1.00  0.00     0.005 C  
HETATM    9  O   UNL     1     -14.248  15.745  69.995  1.00  0.00     1.041 OA 
BRANCH   8  10
HETATM   10  O   UNL     1     -12.257  15.124  69.055  1.00  0.00    -0.231 OA 
BRANCH  10  11
HETATM   11  C   UNL     1     -11.848  16.333  68.391  1.00  0.00     0.111 C  
BRANCH  11  12
HETATM   12  C   UNL     1     -10.323  16.494  68.489  1.00  0.00    -0.289 C  
BRANCH  12  13
HETATM   13  O   UNL     1      -9.694  15.472  69.297  1.00  0.00    -0.235 OA 
BRANCH  13  14
HETATM   14  C   UNL     1      -8.271  15.479  69.199  1.00  0.00    -0.247 C  
BRANCH  14  15
HETATM   15  N   UNL     1      -7.845  14.320  68.447  1.00  0.00    -0.133 NA 
HETATM   16  C   UNL     1      -6.560  13.831  68.411  1.00  0.00    -0.096 A  
HETATM   17  N   UNL     1      -6.481  12.690  67.752  1.00  0.00    -0.111 NA 
HETATM   18  C   UNL     1      -7.771  12.425  67.348  1.00  0.00    -0.170 A  
HETATM   19  C   UNL     1      -8.607  13.428  67.772  1.00  0.00    -0.194 A  
HETATM   20  N   UNL     1      -9.923  13.412  67.530  1.00  0.00    -0.227 NA 
HETATM   21  C   UNL     1     -10.412  12.321  66.854  1.00  0.00    -0.217 C  
HETATM   22  N   UNL     1     -11.759  12.341  66.702  1.00  0.00    -0.532 NA 
HETATM   23  N   UNL     1      -9.714  11.317  66.409  1.00  0.00    -0.203 N  
HETATM   24  H2  UNL     1     -12.351  13.092  67.055  1.00  0.00     0.000 HD 
HETATM   25  H1  UNL     1     -12.122  11.531  66.199  1.00  0.00     0.000 HD 
HETATM   26  H   UNL     1     -10.178  10.553  65.917  1.00  0.00     0.000 HD 
HETATM   27  C   UNL     1      -8.327  11.284  66.603  1.00  0.00    -0.163 C  
HETATM   28  O   UNL     1      -7.627  10.368  66.190  1.00  0.00    -0.118 OA 
ENDBRANCH  14  15
ENDBRANCH  13  14
ENDBRANCH  12  13
BRANCH  12  29
HETATM   29  C   UNL     1      -9.970  17.854  69.110  1.00  0.00    -0.195 C  
HETATM   30  O   UNL     1     -10.883  18.844  68.633  1.00  0.00    -0.223 OA 
HETATM   31  H   UNL     1     -10.665  19.685  69.017  1.00  0.00     0.000 HD 
ENDBRANCH  12  29
ENDBRANCH  11  12
ENDBRANCH  10  11
ENDBRANCH   8  10
ENDBRANCH   4   8
TORSDOF 8
ENDMDL
MODEL      414
REMARK 921   NORMALIZED FREE ENERGY PREDICTED BY IDOCK:   -2.06 KCAL/MOL
REMARK 922        TOTAL FREE ENERGY PREDICTED BY IDOCK:   -4.23 KCAL/MOL
REMARK 923 INTER-LIGAND FREE ENERGY PREDICTED BY IDOCK:   -3.70 KCAL/MOL
REMARK 924 INTRA-LIGAND FREE ENERGY PREDICTED BY IDOCK:   -0.53 KCAL/MOL
REMARK 927      BINDING AFFINITY PREDICTED BY RF-SCORE:    0.00 PKD
ROOT
HETATM    1  C   UNL     1      -9.122  13.695  66.215  1.00  0.00     0.003 C  
HETATM    2  C   UNL     1      -8.328  12.934  67.284  1.00  0.00    -0.185 C  
HETATM    3  C   UNL     1      -7.025  13.681  67.591  1.00  0.00    -0.183 C  
HETATM    4  C   UNL     1      -8.069  11.453  66.909  1.00  0.00    -0.158 C  
HETATM    5  N   UNL     1      -7.311  11.327  65.644  1.00  0.00    -0.323 NA 
HETATM    6  H1  UNL     1      -7.141  10.352  65.398  1.00  0.00     0.000 HD 
HETATM    7  H2  UNL     1      -6.440  11.857  65.679  1.00  0.00     0.000 HD 
ENDROOT
BRANCH   4   8
HETATM    8  C   UNL     1      -9.390  10.658  66.852  1.00  0.00    -0.159 C  
HETATM    9  O   UNL     1     -10.246  10.797  65.986  1.00  0.00    -0.239 OA 
BRANCH   8  10
HETATM   10  O   UNL     1      -9.525   9.828  67.929  1.00  0.00    -0.131 OA 
BRANCH  10  11
HETATM   11  C   UNL     1      -8.709   8.642  67.922  1.00  0.00    -0.137 C  
BRANCH  11  12
HETATM   12  C   UNL     1      -8.391   8.218  69.365  1.00  0.00    -0.122 C  
BRANCH  12  13
HETATM   13  O   UNL     1      -9.564   8.140  70.207  1.00  0.00    -0.169 OA 
BRANCH  13  14
HETATM   14  C   UNL     1     -10.593   7.321  69.656  1.00  0.00    -0.235 C  
BRANCH  14  15
HETATM   15  N   UNL     1     -10.271   5.932  69.897  1.00  0.00    -0.199 NA 
HETATM   16  C   UNL     1     -10.303   4.939  68.947  1.00  0.00     0.002 A  
HETATM   17  N   UNL     1      -9.837   3.794  69.409  1.00  0.00    -0.053 NA 
HETATM   18  C   UNL     1      -9.483   4.058  70.714  1.00  0.00    -0.170 A  
HETATM   19  C   UNL     1      -9.753   5.370  71.013  1.00  0.00    -0.179 A  
HETATM   20  N   UNL     1      -9.487   5.899  72.213  1.00  0.00    -0.148 NA 
HETATM   21  C   UNL     1      -8.899   5.070  73.136  1.00  0.00    -0.111 C  
HETATM   22  N   UNL     1      -8.599   5.689  74.304  1.00  0.00    -0.112 NA 
HETATM   23  N   UNL     1      -8.599   3.816  72.960  1.00  0.00    -0.093 N  
HETATM   24  H2  UNL     1      -8.791   6.675  74.480  1.00  0.00     0.000 HD 
HETATM   25  H1  UNL     1      -8.163   5.073  74.990  1.00  0.00     0.000 HD 
HETATM   26  H   UNL     1      -8.162   3.287  73.715  1.00  0.00     0.000 HD 
HETATM   27  C   UNL     1      -8.876   3.191  71.738  1.00  0.00    -0.086 C  
HETATM   28  O   UNL     1      -8.625   2.010  71.530  1.00  0.00    -0.060 OA 
ENDBRANCH  14  15
ENDBRANCH  13  14
ENDBRANCH  12  13
BRANCH  12  29
HETATM   29  C   UNL     1      -7.424   9.220  70.013  1.00  0.00    -0.094 C  
HETATM   30  O   UNL     1      -8.168  10.308  70.566  1.00  0.00    -0.365 OA 
HETATM   31  H   UNL     1      -7.570  10.928  70.966  1.00  0.00     0.000 HD 
ENDBRANCH  12  29
ENDBRANCH  11  12
ENDBRANCH  10  11
ENDBRANCH   8  10
ENDBRANCH   4   8
TORSDOF 8
ENDMDL
MODEL      415
REMARK 921   NORMALIZED FREE ENERGY PREDICTED BY IDOCK:   -2.03 KCAL/MOL
REMARK 922        TOTAL FREE ENERGY PREDICTED BY IDOCK:   -4.19 KCAL/MOL
REMARK 923 INTER-LIGAND FREE ENERGY PREDICTED BY IDOCK:   -5.73 KCAL/MOL
REMARK 924 INTRA-LIGAND FREE ENERGY PREDICTED BY IDOCK:    1.54 KCAL/MOL
REMARK 927      BINDING AFFINITY PREDICTED BY RF-SCORE:    0.00 PKD
ROOT
HETATM    1  C   UNL     1     -11.250  15.129  71.341  1.00  0.00    -0.319 C  
HETATM    2  C   UNL     1     -12.241  14.342  70.475  1.00  0.00    -0.427 C  
HETATM    3  C   UNL     1     -12.768  13.134  71.257  1.00  0.00    -0.396 C  
HETATM    4  C   UNL     1     -11.652  13.928  69.103  1.00  0.00    -0.313 C  
HETATM    5  N   UNL     1     -10.448  13.080  69.251  1.00  0.00    -0.420 NA 
HETATM    6  H1  UNL     1     -10.061  12.808  68.347  1.00  0.00     0.000 HD 
HETATM    7  H2  UNL     1     -10.638  12.264  69.833  1.00  0.00     0.000 HD 
ENDROOT
BRANCH   4   8
HETATM    8  C   UNL     1     -11.361  15.166  68.230  1.00  0.00    -0.327 C  
HETATM    9  O   UNL     1     -11.153  15.131  67.023  1.00  0.00    -0.329 OA 
BRANCH   8  10
HETATM   10  O   UNL     1     -11.291  16.306  68.980  1.00  0.00    -0.331 OA 
BRANCH  10  11
HETATM   11  C   UNL     1     -10.764  17.470  68.319  1.00  0.00    -0.309 C  
BRANCH  11  12
HETATM   12  C   UNL     1      -9.412  17.137  67.669  1.00  0.00    -0.241 C  
BRANCH  12  13
HETATM   13  O   UNL     1      -8.286  17.703  68.378  1.00  0.00    -0.271 OA 
BRANCH  13  14
HETATM   14  C   UNL     1      -7.709  16.800  69.320  1.00  0.00    -0.076 C  
BRANCH  14  15
HETATM   15  N   UNL     1      -7.450  15.537  68.667  1.00  0.00    -0.125 NA 
HETATM   16  C   UNL     1      -7.599  15.299  67.321  1.00  0.00    -0.210 A  
HETATM   17  N   UNL     1      -7.169  14.100  66.977  1.00  0.00     0.084 NA 
HETATM   18  C   UNL     1      -6.716  13.538  68.151  1.00  0.00    -0.120 A  
HETATM   19  C   UNL     1      -6.893  14.419  69.188  1.00  0.00    -0.120 A  
HETATM   20  N   UNL     1      -6.520  14.134  70.440  1.00  0.00    -0.096 NA 
HETATM   21  C   UNL     1      -5.920  12.914  70.642  1.00  0.00    -0.024 C  
HETATM   22  N   UNL     1      -5.511  12.719  71.919  1.00  0.00    -0.385 NA 
HETATM   23  N   UNL     1      -5.703  12.006  69.736  1.00  0.00    -0.096 N  
HETATM   24  H2  UNL     1      -5.635  13.411  72.659  1.00  0.00     0.000 HD 
HETATM   25  H1  UNL     1      -5.066  11.814  72.070  1.00  0.00     0.000 HD 
HETATM   26  H   UNL     1      -5.248  11.130  69.992  1.00  0.00     0.000 HD 
HETATM   27  C   UNL     1      -6.094  12.229  68.410  1.00  0.00    -0.052 C  
HETATM   28  O   UNL     1      -5.923  11.399  67.525  1.00  0.00    -0.053 OA 
ENDBRANCH  14  15
ENDBRANCH  13  14
ENDBRANCH  12  13
BRANCH  12  29
HETATM   29  C   UNL     1      -9.367  17.675  66.230  1.00  0.00    -0.197 C  
HETATM   30  O   UNL     1     -10.563  17.297  65.545  1.00  0.00    -0.580 OA 
HETATM   31  H   UNL     1     -10.535  17.629  64.655  1.00  0.00     0.000 HD 
ENDBRANCH  12  29
ENDBRANCH  11  12
ENDBRANCH  10  11
ENDBRANCH   8  10
ENDBRANCH   4   8
TORSDOF 8
ENDMDL
MODEL      416
REMARK 921   NORMALIZED FREE ENERGY PREDICTED BY IDOCK:   -2.01 KCAL/MOL
REMARK 922        TOTAL FREE ENERGY PREDICTED BY IDOCK:   -4.17 KCAL/MOL
REMARK 923 INTER-LIGAND FREE ENERGY PREDICTED BY IDOCK:   -5.06 KCAL/MOL
REMARK 924 INTRA-LIGAND FREE ENERGY PREDICTED BY IDOCK:    0.88 KCAL/MOL
REMARK 927      BINDING AFFINITY PREDICTED BY RF-SCORE:    0.00 PKD
ROOT
HETATM    1  C   UNL     1     -10.868  15.195  71.413  1.00  0.00     0.023 C  
HETATM    2  C   UNL     1     -12.180  15.786  70.884  1.00  0.00    -0.458 C  
HETATM    3  C   UNL     1     -13.367  14.991  71.436  1.00  0.00    -0.513 C  
HETATM    4  C   UNL     1     -12.221  15.887  69.338  1.00  0.00    -0.062 C  
HETATM    5  N   UNL     1     -12.060  14.565  68.693  1.00  0.00    -0.552 NA 
HETATM    6  H1  UNL     1     -12.087  14.632  67.676  1.00  0.00     0.000 HD 
HETATM    7  H2  UNL     1     -12.749  13.897  69.039  1.00  0.00     0.000 HD 
ENDROOT
BRANCH   4   8
HETATM    8  C   UNL     1     -11.172  16.894  68.822  1.00  0.00    -0.058 C  
HETATM    9  O   UNL     1     -11.156  17.359  67.688  1.00  0.00    -0.214 OA 
BRANCH   8  10
HETATM   10  O   UNL     1     -10.216  17.151  69.763  1.00  0.00    -0.057 OA 
BRANCH  10  11
HETATM   11  C   UNL     1      -9.026  17.812  69.295  1.00  0.00     0.270 C  
BRANCH  11  12
HETATM   12  C   UNL     1      -8.556  17.174  67.978  1.00  0.00    -0.227 C  
BRANCH  12  13
HETATM   13  O   UNL     1      -7.579  16.125  68.171  1.00  0.00    -0.132 OA 
BRANCH  13  14
HETATM   14  C   UNL     1      -8.169  14.850  68.413  1.00  0.00    -0.151 C  
BRANCH  14  15
HETATM   15  N   UNL     1      -8.960  14.469  67.264  1.00  0.00    -0.199 NA 
HETATM   16  C   UNL     1      -9.027  15.172  66.084  1.00  0.00    -0.166 A  
HETATM   17  N   UNL     1      -9.720  14.530  65.162  1.00  0.00    -0.095 NA 
HETATM   18  C   UNL     1     -10.115  13.359  65.770  1.00  0.00    -0.288 A  
HETATM   19  C   UNL     1      -9.651  13.324  67.061  1.00  0.00    -0.243 A  
HETATM   20  N   UNL     1      -9.877  12.286  67.874  1.00  0.00    -0.195 NA 
HETATM   21  C   UNL     1     -10.578  11.230  67.345  1.00  0.00    -0.224 C  
HETATM   22  N   UNL     1     -10.712  10.188  68.202  1.00  0.00    -0.226 NA 
HETATM   23  N   UNL     1     -11.062  11.156  66.139  1.00  0.00    -0.156 N  
HETATM   24  H2  UNL     1     -10.329  10.188  69.147  1.00  0.00     0.000 HD 
HETATM   25  H1  UNL     1     -11.234   9.404  67.810  1.00  0.00     0.000 HD 
HETATM   26  H   UNL     1     -11.569  10.322  65.845  1.00  0.00     0.000 HD 
HETATM   27  C   UNL     1     -10.886  12.220  65.246  1.00  0.00    -0.293 C  
HETATM   28  O   UNL     1     -11.335  12.202  64.105  1.00  0.00    -0.331 OA 
ENDBRANCH  14  15
ENDBRANCH  13  14
ENDBRANCH  12  13
BRANCH  12  29
HETATM   29  C   UNL     1      -7.918  18.236  67.070  1.00  0.00    -0.225 C  
HETATM   30  O   UNL     1      -8.830  19.324  66.899  1.00  0.00    -0.283 OA 
HETATM   31  H   UNL     1      -8.435  19.980  66.337  1.00  0.00     0.000 HD 
ENDBRANCH  12  29
ENDBRANCH  11  12
ENDBRANCH  10  11
ENDBRANCH   8  10
ENDBRANCH   4   8
TORSDOF 8
ENDMDL
MODEL      417
REMARK 921   NORMALIZED FREE ENERGY PREDICTED BY IDOCK:   -1.98 KCAL/MOL
REMARK 922        TOTAL FREE ENERGY PREDICTED BY IDOCK:   -4.12 KCAL/MOL
REMARK 923 INTER-LIGAND FREE ENERGY PREDICTED BY IDOCK:   -3.34 KCAL/MOL
REMARK 924 INTRA-LIGAND FREE ENERGY PREDICTED BY IDOCK:   -0.78 KCAL/MOL
REMARK 927      BINDING AFFINITY PREDICTED BY RF-SCORE:    0.00 PKD
ROOT
HETATM    1  C   UNL     1     -13.393  10.911  69.642  1.00  0.00     1.327 C  
HETATM    2  C   UNL     1     -12.166  11.348  70.450  1.00  0.00    -0.450 C  
HETATM    3  C   UNL     1     -11.777  10.246  71.441  1.00  0.00    -0.312 C  
HETATM    4  C   UNL     1     -12.358  12.715  71.154  1.00  0.00    -0.145 C  
HETATM    5  N   UNL     1     -13.501  12.698  72.093  1.00  0.00    -0.531 NA 
HETATM    6  H1  UNL     1     -13.627  13.598  72.556  1.00  0.00     0.000 HD 
HETATM    7  H2  UNL     1     -13.413  11.942  72.772  1.00  0.00     0.000 HD 
ENDROOT
BRANCH   4   8
HETATM    8  C   UNL     1     -12.497  13.854  70.122  1.00  0.00    -0.292 C  
HETATM    9  O   UNL     1     -13.566  14.296  69.717  1.00  0.00     1.114 OA 
BRANCH   8  10
HETATM   10  O   UNL     1     -11.279  14.264  69.658  1.00  0.00    -0.248 OA 
BRANCH  10  11
HETATM   11  C   UNL     1     -10.817  13.637  68.448  1.00  0.00    -0.256 C  
BRANCH  11  12
HETATM   12  C   UNL     1     -11.511  14.269  67.231  1.00  0.00    -0.352 C  
BRANCH  12  13
HETATM   13  O   UNL     1     -11.251  13.561  65.998  1.00  0.00    -0.293 OA 
BRANCH  13  14
HETATM   14  C   UNL     1     -11.491  12.158  66.098  1.00  0.00    -0.371 C  
BRANCH  14  15
HETATM   15  N   UNL     1     -10.752  11.478  65.057  1.00  0.00    -0.293 NA 
HETATM   16  C   UNL     1     -10.371  12.041  63.862  1.00  0.00    -0.402 A  
HETATM   17  N   UNL     1      -9.598  11.236  63.158  1.00  0.00    -0.346 NA 
HETATM   18  C   UNL     1      -9.468  10.104  63.932  1.00  0.00    -0.275 A  
HETATM   19  C   UNL     1     -10.181  10.252  65.096  1.00  0.00    -0.224 A  
HETATM   20  N   UNL     1     -10.212   9.305  66.041  1.00  0.00    -0.205 NA 
HETATM   21  C   UNL     1      -9.469   8.174  65.804  1.00  0.00     0.090 C  
HETATM   22  N   UNL     1      -9.495   7.288  66.830  1.00  0.00    -0.164 NA 
HETATM   23  N   UNL     1      -8.759   7.930  64.742  1.00  0.00    -0.377 N  
HETATM   24  H2  UNL     1     -10.015   7.446  67.693  1.00  0.00     0.000 HD 
HETATM   25  H1  UNL     1      -8.943   6.448  66.655  1.00  0.00     0.000 HD 
HETATM   26  H   UNL     1      -8.241   7.054  64.666  1.00  0.00     0.000 HD 
HETATM   27  C   UNL     1      -8.705   8.866  63.702  1.00  0.00    -0.016 C  
HETATM   28  O   UNL     1      -8.062   8.676  62.677  1.00  0.00    -0.158 OA 
ENDBRANCH  14  15
ENDBRANCH  13  14
ENDBRANCH  12  13
BRANCH  12  29
HETATM   29  C   UNL     1     -11.034  15.717  67.040  1.00  0.00    -0.221 C  
HETATM   30  O   UNL     1     -11.781  16.580  67.900  1.00  0.00     0.056 OA 
HETATM   31  H   UNL     1     -11.487  17.475  67.781  1.00  0.00     0.000 HD 
ENDBRANCH  12  29
ENDBRANCH  11  12
ENDBRANCH  10  11
ENDBRANCH   8  10
ENDBRANCH   4   8
TORSDOF 8
ENDMDL
MODEL      418
REMARK 921   NORMALIZED FREE ENERGY PREDICTED BY IDOCK:   -1.98 KCAL/MOL
REMARK 922        TOTAL FREE ENERGY PREDICTED BY IDOCK:   -4.12 KCAL/MOL
REMARK 923 INTER-LIGAND FREE ENERGY PREDICTED BY IDOCK:   -3.99 KCAL/MOL
REMARK 924 INTRA-LIGAND FREE ENERGY PREDICTED BY IDOCK:   -0.13 KCAL/MOL
REMARK 927      BINDING AFFINITY PREDICTED BY RF-SCORE:    0.00 PKD
ROOT
HETATM    1  C   UNL     1      -6.016   4.945  68.864  1.00  0.00    -0.025 C  
HETATM    2  C   UNL     1      -6.524   5.954  69.900  1.00  0.00    -0.038 C  
HETATM    3  C   UNL     1      -5.353   6.787  70.431  1.00  0.00    -0.019 C  
HETATM    4  C   UNL     1      -7.329   5.293  71.048  1.00  0.00    -0.078 C  
HETATM    5  N   UNL     1      -6.522   4.295  71.785  1.00  0.00    -0.018 NA 
HETATM    6  H1  UNL     1      -7.052   3.861  72.540  1.00  0.00     0.000 HD 
HETATM    7  H2  UNL     1      -5.653   4.702  72.130  1.00  0.00     0.000 HD 
ENDROOT
BRANCH   4   8
HETATM    8  C   UNL     1      -8.639   4.674  70.519  1.00  0.00    -0.094 C  
HETATM    9  O   UNL     1      -9.634   4.466  71.203  1.00  0.00    -0.151 OA 
BRANCH   8  10
HETATM   10  O   UNL     1      -8.532   4.317  69.204  1.00  0.00    -0.079 OA 
BRANCH  10  11
HETATM   11  C   UNL     1      -9.697   4.539  68.389  1.00  0.00    -0.122 C  
BRANCH  11  12
HETATM   12  C   UNL     1      -9.272   4.956  66.972  1.00  0.00    -0.123 C  
BRANCH  12  13
HETATM   13  O   UNL     1     -10.344   5.563  66.214  1.00  0.00    -0.201 OA 
BRANCH  13  14
HETATM   14  C   UNL     1     -11.090   6.518  66.967  1.00  0.00    -0.339 C  
BRANCH  14  15
HETATM   15  N   UNL     1     -10.322   7.738  67.075  1.00  0.00    -0.310 NA 
HETATM   16  C   UNL     1      -9.689   8.368  66.029  1.00  0.00    -0.076 A  
HETATM   17  N   UNL     1      -9.174   9.529  66.387  1.00  0.00    -0.157 NA 
HETATM   18  C   UNL     1      -9.492   9.660  67.721  1.00  0.00    -0.127 A  
HETATM   19  C   UNL     1     -10.193   8.558  68.143  1.00  0.00    -0.208 A  
HETATM   20  N   UNL     1     -10.643   8.435  69.397  1.00  0.00    -0.219 NA 
HETATM   21  C   UNL     1     -10.393   9.484  70.248  1.00  0.00    -0.269 C  
HETATM   22  N   UNL     1     -10.933   9.319  71.480  1.00  0.00    -0.360 NA 
HETATM   23  N   UNL     1      -9.742  10.572  69.955  1.00  0.00    -0.409 N  
HETATM   24  H2  UNL     1     -11.473   8.497  71.749  1.00  0.00     0.000 HD 
HETATM   25  H1  UNL     1     -10.747  10.098  72.112  1.00  0.00     0.000 HD 
HETATM   26  H   UNL     1      -9.612  11.294  70.664  1.00  0.00     0.000 HD 
HETATM   27  C   UNL     1      -9.220  10.754  68.668  1.00  0.00    -0.184 C  
HETATM   28  O   UNL     1      -8.589  11.754  68.350  1.00  0.00    -0.160 OA 
ENDBRANCH  14  15
ENDBRANCH  13  14
ENDBRANCH  12  13
BRANCH  12  29
HETATM   29  C   UNL     1      -8.785   3.732  66.181  1.00  0.00    -0.117 C  
HETATM   30  O   UNL     1      -8.403   4.139  64.865  1.00  0.00    -0.103 OA 
HETATM   31  H   UNL     1      -8.102   3.383  64.376  1.00  0.00     0.000 HD 
ENDBRANCH  12  29
ENDBRANCH  11  12
ENDBRANCH  10  11
ENDBRANCH   8  10
ENDBRANCH   4   8
TORSDOF 8
ENDMDL
MODEL      419
REMARK 921   NORMALIZED FREE ENERGY PREDICTED BY IDOCK:   -1.77 KCAL/MOL
REMARK 922        TOTAL FREE ENERGY PREDICTED BY IDOCK:   -3.81 KCAL/MOL
REMARK 923 INTER-LIGAND FREE ENERGY PREDICTED BY IDOCK:   -3.92 KCAL/MOL
REMARK 924 INTRA-LIGAND FREE ENERGY PREDICTED BY IDOCK:    0.11 KCAL/MOL
REMARK 927      BINDING AFFINITY PREDICTED BY RF-SCORE:    0.00 PKD
ROOT
HETATM    1  C   UNL     1      -6.479   5.597  69.138  1.00  0.00    -0.042 C  
HETATM    2  C   UNL     1      -7.412   6.407  70.046  1.00  0.00    -0.091 C  
HETATM    3  C   UNL     1      -6.688   7.661  70.547  1.00  0.00    -0.042 C  
HETATM    4  C   UNL     1      -7.997   5.573  71.214  1.00  0.00    -0.111 C  
HETATM    5  N   UNL     1      -6.935   5.016  72.082  1.00  0.00    -0.064 NA 
HETATM    6  H1  UNL     1      -7.320   4.468  72.850  1.00  0.00     0.000 HD 
HETATM    7  H2  UNL     1      -6.314   5.749  72.425  1.00  0.00     0.000 HD 
ENDROOT
BRANCH   4   8
HETATM    8  C   UNL     1      -8.930   4.463  70.688  1.00  0.00    -0.107 C  
HETATM    9  O   UNL     1      -9.751   3.864  71.372  1.00  0.00    -0.159 OA 
BRANCH   8  10
HETATM   10  O   UNL     1      -8.678   4.174  69.376  1.00  0.00    -0.078 OA 
BRANCH  10  11
HETATM   11  C   UNL     1      -9.808   4.226  68.487  1.00  0.00    -0.044 C  
BRANCH  11  12
HETATM   12  C   UNL     1      -9.483   5.118  67.278  1.00  0.00    -0.131 C  
BRANCH  12  13
HETATM   13  O   UNL     1     -10.399   6.227  67.129  1.00  0.00    -0.171 OA 
BRANCH  13  14
HETATM   14  C   UNL     1     -10.414   7.096  68.260  1.00  0.00    -0.198 C  
BRANCH  14  15
HETATM   15  N   UNL     1     -10.390   8.467  67.803  1.00  0.00    -0.231 NA 
HETATM   16  C   UNL     1     -10.776   9.555  68.550  1.00  0.00    -0.182 A  
HETATM   17  N   UNL     1     -10.529  10.695  67.932  1.00  0.00    -0.194 NA 
HETATM   18  C   UNL     1      -9.954  10.330  66.735  1.00  0.00    -0.209 A  
HETATM   19  C   UNL     1      -9.873   8.963  66.655  1.00  0.00    -0.262 A  
HETATM   20  N   UNL     1      -9.335   8.339  65.600  1.00  0.00    -0.034 NA 
HETATM   21  C   UNL     1      -8.837   9.137  64.600  1.00  0.00    -0.142 C  
HETATM   22  N   UNL     1      -8.250   8.441  63.596  1.00  0.00    -0.295 NA 
HETATM   23  N   UNL     1      -8.860  10.438  64.572  1.00  0.00    -0.196 N  
HETATM   24  H2  UNL     1      -8.185   7.423  63.585  1.00  0.00     0.000 HD 
HETATM   25  H1  UNL     1      -7.881   9.033  62.852  1.00  0.00     0.000 HD 
HETATM   26  H   UNL     1      -8.460  10.937  63.778  1.00  0.00     0.000 HD 
HETATM   27  C   UNL     1      -9.433  11.154  65.631  1.00  0.00    -0.224 C  
HETATM   28  O   UNL     1      -9.490  12.377  65.644  1.00  0.00    -0.168 OA 
ENDBRANCH  14  15
ENDBRANCH  13  14
ENDBRANCH  12  13
BRANCH  12  29
HETATM   29  C   UNL     1      -9.539   4.297  65.981  1.00  0.00    -0.192 C  
HETATM   30  O   UNL     1      -9.850   5.161  64.886  1.00  0.00    -0.355 OA 
HETATM   31  H   UNL     1      -9.885   4.653  64.084  1.00  0.00     0.000 HD 
ENDBRANCH  12  29
ENDBRANCH  11  12
ENDBRANCH  10  11
ENDBRANCH   8  10
ENDBRANCH   4   8
TORSDOF 8
ENDMDL
MODEL      420
REMARK 921   NORMALIZED FREE ENERGY PREDICTED BY IDOCK:   -1.48 KCAL/MOL
REMARK 922        TOTAL FREE ENERGY PREDICTED BY IDOCK:   -3.38 KCAL/MOL
REMARK 923 INTER-LIGAND FREE ENERGY PREDICTED BY IDOCK:   -2.81 KCAL/MOL
REMARK 924 INTRA-LIGAND FREE ENERGY PREDICTED BY IDOCK:   -0.57 KCAL/MOL
REMARK 927      BINDING AFFINITY PREDICTED BY RF-SCORE:    0.00 PKD
ROOT
HETATM    1  C   UNL     1      -6.572   6.202  69.479  1.00  0.00    -0.044 C  
HETATM    2  C   UNL     1      -6.683   7.480  70.319  1.00  0.00    -0.047 C  
HETATM    3  C   UNL     1      -5.947   7.292  71.649  1.00  0.00    -0.037 C  
HETATM    4  C   UNL     1      -8.147   7.943  70.530  1.00  0.00    -0.109 C  
HETATM    5  N   UNL     1      -8.959   6.912  71.214  1.00  0.00    -0.142 NA 
HETATM    6  H1  UNL     1      -9.923   7.217  71.353  1.00  0.00     0.000 HD 
HETATM    7  H2  UNL     1      -8.531   6.625  72.094  1.00  0.00     0.000 HD 
ENDROOT
BRANCH   4   8
HETATM    8  C   UNL     1      -8.791   8.369  69.194  1.00  0.00    -0.142 C  
HETATM    9  O   UNL     1      -9.998   8.423  68.992  1.00  0.00    -0.179 OA 
BRANCH   8  10
HETATM   10  O   UNL     1      -7.847   8.609  68.235  1.00  0.00    -0.100 OA 
BRANCH  10  11
HETATM   11  C   UNL     1      -7.635   9.988  67.886  1.00  0.00    -0.089 C  
BRANCH  11  12
HETATM   12  C   UNL     1      -6.133  10.315  67.930  1.00  0.00    -0.051 C  
BRANCH  12  13
HETATM   13  O   UNL     1      -5.857  11.655  68.396  1.00  0.00    -0.046 OA 
BRANCH  13  14
HETATM   14  C   UNL     1      -6.990  12.285  68.991  1.00  0.00    -0.078 C  
BRANCH  14  15
HETATM   15  N   UNL     1      -6.546  13.414  69.777  1.00  0.00    -0.034 NA 
HETATM   16  C   UNL     1      -5.894  13.328  70.984  1.00  0.00    -0.051 A  
HETATM   17  N   UNL     1      -5.490  14.508  71.416  1.00  0.00    -0.155 NA 
HETATM   18  C   UNL     1      -5.892  15.396  70.443  1.00  0.00    -0.106 A  
HETATM   19  C   UNL     1      -6.543  14.724  69.439  1.00  0.00    -0.142 A  
HETATM   20  N   UNL     1      -7.023  15.347  68.356  1.00  0.00    -0.108 NA 
HETATM   21  C   UNL     1      -6.810  16.701  68.279  1.00  0.00    -0.147 C  
HETATM   22  N   UNL     1      -7.264  17.254  67.127  1.00  0.00    -0.162 NA 
HETATM   23  N   UNL     1      -6.206  17.436  69.167  1.00  0.00    -0.215 N  
HETATM   24  H2  UNL     1      -7.720  16.716  66.390  1.00  0.00     0.000 HD 
HETATM   25  H1  UNL     1      -7.106  18.260  67.069  1.00  0.00     0.000 HD 
HETATM   26  H   UNL     1      -6.099  18.438  69.011  1.00  0.00     0.000 HD 
HETATM   27  C   UNL     1      -5.704  16.853  70.337  1.00  0.00    -0.114 C  
HETATM   28  O   UNL     1      -5.142  17.505  71.209  1.00  0.00    -0.425 OA 
ENDBRANCH  14  15
ENDBRANCH  13  14
ENDBRANCH  12  13
BRANCH  12  29
HETATM   29  C   UNL     1      -5.518  10.179  66.528  1.00  0.00    -0.046 C  
HETATM   30  O   UNL     1      -5.580   8.813  66.113  1.00  0.00    -0.040 OA 
HETATM   31  H   UNL     1      -5.200   8.729  65.247  1.00  0.00     0.000 HD 
ENDBRANCH  12  29
ENDBRANCH  11  12
ENDBRANCH  10  11
ENDBRANCH   8  10
ENDBRANCH   4   8
TORSDOF 8
ENDMDL
MODEL      421
REMARK 921   NORMALIZED FREE ENERGY PREDICTED BY IDOCK:   -1.11 KCAL/MOL
REMARK 922        TOTAL FREE ENERGY PREDICTED BY IDOCK:   -2.84 KCAL/MOL
REMARK 923 INTER-LIGAND FREE ENERGY PREDICTED BY IDOCK:   -2.91 KCAL/MOL
REMARK 924 INTRA-LIGAND FREE ENERGY PREDICTED BY IDOCK:    0.07 KCAL/MOL
REMARK 927      BINDING AFFINITY PREDICTED BY RF-SCORE:    0.00 PKD
ROOT
HETATM    1  C   UNL     1     -11.688   6.558  69.364  1.00  0.00    -0.088 C  
HETATM    2  C   UNL     1     -11.311   7.351  70.622  1.00  0.00    -0.304 C  
HETATM    3  C   UNL     1     -12.555   7.575  71.487  1.00  0.00    -0.385 C  
HETATM    4  C   UNL     1     -10.581   8.680  70.306  1.00  0.00    -0.223 C  
HETATM    5  N   UNL     1     -11.407   9.579  69.468  1.00  0.00    -0.438 NA 
HETATM    6  H1  UNL     1     -10.926  10.454  69.260  1.00  0.00     0.000 HD 
HETATM    7  H2  UNL     1     -12.318   9.749  69.894  1.00  0.00     0.000 HD 
ENDROOT
BRANCH   4   8
HETATM    8  C   UNL     1      -9.206   8.416  69.657  1.00  0.00    -0.160 C  
HETATM    9  O   UNL     1      -8.187   8.142  70.278  1.00  0.00    -0.116 OA 
BRANCH   8  10
HETATM   10  O   UNL     1      -9.246   8.598  68.303  1.00  0.00    -0.138 OA 
BRANCH  10  11
HETATM   11  C   UNL     1      -8.834   7.477  67.500  1.00  0.00    -0.127 C  
BRANCH  11  12
HETATM   12  C   UNL     1      -8.290   6.358  68.402  1.00  0.00    -0.116 C  
BRANCH  12  13
HETATM   13  O   UNL     1      -6.891   6.072  68.171  1.00  0.00    -0.065 OA 
BRANCH  13  14
HETATM   14  C   UNL     1      -6.095   6.187  69.349  1.00  0.00    -0.029 C  
BRANCH  14  15
HETATM   15  N   UNL     1      -6.059   4.907  70.020  1.00  0.00    -0.021 NA 
HETATM   16  C   UNL     1      -5.144   3.911  69.772  1.00  0.00    -0.004 A  
HETATM   17  N   UNL     1      -5.262   2.905  70.618  1.00  0.00    -0.004 NA 
HETATM   18  C   UNL     1      -6.296   3.266  71.454  1.00  0.00    -0.018 A  
HETATM   19  C   UNL     1      -6.787   4.494  71.083  1.00  0.00    -0.035 A  
HETATM   20  N   UNL     1      -7.786   5.092  71.741  1.00  0.00    -0.106 NA 
HETATM   21  C   UNL     1      -8.289   4.429  72.834  1.00  0.00    -0.099 C  
HETATM   22  N   UNL     1      -9.253   5.122  73.489  1.00  0.00    -0.130 NA 
HETATM   23  N   UNL     1      -7.901   3.267  73.273  1.00  0.00    -0.067 N  
HETATM   24  H2  UNL     1      -9.573   6.046  73.199  1.00  0.00     0.000 HD 
HETATM   25  H1  UNL     1      -9.627   4.629  74.300  1.00  0.00     0.000 HD 
HETATM   26  H   UNL     1      -8.342   2.861  74.098  1.00  0.00     0.000 HD 
HETATM   27  C   UNL     1      -6.878   2.573  72.615  1.00  0.00    -0.023 C  
HETATM   28  O   UNL     1      -6.488   1.472  72.982  1.00  0.00    -0.012 OA 
ENDBRANCH  14  15
ENDBRANCH  13  14
ENDBRANCH  12  13
BRANCH  12  29
HETATM   29  C   UNL     1      -9.071   5.056  68.165  1.00  0.00    -0.115 C  
HETATM   30  O   UNL     1      -8.161   4.016  67.803  1.00  0.00    -0.089 OA 
HETATM   31  H   UNL     1      -8.644   3.211  67.656  1.00  0.00     0.000 HD 
ENDBRANCH  12  29
ENDBRANCH  11  12
ENDBRANCH  10  11
ENDBRANCH   8  10
ENDBRANCH   4   8
TORSDOF 8
ENDMDL
MODEL      422
REMARK 921   NORMALIZED FREE ENERGY PREDICTED BY IDOCK:   -1.09 KCAL/MOL
REMARK 922        TOTAL FREE ENERGY PREDICTED BY IDOCK:   -2.82 KCAL/MOL
REMARK 923 INTER-LIGAND FREE ENERGY PREDICTED BY IDOCK:   -2.63 KCAL/MOL
REMARK 924 INTRA-LIGAND FREE ENERGY PREDICTED BY IDOCK:   -0.19 KCAL/MOL
REMARK 927      BINDING AFFINITY PREDICTED BY RF-SCORE:    0.00 PKD
ROOT
HETATM    1  C   UNL     1     -10.795   9.378  71.558  1.00  0.00    -0.398 C  
HETATM    2  C   UNL     1     -12.096   8.642  71.213  1.00  0.00    -0.333 C  
HETATM    3  C   UNL     1     -13.295   9.565  71.457  1.00  0.00    -0.470 C  
HETATM    4  C   UNL     1     -12.246   7.292  71.960  1.00  0.00    -0.277 C  
HETATM    5  N   UNL     1     -12.233   7.469  73.429  1.00  0.00     0.295 NA 
HETATM    6  H1  UNL     1     -12.332   6.580  73.920  1.00  0.00     0.000 HD 
HETATM    7  H2  UNL     1     -12.942   8.138  73.729  1.00  0.00     0.000 HD 
ENDROOT
BRANCH   4   8
HETATM    8  C   UNL     1     -11.167   6.287  71.507  1.00  0.00    -0.290 C  
HETATM    9  O   UNL     1     -10.137   6.049  72.125  1.00  0.00    -0.179 OA 
BRANCH   8  10
HETATM   10  O   UNL     1     -11.466   5.743  70.289  1.00  0.00    -0.180 OA 
BRANCH  10  11
HETATM   11  C   UNL     1     -10.463   5.886  69.267  1.00  0.00    -0.274 C  
BRANCH  11  12
HETATM   12  C   UNL     1      -9.508   4.682  69.299  1.00  0.00    -0.162 C  
BRANCH  12  13
HETATM   13  O   UNL     1      -8.156   5.019  68.910  1.00  0.00    -0.083 OA 
BRANCH  13  14
HETATM   14  C   UNL     1      -7.252   5.062  70.012  1.00  0.00    -0.058 C  
BRANCH  14  15
HETATM   15  N   UNL     1      -7.252   6.396  70.571  1.00  0.00    -0.072 NA 
HETATM   16  C   UNL     1      -7.609   6.711  71.861  1.00  0.00    -0.096 A  
HETATM   17  N   UNL     1      -7.392   7.983  72.140  1.00  0.00    -0.083 NA 
HETATM   18  C   UNL     1      -6.866   8.513  70.982  1.00  0.00    -0.059 A  
HETATM   19  C   UNL     1      -6.785   7.539  70.019  1.00  0.00    -0.046 A  
HETATM   20  N   UNL     1      -6.290   7.780  68.799  1.00  0.00    -0.042 NA 
HETATM   21  C   UNL     1      -5.837   9.054  68.558  1.00  0.00    -0.042 C  
HETATM   22  N   UNL     1      -5.291   9.208  67.327  1.00  0.00    -0.037 NA 
HETATM   23  N   UNL     1      -5.865  10.050  69.395  1.00  0.00    -0.037 N  
HETATM   24  H2  UNL     1      -5.223   8.452  66.646  1.00  0.00     0.000 HD 
HETATM   25  H1  UNL     1      -4.955  10.154  67.147  1.00  0.00     0.000 HD 
HETATM   26  H   UNL     1      -5.500  10.960  69.114  1.00  0.00     0.000 HD 
HETATM   27  C   UNL     1      -6.395   9.875  70.679  1.00  0.00    -0.104 C  
HETATM   28  O   UNL     1      -6.455  10.785  71.496  1.00  0.00     0.261 OA 
ENDBRANCH  14  15
ENDBRANCH  13  14
ENDBRANCH  12  13
BRANCH  12  29
HETATM   29  C   UNL     1     -10.002   3.585  68.343  1.00  0.00     0.375 C  
HETATM   30  O   UNL     1     -10.161   4.134  67.033  1.00  0.00    -0.239 OA 
HETATM   31  H   UNL     1     -10.466   3.456  66.442  1.00  0.00     0.000 HD 
ENDBRANCH  12  29
ENDBRANCH  11  12
ENDBRANCH  10  11
ENDBRANCH   8  10
ENDBRANCH   4   8
TORSDOF 8
ENDMDL
MODEL      423
REMARK 921   NORMALIZED FREE ENERGY PREDICTED BY IDOCK:   -0.89 KCAL/MOL
REMARK 922        TOTAL FREE ENERGY PREDICTED BY IDOCK:   -2.52 KCAL/MOL
REMARK 923 INTER-LIGAND FREE ENERGY PREDICTED BY IDOCK:   -3.61 KCAL/MOL
REMARK 924 INTRA-LIGAND FREE ENERGY PREDICTED BY IDOCK:    1.10 KCAL/MOL
REMARK 927      BINDING AFFINITY PREDICTED BY RF-SCORE:    0.00 PKD
ROOT
HETATM    1  C   UNL     1     -10.544   5.658  73.555  1.00  0.00    -0.300 C  
HETATM    2  C   UNL     1     -10.398   4.657  72.402  1.00  0.00    -0.262 C  
HETATM    3  C   UNL     1     -10.117   3.259  72.961  1.00  0.00    -0.218 C  
HETATM    4  C   UNL     1      -9.337   5.085  71.357  1.00  0.00    -0.149 C  
HETATM    5  N   UNL     1      -7.995   5.236  71.962  1.00  0.00    -0.111 NA 
HETATM    6  H1  UNL     1      -7.297   5.517  71.274  1.00  0.00     0.000 HD 
HETATM    7  H2  UNL     1      -7.711   4.387  72.452  1.00  0.00     0.000 HD 
ENDROOT
BRANCH   4   8
HETATM    8  C   UNL     1      -9.769   6.372  70.625  1.00  0.00    -0.179 C  
HETATM    9  O   UNL     1     -10.760   7.034  70.911  1.00  0.00    -0.229 OA 
BRANCH   8  10
HETATM   10  O   UNL     1      -8.949   6.648  69.567  1.00  0.00    -0.138 OA 
BRANCH  10  11
HETATM   11  C   UNL     1      -9.510   6.439  68.258  1.00  0.00    -0.121 C  
BRANCH  11  12
HETATM   12  C   UNL     1      -8.405   6.015  67.277  1.00  0.00    -0.105 C  
BRANCH  12  13
HETATM   13  O   UNL     1      -7.396   7.033  67.084  1.00  0.00    -0.086 OA 
BRANCH  13  14
HETATM   14  C   UNL     1      -7.785   8.034  66.146  1.00  0.00    -0.087 C  
BRANCH  14  15
HETATM   15  N   UNL     1      -8.765   8.902  66.760  1.00  0.00    -0.118 NA 
HETATM   16  C   UNL     1     -10.127   8.736  66.678  1.00  0.00    -0.288 A  
HETATM   17  N   UNL     1     -10.780   9.594  67.439  1.00  0.00    -0.272 NA 
HETATM   18  C   UNL     1      -9.797  10.346  68.045  1.00  0.00    -0.150 A  
HETATM   19  C   UNL     1      -8.561   9.923  67.624  1.00  0.00    -0.122 A  
HETATM   20  N   UNL     1      -7.426  10.471  68.073  1.00  0.00    -0.089 NA 
HETATM   21  C   UNL     1      -7.552  11.472  69.005  1.00  0.00    -0.058 C  
HETATM   22  N   UNL     1      -6.363  11.936  69.462  1.00  0.00    -0.113 NA 
HETATM   23  N   UNL     1      -8.668  11.950  69.473  1.00  0.00     0.407 N  
HETATM   24  H2  UNL     1      -5.463  11.576  69.145  1.00  0.00     0.000 HD 
HETATM   25  H1  UNL     1      -6.456  12.680  70.154  1.00  0.00     0.000 HD 
HETATM   26  H   UNL     1      -8.651  12.697  70.168  1.00  0.00     0.000 HD 
HETATM   27  C   UNL     1      -9.893  11.440  69.026  1.00  0.00    -0.037 C  
HETATM   28  O   UNL     1     -10.970  11.866  69.427  1.00  0.00    -0.195 OA 
ENDBRANCH  14  15
ENDBRANCH  13  14
ENDBRANCH  12  13
BRANCH  12  29
HETATM   29  C   UNL     1      -9.010   5.699  65.900  1.00  0.00    -0.155 C  
HETATM   30  O   UNL     1     -10.429   5.589  66.020  1.00  0.00    -0.439 OA 
HETATM   31  H   UNL     1     -10.803   5.393  65.169  1.00  0.00     0.000 HD 
ENDBRANCH  12  29
ENDBRANCH  11  12
ENDBRANCH  10  11
ENDBRANCH   8  10
ENDBRANCH   4   8
TORSDOF 8
ENDMDL
MODEL      424
REMARK 921   NORMALIZED FREE ENERGY PREDICTED BY IDOCK:   -0.81 KCAL/MOL
REMARK 922        TOTAL FREE ENERGY PREDICTED BY IDOCK:   -2.41 KCAL/MOL
REMARK 923 INTER-LIGAND FREE ENERGY PREDICTED BY IDOCK:   -2.77 KCAL/MOL
REMARK 924 INTRA-LIGAND FREE ENERGY PREDICTED BY IDOCK:    0.36 KCAL/MOL
REMARK 927      BINDING AFFINITY PREDICTED BY RF-SCORE:    0.00 PKD
ROOT
HETATM    1  C   UNL     1     -10.389  10.993  67.754  1.00  0.00    -0.218 C  
HETATM    2  C   UNL     1     -11.037  10.015  68.742  1.00  0.00    -0.219 C  
HETATM    3  C   UNL     1     -12.136  10.731  69.534  1.00  0.00    -0.344 C  
HETATM    4  C   UNL     1     -10.011   9.323  69.674  1.00  0.00    -0.191 C  
HETATM    5  N   UNL     1      -9.250  10.302  70.482  1.00  0.00    -0.159 NA 
HETATM    6  H1  UNL     1      -8.575   9.846  71.095  1.00  0.00     0.000 HD 
HETATM    7  H2  UNL     1      -9.874  10.913  71.008  1.00  0.00     0.000 HD 
ENDROOT
BRANCH   4   8
HETATM    8  C   UNL     1      -9.066   8.404  68.871  1.00  0.00    -0.147 C  
HETATM    9  O   UNL     1      -7.866   8.602  68.723  1.00  0.00    -0.102 OA 
BRANCH   8  10
HETATM   10  O   UNL     1      -9.746   7.376  68.281  1.00  0.00    -0.148 OA 
BRANCH  10  11
HETATM   11  C   UNL     1     -10.244   6.354  69.163  1.00  0.00    -0.182 C  
BRANCH  11  12
HETATM   12  C   UNL     1      -9.108   5.390  69.541  1.00  0.00    -0.112 C  
BRANCH  12  13
HETATM   13  O   UNL     1      -7.897   5.614  68.783  1.00  0.00    -0.093 OA 
BRANCH  13  14
HETATM   14  C   UNL     1      -7.500   4.478  68.017  1.00  0.00    -0.069 C  
BRANCH  14  15
HETATM   15  N   UNL     1      -7.893   4.676  66.640  1.00  0.00    -0.098 NA 
HETATM   16  C   UNL     1      -8.779   3.882  65.950  1.00  0.00    -0.114 A  
HETATM   17  N   UNL     1      -9.054   4.367  64.754  1.00  0.00    -0.148 NA 
HETATM   18  C   UNL     1      -8.318   5.529  64.667  1.00  0.00    -0.131 A  
HETATM   19  C   UNL     1      -7.603   5.715  65.824  1.00  0.00    -0.086 A  
HETATM   20  N   UNL     1      -6.815   6.780  66.014  1.00  0.00    -0.062 NA 
HETATM   21  C   UNL     1      -6.773   7.704  64.999  1.00  0.00    -0.047 C  
HETATM   22  N   UNL     1      -6.008   8.786  65.287  1.00  0.00    -0.048 NA 
HETATM   23  N   UNL     1      -7.408   7.630  63.866  1.00  0.00    -0.085 N  
HETATM   24  H2  UNL     1      -5.513   8.902  66.170  1.00  0.00     0.000 HD 
HETATM   25  H1  UNL     1      -5.977   9.473  64.533  1.00  0.00     0.000 HD 
HETATM   26  H   UNL     1      -7.308   8.375  63.177  1.00  0.00     0.000 HD 
HETATM   27  C   UNL     1      -8.227   6.528  63.590  1.00  0.00     0.068 C  
HETATM   28  O   UNL     1      -8.834   6.407  62.532  1.00  0.00     0.182 OA 
ENDBRANCH  14  15
ENDBRANCH  13  14
ENDBRANCH  12  13
BRANCH  12  29
HETATM   29  C   UNL     1      -9.542   3.936  69.299  1.00  0.00    -0.162 C  
HETATM   30  O   UNL     1      -8.576   3.051  69.870  1.00  0.00    -0.054 OA 
HETATM   31  H   UNL     1      -8.844   2.153  69.719  1.00  0.00     0.000 HD 
ENDBRANCH  12  29
ENDBRANCH  11  12
ENDBRANCH  10  11
ENDBRANCH   8  10
ENDBRANCH   4   8
TORSDOF 8
ENDMDL
MODEL      425
REMARK 921   NORMALIZED FREE ENERGY PREDICTED BY IDOCK:   -0.80 KCAL/MOL
REMARK 922        TOTAL FREE ENERGY PREDICTED BY IDOCK:   -2.39 KCAL/MOL
REMARK 923 INTER-LIGAND FREE ENERGY PREDICTED BY IDOCK:   -1.30 KCAL/MOL
REMARK 924 INTRA-LIGAND FREE ENERGY PREDICTED BY IDOCK:   -1.09 KCAL/MOL
REMARK 927      BINDING AFFINITY PREDICTED BY RF-SCORE:    0.00 PKD
ROOT
HETATM    1  C   UNL     1      -7.702   7.717  70.961  1.00  0.00    -0.084 C  
HETATM    2  C   UNL     1      -6.583   6.696  70.723  1.00  0.00    -0.053 C  
HETATM    3  C   UNL     1      -5.683   6.614  71.960  1.00  0.00    -0.037 C  
HETATM    4  C   UNL     1      -5.768   6.978  69.435  1.00  0.00    -0.015 C  
HETATM    5  N   UNL     1      -5.128   8.312  69.466  1.00  0.00    -0.029 NA 
HETATM    6  H1  UNL     1      -4.592   8.496  68.619  1.00  0.00     0.000 HD 
HETATM    7  H2  UNL     1      -4.553   8.427  70.300  1.00  0.00     0.000 HD 
ENDROOT
BRANCH   4   8
HETATM    8  C   UNL     1      -6.646   6.807  68.177  1.00  0.00    -0.058 C  
HETATM    9  O   UNL     1      -6.602   7.540  67.196  1.00  0.00    -0.058 OA 
BRANCH   8  10
HETATM   10  O   UNL     1      -7.533   5.778  68.319  1.00  0.00    -0.078 OA 
BRANCH  10  11
HETATM   11  C   UNL     1      -7.259   4.593  67.549  1.00  0.00    -0.069 C  
BRANCH  11  12
HETATM   12  C   UNL     1      -8.343   4.402  66.477  1.00  0.00    -0.105 C  
BRANCH  12  13
HETATM   13  O   UNL     1      -9.177   5.570  66.297  1.00  0.00    -0.146 OA 
BRANCH  13  14
HETATM   14  C   UNL     1     -10.476   5.422  66.866  1.00  0.00    -0.277 C  
BRANCH  14  15
HETATM   15  N   UNL     1     -10.806   6.617  67.609  1.00  0.00    -0.294 NA 
HETATM   16  C   UNL     1     -11.155   7.824  67.049  1.00  0.00     0.350 A  
HETATM   17  N   UNL     1     -11.531   8.704  67.958  1.00  0.00     0.953 NA 
HETATM   18  C   UNL     1     -11.426   8.037  69.159  1.00  0.00     0.714 A  
HETATM   19  C   UNL     1     -10.977   6.758  68.944  1.00  0.00    -0.218 A  
HETATM   20  N   UNL     1     -10.803   5.884  69.941  1.00  0.00    -0.345 NA 
HETATM   21  C   UNL     1     -11.122   6.319  71.204  1.00  0.00    -0.298 C  
HETATM   22  N   UNL     1     -10.983   5.363  72.155  1.00  0.00    -0.228 NA 
HETATM   23  N   UNL     1     -11.554   7.505  71.522  1.00  0.00    -0.264 N  
HETATM   24  H2  UNL     1     -10.672   4.413  71.953  1.00  0.00     0.000 HD 
HETATM   25  H1  UNL     1     -11.219   5.686  73.094  1.00  0.00     0.000 HD 
HETATM   26  H   UNL     1     -11.764   7.726  72.495  1.00  0.00     0.000 HD 
HETATM   27  C   UNL     1     -11.733   8.477  70.530  1.00  0.00    -0.072 C  
HETATM   28  O   UNL     1     -12.124   9.610  70.781  1.00  0.00    -0.279 OA 
ENDBRANCH  14  15
ENDBRANCH  13  14
ENDBRANCH  12  13
BRANCH  12  29
HETATM   29  C   UNL     1      -9.265   3.232  66.854  1.00  0.00    -0.174 C  
HETATM   30  O   UNL     1      -9.125   2.949  68.248  1.00  0.00    -0.133 OA 
HETATM   31  H   UNL     1      -9.694   2.225  68.482  1.00  0.00     0.000 HD 
ENDBRANCH  12  29
ENDBRANCH  11  12
ENDBRANCH  10  11
ENDBRANCH   8  10
ENDBRANCH   4   8
TORSDOF 8
ENDMDL
MODEL      426
REMARK 921   NORMALIZED FREE ENERGY PREDICTED BY IDOCK:   -0.14 KCAL/MOL
REMARK 922        TOTAL FREE ENERGY PREDICTED BY IDOCK:   -1.42 KCAL/MOL
REMARK 923 INTER-LIGAND FREE ENERGY PREDICTED BY IDOCK:   -2.63 KCAL/MOL
REMARK 924 INTRA-LIGAND FREE ENERGY PREDICTED BY IDOCK:    1.21 KCAL/MOL
REMARK 927      BINDING AFFINITY PREDICTED BY RF-SCORE:    0.00 PKD
ROOT
HETATM    1  C   UNL     1     -10.549  11.052  67.721  1.00  0.00    -0.250 C  
HETATM    2  C   UNL     1     -11.252   9.976  68.558  1.00  0.00    -0.180 C  
HETATM    3  C   UNL     1     -12.487  10.573  69.239  1.00  0.00     0.275 C  
HETATM    4  C   UNL     1     -10.309   9.285  69.575  1.00  0.00    -0.216 C  
HETATM    5  N   UNL     1      -9.723  10.253  70.531  1.00  0.00    -0.194 NA 
HETATM    6  H1  UNL     1      -9.103   9.798  71.200  1.00  0.00     0.000 HD 
HETATM    7  H2  UNL     1     -10.448  10.791  71.004  1.00  0.00     0.000 HD 
ENDROOT
BRANCH   4   8
HETATM    8  C   UNL     1      -9.211   8.478  68.852  1.00  0.00    -0.146 C  
HETATM    9  O   UNL     1      -8.045   8.405  69.223  1.00  0.00    -0.111 OA 
BRANCH   8  10
HETATM   10  O   UNL     1      -9.680   7.910  67.701  1.00  0.00    -0.146 OA 
BRANCH  10  11
HETATM   11  C   UNL     1     -10.256   6.597  67.830  1.00  0.00    -0.171 C  
BRANCH  11  12
HETATM   12  C   UNL     1      -9.145   5.535  67.826  1.00  0.00    -0.107 C  
BRANCH  12  13
HETATM   13  O   UNL     1      -7.824   6.095  67.650  1.00  0.00    -0.102 OA 
BRANCH  13  14
HETATM   14  C   UNL     1      -7.173   5.632  66.468  1.00  0.00    -0.077 C  
BRANCH  14  15
HETATM   15  N   UNL     1      -7.413   6.574  65.397  1.00  0.00    -0.077 NA 
HETATM   16  C   UNL     1      -8.268   6.367  64.340  1.00  0.00    -0.019 A  
HETATM   17  N   UNL     1      -8.392   7.441  63.583  1.00  0.00     0.091 NA 
HETATM   18  C   UNL     1      -7.586   8.387  64.179  1.00  0.00    -0.125 A  
HETATM   19  C   UNL     1      -6.983   7.852  65.290  1.00  0.00    -0.059 A  
HETATM   20  N   UNL     1      -6.160   8.564  66.068  1.00  0.00    -0.048 NA 
HETATM   21  C   UNL     1      -5.963   9.877  65.719  1.00  0.00    -0.067 C  
HETATM   22  N   UNL     1      -5.171  10.553  66.587  1.00  0.00    -0.042 NA 
HETATM   23  N   UNL     1      -6.482  10.485  64.692  1.00  0.00    -0.342 N  
HETATM   24  H2  UNL     1      -4.762  10.128  67.419  1.00  0.00     0.000 HD 
HETATM   25  H1  UNL     1      -5.024  11.529  66.328  1.00  0.00     0.000 HD 
HETATM   26  H   UNL     1      -6.271  11.468  64.522  1.00  0.00     0.000 HD 
HETATM   27  C   UNL     1      -7.331   9.792  63.820  1.00  0.00    -0.129 C  
HETATM   28  O   UNL     1      -7.832  10.317  62.834  1.00  0.00    -0.145 OA 
ENDBRANCH  14  15
ENDBRANCH  13  14
ENDBRANCH  12  13
BRANCH  12  29
HETATM   29  C   UNL     1      -9.375   4.530  66.686  1.00  0.00    -0.149 C  
HETATM   30  O   UNL     1      -8.345   3.539  66.713  1.00  0.00    -0.097 OA 
HETATM   31  H   UNL     1      -8.487   2.918  66.008  1.00  0.00     0.000 HD 
ENDBRANCH  12  29
ENDBRANCH  11  12
ENDBRANCH  10  11
ENDBRANCH   8  10
ENDBRANCH   4   8
TORSDOF 8
ENDMDL
MODEL      427
REMARK 921   NORMALIZED FREE ENERGY PREDICTED BY IDOCK:    3.16 KCAL/MOL
REMARK 922        TOTAL FREE ENERGY PREDICTED BY IDOCK:    3.42 KCAL/MOL
REMARK 923 INTER-LIGAND FREE ENERGY PREDICTED BY IDOCK:   -0.66 KCAL/MOL
REMARK 924 INTRA-LIGAND FREE ENERGY PREDICTED BY IDOCK:    4.07 KCAL/MOL
REMARK 927      BINDING AFFINITY PREDICTED BY RF-SCORE:    0.00 PKD
ROOT
HETATM    1  C   UNL     1     -11.301   6.138  66.582  1.00  0.00     0.238 C  
HETATM    2  C   UNL     1     -10.431   7.003  67.503  1.00  0.00    -0.320 C  
HETATM    3  C   UNL     1     -11.311   7.689  68.554  1.00  0.00     0.603 C  
HETATM    4  C   UNL     1      -9.554   8.021  66.731  1.00  0.00    -0.216 C  
HETATM    5  N   UNL     1     -10.372   8.951  65.920  1.00  0.00    -0.152 NA 
HETATM    6  H1  UNL     1      -9.794   9.621  65.412  1.00  0.00     0.000 HD 
HETATM    7  H2  UNL     1     -11.072   9.424  66.491  1.00  0.00     0.000 HD 
ENDROOT
BRANCH   4   8
HETATM    8  C   UNL     1      -8.502   7.299  65.864  1.00  0.00    -0.144 C  
HETATM    9  O   UNL     1      -7.302   7.546  65.880  1.00  0.00    -0.071 OA 
BRANCH   8  10
HETATM   10  O   UNL     1      -9.081   6.394  65.019  1.00  0.00     0.232 OA 
BRANCH  10  11
HETATM   11  C   UNL     1      -9.302   5.077  65.553  1.00  0.00    -0.140 C  
BRANCH  11  12
HETATM   12  C   UNL     1      -8.343   4.820  66.727  1.00  0.00    -0.106 C  
BRANCH  12  13
HETATM   13  O   UNL     1      -7.495   3.666  66.526  1.00  0.00    -0.075 OA 
BRANCH  13  14
HETATM   14  C   UNL     1      -6.160   3.867  66.985  1.00  0.00    -0.025 C  
BRANCH  14  15
HETATM   15  N   UNL     1      -6.025   3.302  68.309  1.00  0.00    -0.023 NA 
HETATM   16  C   UNL     1      -5.849   1.966  68.583  1.00  0.00    -0.023 A  
HETATM   17  N   UNL     1      -5.625   1.746  69.865  1.00  0.00    -0.016 NA 
HETATM   18  C   UNL     1      -5.653   2.995  70.446  1.00  0.00    -0.016 A  
HETATM   19  C   UNL     1      -5.903   3.949  69.491  1.00  0.00    -0.018 A  
HETATM   20  N   UNL     1      -5.964   5.253  69.782  1.00  0.00    -0.017 NA 
HETATM   21  C   UNL     1      -5.737   5.604  71.090  1.00  0.00    -0.017 C  
HETATM   22  N   UNL     1      -5.751   6.943  71.299  1.00  0.00    -0.035 NA 
HETATM   23  N   UNL     1      -5.492   4.788  72.073  1.00  0.00    -0.004 N  
HETATM   24  H2  UNL     1      -5.913   7.624  70.557  1.00  0.00     0.000 HD 
HETATM   25  H1  UNL     1      -5.583   7.205  72.271  1.00  0.00     0.000 HD 
HETATM   26  H   UNL     1      -5.336   5.154  73.012  1.00  0.00     0.000 HD 
HETATM   27  C   UNL     1      -5.441   3.407  71.844  1.00  0.00    -0.007 C  
HETATM   28  O   UNL     1      -5.227   2.599  72.739  1.00  0.00     0.000 OA 
ENDBRANCH  14  15
ENDBRANCH  13  14
ENDBRANCH  12  13
BRANCH  12  29
HETATM   29  C   UNL     1      -9.137   4.588  68.022  1.00  0.00    -0.123 C  
HETATM   30  O   UNL     1      -9.609   3.240  68.054  1.00  0.00    -0.181 OA 
HETATM   31  H   UNL     1     -10.100   3.097  68.854  1.00  0.00     0.000 HD 
ENDBRANCH  12  29
ENDBRANCH  11  12
ENDBRANCH  10  11
ENDBRANCH   8  10
ENDBRANCH   4   8
TORSDOF 8
ENDMDL
MODEL      428
REMARK 921   NORMALIZED FREE ENERGY PREDICTED BY IDOCK:   13.59 KCAL/MOL
REMARK 922        TOTAL FREE ENERGY PREDICTED BY IDOCK:   18.73 KCAL/MOL
REMARK 923 INTER-LIGAND FREE ENERGY PREDICTED BY IDOCK:   15.42 KCAL/MOL
REMARK 924 INTRA-LIGAND FREE ENERGY PREDICTED BY IDOCK:    3.31 KCAL/MOL
REMARK 927      BINDING AFFINITY PREDICTED BY RF-SCORE:    0.00 PKD
ROOT
HETATM    1  C   UNL     1     -11.079  14.924  71.609  1.00  0.00     0.082 C  
HETATM    2  C   UNL     1     -12.120  13.811  71.781  1.00  0.00     0.178 C  
HETATM    3  C   UNL     1     -12.226  13.423  73.259  1.00  0.00     2.355 C  
HETATM    4  C   UNL     1     -11.849  12.581  70.879  1.00  0.00     0.406 C  
HETATM    5  N   UNL     1     -10.528  11.973  71.156  1.00  0.00     4.468 NA 
HETATM    6  H1  UNL     1     -10.350  11.163  70.562  1.00  0.00     0.000 HD 
HETATM    7  H2  UNL     1     -10.427  11.738  72.143  1.00  0.00     0.000 HD 
ENDROOT
BRANCH   4   8
HETATM    8  C   UNL     1     -11.997  12.945  69.387  1.00  0.00    -0.269 C  
HETATM    9  O   UNL     1     -12.352  12.162  68.514  1.00  0.00    -0.192 OA 
BRANCH   8  10
HETATM   10  O   UNL     1     -11.613  14.233  69.144  1.00  0.00    -0.266 OA 
BRANCH  10  11
HETATM   11  C   UNL     1     -11.606  14.644  67.764  1.00  0.00    -0.359 C  
BRANCH  11  12
HETATM   12  C   UNL     1     -10.600  15.789  67.563  1.00  0.00    -0.309 C  
BRANCH  12  13
HETATM   13  O   UNL     1     -11.230  17.042  67.211  1.00  0.00     0.017 OA 
BRANCH  13  14
HETATM   14  C   UNL     1     -11.205  17.997  68.271  1.00  0.00     0.582 C  
BRANCH  14  15
HETATM   15  N   UNL     1      -9.861  18.084  68.797  1.00  0.00    -0.361 NA 
HETATM   16  C   UNL     1      -8.756  17.482  68.243  1.00  0.00    -0.270 A  
HETATM   17  N   UNL     1      -7.640  17.835  68.853  1.00  0.00    -0.259 NA 
HETATM   18  C   UNL     1      -8.039  18.707  69.841  1.00  0.00     1.188 A  
HETATM   19  C   UNL     1      -9.403  18.856  69.809  1.00  0.00     0.710 A  
HETATM   20  N   UNL     1     -10.054  19.665  70.653  1.00  0.00     1.014 NA 
HETATM   21  C   UNL     1      -9.286  20.370  71.547  1.00  0.00     2.321 C  
HETATM   22  N   UNL     1     -10.005  21.216  72.325  1.00  0.00     2.624 NA 
HETATM   23  N   UNL     1      -7.992  20.307  71.665  1.00  0.00     1.017 N  
HETATM   24  H2  UNL     1     -11.017  21.320  72.253  1.00  0.00     0.000 HD 
HETATM   25  H1  UNL     1      -9.435  21.740  72.990  1.00  0.00     0.000 HD 
HETATM   26  H   UNL     1      -7.516  20.876  72.365  1.00  0.00     0.000 HD 
HETATM   27  C   UNL     1      -7.251  19.459  70.832  1.00  0.00     1.450 C  
HETATM   28  O   UNL     1      -6.033  19.356  70.914  1.00  0.00    -0.169 OA 
ENDBRANCH  14  15
ENDBRANCH  13  14
ENDBRANCH  12  13
BRANCH  12  29
HETATM   29  C   UNL     1      -9.613  15.438  66.440  1.00  0.00    -0.293 C  
HETATM   30  O   UNL     1      -8.463  16.281  66.539  1.00  0.00    -0.242 OA 
HETATM   31  H   UNL     1      -7.852  16.064  65.844  1.00  0.00     0.000 HD 
ENDBRANCH  12  29
ENDBRANCH  11  12
ENDBRANCH  10  11
ENDBRANCH   8  10
ENDBRANCH   4   8
TORSDOF 8
ENDMDL
MODEL      429
REMARK 921   NORMALIZED FREE ENERGY PREDICTED BY IDOCK:   14.04 KCAL/MOL
REMARK 922        TOTAL FREE ENERGY PREDICTED BY IDOCK:   19.38 KCAL/MOL
REMARK 923 INTER-LIGAND FREE ENERGY PREDICTED BY IDOCK:   15.71 KCAL/MOL
REMARK 924 INTRA-LIGAND FREE ENERGY PREDICTED BY IDOCK:    3.68 KCAL/MOL
REMARK 927      BINDING AFFINITY PREDICTED BY RF-SCORE:    0.00 PKD
ROOT
HETATM    1  C   UNL     1     -11.000  14.877  71.659  1.00  0.00     0.273 C  
HETATM    2  C   UNL     1     -11.875  13.639  71.892  1.00  0.00     1.014 C  
HETATM    3  C   UNL     1     -11.965  13.342  73.393  1.00  0.00     3.484 C  
HETATM    4  C   UNL     1     -11.405  12.403  71.086  1.00  0.00     2.435 C  
HETATM    5  N   UNL     1     -10.019  12.014  71.428  1.00  0.00     8.101 NA 
HETATM    6  H1  UNL     1      -9.710  11.200  70.897  1.00  0.00     0.000 HD 
HETATM    7  H2  UNL     1      -9.912  11.864  72.431  1.00  0.00     0.000 HD 
ENDROOT
BRANCH   4   8
HETATM    8  C   UNL     1     -11.563  12.638  69.569  1.00  0.00    -0.281 C  
HETATM    9  O   UNL     1     -11.812  11.760  68.753  1.00  0.00    -0.306 OA 
BRANCH   8  10
HETATM   10  O   UNL     1     -11.318  13.941  69.235  1.00  0.00    -0.253 OA 
BRANCH  10  11
HETATM   11  C   UNL     1     -11.309  14.243  67.828  1.00  0.00    -0.307 C  
BRANCH  11  12
HETATM   12  C   UNL     1     -10.407  15.459  67.560  1.00  0.00    -0.264 C  
BRANCH  12  13
HETATM   13  O   UNL     1     -11.143  16.627  67.127  1.00  0.00    -0.097 OA 
BRANCH  13  14
HETATM   14  C   UNL     1     -11.209  17.646  68.122  1.00  0.00     0.287 C  
BRANCH  14  15
HETATM   15  N   UNL     1      -9.890  17.851  68.677  1.00  0.00    -0.359 NA 
HETATM   16  C   UNL     1      -9.574  17.766  70.012  1.00  0.00     1.428 A  
HETATM   17  N   UNL     1      -8.275  17.870  70.223  1.00  0.00     2.599 NA 
HETATM   18  C   UNL     1      -7.726  18.024  68.969  1.00  0.00    -0.110 A  
HETATM   19  C   UNL     1      -8.718  18.016  68.021  1.00  0.00    -0.261 A  
HETATM   20  N   UNL     1      -8.459  18.130  66.714  1.00  0.00    -0.251 NA 
HETATM   21  C   UNL     1      -7.137  18.229  66.354  1.00  0.00    -0.236 C  
HETATM   22  N   UNL     1      -6.946  18.275  65.013  1.00  0.00    -0.089 NA 
HETATM   23  N   UNL     1      -6.120  18.245  67.165  1.00  0.00    -0.158 N  
HETATM   24  H2  UNL     1      -7.709  18.240  64.337  1.00  0.00     0.000 HD 
HETATM   25  H1  UNL     1      -5.964  18.349  64.745  1.00  0.00     0.000 HD 
HETATM   26  H   UNL     1      -5.173  18.322  66.792  1.00  0.00     0.000 HD 
HETATM   27  C   UNL     1      -6.321  18.158  68.548  1.00  0.00    -0.206 C  
HETATM   28  O   UNL     1      -5.396  18.183  69.351  1.00  0.00    -0.187 OA 
ENDBRANCH  14  15
ENDBRANCH  13  14
ENDBRANCH  12  13
BRANCH  12  29
HETATM   29  C   UNL     1      -9.380  15.129  66.466  1.00  0.00    -0.280 C  
HETATM   30  O   UNL     1      -8.310  16.075  66.519  1.00  0.00    -0.267 OA 
HETATM   31  H   UNL     1      -7.676  15.871  65.842  1.00  0.00     0.000 HD 
ENDBRANCH  12  29
ENDBRANCH  11  12
ENDBRANCH  10  11
ENDBRANCH   8  10
ENDBRANCH   4   8
TORSDOF 8
ENDMDL
