MODEL        1
REMARK 921   NORMALIZED FREE ENERGY PREDICTED BY IDOCK:   -3.94 KCAL/MOL
REMARK 922        TOTAL FREE ENERGY PREDICTED BY IDOCK:   -4.76 KCAL/MOL
REMARK 923 INTER-LIGAND FREE ENERGY PREDICTED BY IDOCK:   -4.40 KCAL/MOL
REMARK 924 INTRA-LIGAND FREE ENERGY PREDICTED BY IDOCK:   -0.35 KCAL/MOL
REMARK 927      BINDING AFFINITY PREDICTED BY RF-SCORE:    0.00 PKD
ROOT
HETATM    1  C   UNL     1      -9.962  16.614  66.841  1.00  0.00    -0.272 C  
HETATM    2  C   UNL     1      -9.507  15.561  65.841  1.00  0.00    -0.377 C  
ENDROOT
BRANCH   2   3
HETATM    3  C   UNL     1     -10.680  15.048  65.001  1.00  0.00    -0.448 C  
HETATM    4  C   UNL     1     -10.703  13.514  64.814  1.00  0.00    -0.412 C  
HETATM    5  C   UNL     1     -11.843  13.130  63.873  1.00  0.00    -0.472 C  
HETATM    6  C   UNL     1     -10.766  12.720  66.134  1.00  0.00    -0.297 C  
HETATM    7  O   UNL     1     -11.868  11.819  63.549  1.00  0.00    -0.465 OA 
HETATM    8  O   UNL     1     -12.656  13.914  63.407  1.00  0.00    -0.853 OA 
BRANCH   6   9
HETATM    9  C   UNL     1     -12.029  12.971  66.963  1.00  0.00    -0.409 C  
HETATM   10  C   UNL     1     -11.685  13.593  68.309  1.00  0.00    -0.398 C  
ENDBRANCH   6   9
ENDBRANCH   2   3
TORSDOF 2
ENDMDL
MODEL        2
REMARK 921   NORMALIZED FREE ENERGY PREDICTED BY IDOCK:   -3.78 KCAL/MOL
REMARK 922        TOTAL FREE ENERGY PREDICTED BY IDOCK:   -4.57 KCAL/MOL
REMARK 923 INTER-LIGAND FREE ENERGY PREDICTED BY IDOCK:   -4.21 KCAL/MOL
REMARK 924 INTRA-LIGAND FREE ENERGY PREDICTED BY IDOCK:   -0.36 KCAL/MOL
REMARK 927      BINDING AFFINITY PREDICTED BY RF-SCORE:    0.00 PKD
ROOT
HETATM    1  C   UNL     1      -9.185  16.339  67.354  1.00  0.00    -0.217 C  
HETATM    2  C   UNL     1      -9.040  15.450  66.128  1.00  0.00    -0.339 C  
ENDROOT
BRANCH   2   3
HETATM    3  C   UNL     1     -10.344  15.391  65.327  1.00  0.00    -0.420 C  
HETATM    4  C   UNL     1     -10.887  13.961  65.103  1.00  0.00    -0.364 C  
HETATM    5  C   UNL     1     -12.119  14.016  64.204  1.00  0.00    -0.422 C  
HETATM    6  C   UNL     1     -11.171  13.185  66.406  1.00  0.00    -0.328 C  
HETATM    7  O   UNL     1     -12.594  12.802  63.849  1.00  0.00    -0.638 OA 
HETATM    8  O   UNL     1     -12.636  15.044  63.792  1.00  0.00    -0.776 OA 
BRANCH   6   9
HETATM    9  C   UNL     1     -12.248  13.814  67.294  1.00  0.00    -0.315 C  
HETATM   10  C   UNL     1     -11.762  13.954  68.729  1.00  0.00    -0.392 C  
ENDBRANCH   6   9
ENDBRANCH   2   3
TORSDOF 2
ENDMDL
MODEL        3
REMARK 921   NORMALIZED FREE ENERGY PREDICTED BY IDOCK:   -3.78 KCAL/MOL
REMARK 922        TOTAL FREE ENERGY PREDICTED BY IDOCK:   -4.57 KCAL/MOL
REMARK 923 INTER-LIGAND FREE ENERGY PREDICTED BY IDOCK:   -4.44 KCAL/MOL
REMARK 924 INTRA-LIGAND FREE ENERGY PREDICTED BY IDOCK:   -0.13 KCAL/MOL
REMARK 927      BINDING AFFINITY PREDICTED BY RF-SCORE:    0.00 PKD
ROOT
HETATM    1  C   UNL     1     -11.009  10.448  67.615  1.00  0.00    -0.374 C  
HETATM    2  C   UNL     1     -11.549  11.861  67.449  1.00  0.00    -0.367 C  
ENDROOT
BRANCH   2   3
HETATM    3  C   UNL     1     -11.589  12.271  65.974  1.00  0.00    -0.451 C  
HETATM    4  C   UNL     1     -12.030  13.733  65.734  1.00  0.00    -0.423 C  
HETATM    5  C   UNL     1     -12.142  13.994  64.234  1.00  0.00    -0.445 C  
HETATM    6  C   UNL     1     -11.135  14.781  66.426  1.00  0.00    -0.340 C  
HETATM    7  O   UNL     1     -12.642  15.211  63.925  1.00  0.00    -0.794 OA 
HETATM    8  O   UNL     1     -11.851  13.189  63.362  1.00  0.00    -0.510 OA 
BRANCH   6   9
HETATM    9  C   UNL     1      -9.682  14.790  65.943  1.00  0.00    -0.355 C  
HETATM   10  C   UNL     1      -9.054  16.164  66.121  1.00  0.00    -0.382 C  
ENDBRANCH   6   9
ENDBRANCH   2   3
TORSDOF 2
ENDMDL
MODEL        4
REMARK 921   NORMALIZED FREE ENERGY PREDICTED BY IDOCK:   -3.73 KCAL/MOL
REMARK 922        TOTAL FREE ENERGY PREDICTED BY IDOCK:   -4.52 KCAL/MOL
REMARK 923 INTER-LIGAND FREE ENERGY PREDICTED BY IDOCK:   -4.16 KCAL/MOL
REMARK 924 INTRA-LIGAND FREE ENERGY PREDICTED BY IDOCK:   -0.36 KCAL/MOL
REMARK 927      BINDING AFFINITY PREDICTED BY RF-SCORE:    0.00 PKD
ROOT
HETATM    1  C   UNL     1      -9.893  11.310  68.313  1.00  0.00    -0.201 C  
HETATM    2  C   UNL     1     -11.165  11.251  67.478  1.00  0.00    -0.357 C  
ENDROOT
BRANCH   2   3
HETATM    3  C   UNL     1     -10.905  11.708  66.039  1.00  0.00    -0.339 C  
HETATM    4  C   UNL     1     -11.962  12.691  65.486  1.00  0.00    -0.509 C  
HETATM    5  C   UNL     1     -11.667  12.987  64.018  1.00  0.00    -0.436 C  
HETATM    6  C   UNL     1     -12.105  13.988  66.308  1.00  0.00    -0.482 C  
HETATM    7  O   UNL     1     -12.609  13.742  63.410  1.00  0.00    -0.842 OA 
HETATM    8  O   UNL     1     -10.697  12.568  63.403  1.00  0.00    -0.426 OA 
BRANCH   6   9
HETATM    9  C   UNL     1     -10.840  14.851  66.352  1.00  0.00    -0.325 C  
HETATM   10  C   UNL     1     -10.403  15.107  67.787  1.00  0.00    -0.243 C  
ENDBRANCH   6   9
ENDBRANCH   2   3
TORSDOF 2
ENDMDL
MODEL        5
REMARK 921   NORMALIZED FREE ENERGY PREDICTED BY IDOCK:   -3.72 KCAL/MOL
REMARK 922        TOTAL FREE ENERGY PREDICTED BY IDOCK:   -4.51 KCAL/MOL
REMARK 923 INTER-LIGAND FREE ENERGY PREDICTED BY IDOCK:   -4.18 KCAL/MOL
REMARK 924 INTRA-LIGAND FREE ENERGY PREDICTED BY IDOCK:   -0.33 KCAL/MOL
REMARK 927      BINDING AFFINITY PREDICTED BY RF-SCORE:    0.00 PKD
ROOT
HETATM    1  C   UNL     1      -8.892  12.965  67.763  1.00  0.00    -0.188 C  
HETATM    2  C   UNL     1      -9.215  14.026  66.721  1.00  0.00    -0.280 C  
ENDROOT
BRANCH   2   3
HETATM    3  C   UNL     1     -10.682  13.949  66.287  1.00  0.00    -0.285 C  
HETATM    4  C   UNL     1     -10.887  13.836  64.760  1.00  0.00    -0.410 C  
HETATM    5  C   UNL     1     -12.379  13.881  64.438  1.00  0.00    -0.361 C  
HETATM    6  C   UNL     1     -10.208  12.606  64.124  1.00  0.00    -0.366 C  
HETATM    7  O   UNL     1     -12.655  13.913  63.115  1.00  0.00    -0.775 OA 
HETATM    8  O   UNL     1     -13.271  13.923  65.272  1.00  0.00    -0.774 OA 
BRANCH   6   9
HETATM    9  C   UNL     1     -10.736  11.260  64.630  1.00  0.00    -0.371 C  
HETATM   10  C   UNL     1      -9.600  10.267  64.829  1.00  0.00    -0.369 C  
ENDBRANCH   6   9
ENDBRANCH   2   3
TORSDOF 2
ENDMDL
MODEL        6
REMARK 921   NORMALIZED FREE ENERGY PREDICTED BY IDOCK:   -3.70 KCAL/MOL
REMARK 922        TOTAL FREE ENERGY PREDICTED BY IDOCK:   -4.48 KCAL/MOL
REMARK 923 INTER-LIGAND FREE ENERGY PREDICTED BY IDOCK:   -4.27 KCAL/MOL
REMARK 924 INTRA-LIGAND FREE ENERGY PREDICTED BY IDOCK:   -0.21 KCAL/MOL
REMARK 927      BINDING AFFINITY PREDICTED BY RF-SCORE:    0.00 PKD
ROOT
HETATM    1  C   UNL     1      -8.971  11.084  62.690  1.00  0.00    -0.355 C  
HETATM    2  C   UNL     1     -10.226  10.991  63.545  1.00  0.00    -0.424 C  
ENDROOT
BRANCH   2   3
HETATM    3  C   UNL     1     -10.986  12.321  63.562  1.00  0.00    -0.521 C  
HETATM    4  C   UNL     1     -11.845  12.544  64.827  1.00  0.00    -0.440 C  
HETATM    5  C   UNL     1     -12.640  13.840  64.684  1.00  0.00    -0.246 C  
HETATM    6  C   UNL     1     -11.044  12.514  66.145  1.00  0.00    -0.336 C  
HETATM    7  O   UNL     1     -13.517  14.060  65.689  1.00  0.00    -0.604 OA 
HETATM    8  O   UNL     1     -12.546  14.615  63.744  1.00  0.00    -0.820 OA 
BRANCH   6   9
HETATM    9  C   UNL     1      -9.984  13.613  66.266  1.00  0.00    -0.305 C  
HETATM   10  C   UNL     1      -8.834  13.168  67.158  1.00  0.00    -0.222 C  
ENDBRANCH   6   9
ENDBRANCH   2   3
TORSDOF 2
ENDMDL
MODEL        7
REMARK 921   NORMALIZED FREE ENERGY PREDICTED BY IDOCK:   -3.67 KCAL/MOL
REMARK 922        TOTAL FREE ENERGY PREDICTED BY IDOCK:   -4.46 KCAL/MOL
REMARK 923 INTER-LIGAND FREE ENERGY PREDICTED BY IDOCK:   -4.10 KCAL/MOL
REMARK 924 INTRA-LIGAND FREE ENERGY PREDICTED BY IDOCK:   -0.36 KCAL/MOL
REMARK 927      BINDING AFFINITY PREDICTED BY RF-SCORE:    0.00 PKD
ROOT
HETATM    1  C   UNL     1     -10.397  10.334  67.189  1.00  0.00    -0.292 C  
HETATM    2  C   UNL     1     -10.298  11.853  67.206  1.00  0.00    -0.228 C  
ENDROOT
BRANCH   2   3
HETATM    3  C   UNL     1     -11.528  12.496  66.559  1.00  0.00    -0.418 C  
HETATM    4  C   UNL     1     -11.198  13.586  65.513  1.00  0.00    -0.304 C  
HETATM    5  C   UNL     1     -12.491  14.232  65.021  1.00  0.00    -0.400 C  
HETATM    6  C   UNL     1     -10.331  13.088  64.339  1.00  0.00    -0.397 C  
HETATM    7  O   UNL     1     -12.299  15.283  64.194  1.00  0.00    -0.630 OA 
HETATM    8  O   UNL     1     -13.614  13.882  65.351  1.00  0.00    -0.571 OA 
BRANCH   6   9
HETATM    9  C   UNL     1     -10.987  11.998  63.486  1.00  0.00    -0.514 C  
HETATM   10  C   UNL     1     -10.085  10.778  63.369  1.00  0.00    -0.345 C  
ENDBRANCH   6   9
ENDBRANCH   2   3
TORSDOF 2
ENDMDL
MODEL        8
REMARK 921   NORMALIZED FREE ENERGY PREDICTED BY IDOCK:   -3.63 KCAL/MOL
REMARK 922        TOTAL FREE ENERGY PREDICTED BY IDOCK:   -4.40 KCAL/MOL
REMARK 923 INTER-LIGAND FREE ENERGY PREDICTED BY IDOCK:   -4.24 KCAL/MOL
REMARK 924 INTRA-LIGAND FREE ENERGY PREDICTED BY IDOCK:   -0.16 KCAL/MOL
REMARK 927      BINDING AFFINITY PREDICTED BY RF-SCORE:    0.00 PKD
ROOT
HETATM    1  C   UNL     1     -11.891  11.605  68.988  1.00  0.00    -0.391 C  
HETATM    2  C   UNL     1     -11.797  12.781  68.027  1.00  0.00    -0.386 C  
ENDROOT
BRANCH   2   3
HETATM    3  C   UNL     1     -11.539  12.307  66.593  1.00  0.00    -0.438 C  
HETATM    4  C   UNL     1     -12.345  13.071  65.518  1.00  0.00    -0.527 C  
HETATM    5  C   UNL     1     -12.095  12.443  64.149  1.00  0.00    -0.453 C  
HETATM    6  C   UNL     1     -12.086  14.591  65.499  1.00  0.00    -0.299 C  
HETATM    7  O   UNL     1     -12.853  12.964  63.159  1.00  0.00    -0.544 OA 
HETATM    8  O   UNL     1     -11.315  11.527  63.934  1.00  0.00    -0.386 OA 
BRANCH   6   9
HETATM    9  C   UNL     1     -10.642  14.982  65.172  1.00  0.00    -0.440 C  
HETATM   10  C   UNL     1     -10.212  16.204  65.971  1.00  0.00    -0.374 C  
ENDBRANCH   6   9
ENDBRANCH   2   3
TORSDOF 2
ENDMDL
MODEL        9
REMARK 921   NORMALIZED FREE ENERGY PREDICTED BY IDOCK:   -3.60 KCAL/MOL
REMARK 922        TOTAL FREE ENERGY PREDICTED BY IDOCK:   -4.38 KCAL/MOL
REMARK 923 INTER-LIGAND FREE ENERGY PREDICTED BY IDOCK:   -4.20 KCAL/MOL
REMARK 924 INTRA-LIGAND FREE ENERGY PREDICTED BY IDOCK:   -0.18 KCAL/MOL
REMARK 927      BINDING AFFINITY PREDICTED BY RF-SCORE:    0.00 PKD
ROOT
HETATM    1  C   UNL     1     -10.670   9.898  67.089  1.00  0.00    -0.276 C  
HETATM    2  C   UNL     1      -9.865  10.717  66.091  1.00  0.00    -0.269 C  
ENDROOT
BRANCH   2   3
HETATM    3  C   UNL     1     -10.782  11.505  65.151  1.00  0.00    -0.348 C  
HETATM    4  C   UNL     1     -11.668  12.554  65.861  1.00  0.00    -0.480 C  
HETATM    5  C   UNL     1     -12.615  13.193  64.850  1.00  0.00    -0.407 C  
HETATM    6  C   UNL     1     -10.876  13.618  66.647  1.00  0.00    -0.283 C  
HETATM    7  O   UNL     1     -13.517  14.037  65.399  1.00  0.00    -0.679 OA 
HETATM    8  O   UNL     1     -12.614  12.962  63.649  1.00  0.00    -0.686 OA 
BRANCH   6   9
HETATM    9  C   UNL     1      -9.959  14.489  65.782  1.00  0.00    -0.361 C  
HETATM   10  C   UNL     1     -10.478  15.917  65.701  1.00  0.00    -0.411 C  
ENDBRANCH   6   9
ENDBRANCH   2   3
TORSDOF 2
ENDMDL
MODEL       10
REMARK 921   NORMALIZED FREE ENERGY PREDICTED BY IDOCK:   -3.60 KCAL/MOL
REMARK 922        TOTAL FREE ENERGY PREDICTED BY IDOCK:   -4.37 KCAL/MOL
REMARK 923 INTER-LIGAND FREE ENERGY PREDICTED BY IDOCK:   -4.20 KCAL/MOL
REMARK 924 INTRA-LIGAND FREE ENERGY PREDICTED BY IDOCK:   -0.17 KCAL/MOL
REMARK 927      BINDING AFFINITY PREDICTED BY RF-SCORE:    0.00 PKD
ROOT
HETATM    1  C   UNL     1     -12.113  12.458  70.297  1.00  0.00    -0.377 C  
HETATM    2  C   UNL     1     -11.558  13.441  69.276  1.00  0.00    -0.365 C  
ENDROOT
BRANCH   2   3
HETATM    3  C   UNL     1     -11.790  12.946  67.845  1.00  0.00    -0.388 C  
HETATM    4  C   UNL     1     -12.119  14.067  66.833  1.00  0.00    -0.465 C  
HETATM    5  C   UNL     1     -12.440  13.450  65.474  1.00  0.00    -0.483 C  
HETATM    6  C   UNL     1     -11.029  15.152  66.718  1.00  0.00    -0.321 C  
HETATM    7  O   UNL     1     -12.862  14.344  64.551  1.00  0.00    -0.634 OA 
HETATM    8  O   UNL     1     -12.370  12.258  65.214  1.00  0.00    -0.555 OA 
BRANCH   6   9
HETATM    9  C   UNL     1      -9.676  14.638  66.217  1.00  0.00    -0.329 C  
HETATM   10  C   UNL     1      -8.527  15.319  66.946  1.00  0.00    -0.286 C  
ENDBRANCH   6   9
ENDBRANCH   2   3
TORSDOF 2
ENDMDL
MODEL       11
REMARK 921   NORMALIZED FREE ENERGY PREDICTED BY IDOCK:   -3.60 KCAL/MOL
REMARK 922        TOTAL FREE ENERGY PREDICTED BY IDOCK:   -4.37 KCAL/MOL
REMARK 923 INTER-LIGAND FREE ENERGY PREDICTED BY IDOCK:   -4.20 KCAL/MOL
REMARK 924 INTRA-LIGAND FREE ENERGY PREDICTED BY IDOCK:   -0.17 KCAL/MOL
REMARK 927      BINDING AFFINITY PREDICTED BY RF-SCORE:    0.00 PKD
ROOT
HETATM    1  C   UNL     1     -12.870  10.682  71.498  1.00  0.00    -0.567 C  
HETATM    2  C   UNL     1     -13.112  12.184  71.555  1.00  0.00    -0.357 C  
ENDROOT
BRANCH   2   3
HETATM    3  C   UNL     1     -12.073  12.946  70.728  1.00  0.00    -0.252 C  
HETATM    4  C   UNL     1     -12.563  14.315  70.201  1.00  0.00    -0.338 C  
HETATM    5  C   UNL     1     -11.493  14.929  69.302  1.00  0.00    -0.303 C  
HETATM    6  C   UNL     1     -13.002  15.294  71.308  1.00  0.00    -0.511 C  
HETATM    7  O   UNL     1     -11.878  16.073  68.693  1.00  0.00    -0.367 OA 
HETATM    8  O   UNL     1     -10.390  14.443  69.097  1.00  0.00    -0.223 OA 
BRANCH   6   9
HETATM    9  C   UNL     1     -11.888  15.692  72.280  1.00  0.00    -0.578 C  
HETATM   10  C   UNL     1     -12.426  15.852  73.694  1.00  0.00    -0.711 C  
ENDBRANCH   6   9
ENDBRANCH   2   3
TORSDOF 2
ENDMDL
MODEL       12
REMARK 921   NORMALIZED FREE ENERGY PREDICTED BY IDOCK:   -3.60 KCAL/MOL
REMARK 922        TOTAL FREE ENERGY PREDICTED BY IDOCK:   -4.37 KCAL/MOL
REMARK 923 INTER-LIGAND FREE ENERGY PREDICTED BY IDOCK:   -4.13 KCAL/MOL
REMARK 924 INTRA-LIGAND FREE ENERGY PREDICTED BY IDOCK:   -0.24 KCAL/MOL
REMARK 927      BINDING AFFINITY PREDICTED BY RF-SCORE:    0.00 PKD
ROOT
HETATM    1  C   UNL     1     -12.001  13.951  69.247  1.00  0.00    -0.402 C  
HETATM    2  C   UNL     1     -11.577  14.452  67.874  1.00  0.00    -0.374 C  
ENDROOT
BRANCH   2   3
HETATM    3  C   UNL     1     -12.278  13.672  66.757  1.00  0.00    -0.416 C  
HETATM    4  C   UNL     1     -11.351  13.265  65.590  1.00  0.00    -0.325 C  
HETATM    5  C   UNL     1     -12.175  12.597  64.491  1.00  0.00    -0.443 C  
HETATM    6  C   UNL     1     -10.156  12.387  66.013  1.00  0.00    -0.269 C  
HETATM    7  O   UNL     1     -11.471  12.315  63.372  1.00  0.00    -0.439 OA 
HETATM    8  O   UNL     1     -13.371  12.357  64.565  1.00  0.00    -0.800 OA 
BRANCH   6   9
HETATM    9  C   UNL     1     -10.547  11.034  66.615  1.00  0.00    -0.315 C  
HETATM   10  C   UNL     1      -9.979   9.885  65.795  1.00  0.00    -0.347 C  
ENDBRANCH   6   9
ENDBRANCH   2   3
TORSDOF 2
ENDMDL
MODEL       13
REMARK 921   NORMALIZED FREE ENERGY PREDICTED BY IDOCK:   -3.54 KCAL/MOL
REMARK 922        TOTAL FREE ENERGY PREDICTED BY IDOCK:   -4.31 KCAL/MOL
REMARK 923 INTER-LIGAND FREE ENERGY PREDICTED BY IDOCK:   -4.18 KCAL/MOL
REMARK 924 INTRA-LIGAND FREE ENERGY PREDICTED BY IDOCK:   -0.13 KCAL/MOL
REMARK 927      BINDING AFFINITY PREDICTED BY RF-SCORE:    0.00 PKD
ROOT
HETATM    1  C   UNL     1      -9.002  16.801  66.211  1.00  0.00    -0.325 C  
HETATM    2  C   UNL     1      -9.211  15.303  66.374  1.00  0.00    -0.342 C  
ENDROOT
BRANCH   2   3
HETATM    3  C   UNL     1     -10.668  14.913  66.109  1.00  0.00    -0.317 C  
HETATM    4  C   UNL     1     -10.914  14.285  64.719  1.00  0.00    -0.408 C  
HETATM    5  C   UNL     1     -12.409  14.043  64.524  1.00  0.00    -0.378 C  
HETATM    6  C   UNL     1     -10.094  13.007  64.452  1.00  0.00    -0.245 C  
HETATM    7  O   UNL     1     -12.738  13.609  63.286  1.00  0.00    -0.765 OA 
HETATM    8  O   UNL     1     -13.265  14.245  65.372  1.00  0.00    -0.688 OA 
BRANCH   6   9
HETATM    9  C   UNL     1     -10.407  11.846  65.400  1.00  0.00    -0.306 C  
HETATM   10  C   UNL     1     -10.117  10.506  64.739  1.00  0.00    -0.406 C  
ENDBRANCH   6   9
ENDBRANCH   2   3
TORSDOF 2
ENDMDL
MODEL       14
REMARK 921   NORMALIZED FREE ENERGY PREDICTED BY IDOCK:   -3.53 KCAL/MOL
REMARK 922        TOTAL FREE ENERGY PREDICTED BY IDOCK:   -4.30 KCAL/MOL
REMARK 923 INTER-LIGAND FREE ENERGY PREDICTED BY IDOCK:   -3.94 KCAL/MOL
REMARK 924 INTRA-LIGAND FREE ENERGY PREDICTED BY IDOCK:   -0.36 KCAL/MOL
REMARK 927      BINDING AFFINITY PREDICTED BY RF-SCORE:    0.00 PKD
ROOT
HETATM    1  C   UNL     1     -12.017  14.357  69.394  1.00  0.00    -0.370 C  
HETATM    2  C   UNL     1     -11.360  14.647  68.053  1.00  0.00    -0.329 C  
ENDROOT
BRANCH   2   3
HETATM    3  C   UNL     1     -12.066  13.904  66.915  1.00  0.00    -0.467 C  
HETATM    4  C   UNL     1     -11.147  12.958  66.110  1.00  0.00    -0.314 C  
HETATM    5  C   UNL     1     -11.926  12.361  64.940  1.00  0.00    -0.398 C  
HETATM    6  C   UNL     1     -10.474  11.861  66.959  1.00  0.00    -0.253 C  
HETATM    7  O   UNL     1     -11.172  11.615  64.102  1.00  0.00    -0.352 OA 
HETATM    8  O   UNL     1     -13.114  12.548  64.726  1.00  0.00    -0.853 OA 
BRANCH   6   9
HETATM    9  C   UNL     1     -11.451  10.887  67.625  1.00  0.00    -0.281 C  
HETATM   10  C   UNL     1     -11.162  10.753  69.113  1.00  0.00    -0.323 C  
ENDBRANCH   6   9
ENDBRANCH   2   3
TORSDOF 2
ENDMDL
MODEL       15
REMARK 921   NORMALIZED FREE ENERGY PREDICTED BY IDOCK:   -3.50 KCAL/MOL
REMARK 922        TOTAL FREE ENERGY PREDICTED BY IDOCK:   -4.27 KCAL/MOL
REMARK 923 INTER-LIGAND FREE ENERGY PREDICTED BY IDOCK:   -3.95 KCAL/MOL
REMARK 924 INTRA-LIGAND FREE ENERGY PREDICTED BY IDOCK:   -0.31 KCAL/MOL
REMARK 927      BINDING AFFINITY PREDICTED BY RF-SCORE:    0.00 PKD
ROOT
HETATM    1  C   UNL     1      -9.970  17.848  67.150  1.00  0.00    -0.327 C  
HETATM    2  C   UNL     1      -9.552  16.597  66.391  1.00  0.00    -0.308 C  
ENDROOT
BRANCH   2   3
HETATM    3  C   UNL     1     -10.721  16.018  65.588  1.00  0.00    -0.341 C  
HETATM    4  C   UNL     1     -10.655  14.487  65.386  1.00  0.00    -0.385 C  
HETATM    5  C   UNL     1     -11.801  14.040  64.483  1.00  0.00    -0.434 C  
HETATM    6  C   UNL     1     -10.622  13.681  66.701  1.00  0.00    -0.277 C  
HETATM    7  O   UNL     1     -11.757  12.731  64.147  1.00  0.00    -0.345 OA 
HETATM    8  O   UNL     1     -12.677  14.775  64.052  1.00  0.00    -0.786 OA 
BRANCH   6   9
HETATM    9  C   UNL     1     -11.869  13.847  67.575  1.00  0.00    -0.431 C  
HETATM   10  C   UNL     1     -11.513  14.449  68.926  1.00  0.00    -0.319 C  
ENDBRANCH   6   9
ENDBRANCH   2   3
TORSDOF 2
ENDMDL
MODEL       16
REMARK 921   NORMALIZED FREE ENERGY PREDICTED BY IDOCK:   -3.50 KCAL/MOL
REMARK 922        TOTAL FREE ENERGY PREDICTED BY IDOCK:   -4.26 KCAL/MOL
REMARK 923 INTER-LIGAND FREE ENERGY PREDICTED BY IDOCK:   -3.90 KCAL/MOL
REMARK 924 INTRA-LIGAND FREE ENERGY PREDICTED BY IDOCK:   -0.36 KCAL/MOL
REMARK 927      BINDING AFFINITY PREDICTED BY RF-SCORE:    0.00 PKD
ROOT
HETATM    1  C   UNL     1     -11.761  12.627  67.648  1.00  0.00    -0.420 C  
HETATM    2  C   UNL     1     -11.541  12.629  69.153  1.00  0.00    -0.374 C  
ENDROOT
BRANCH   2   3
HETATM    3  C   UNL     1     -12.397  13.700  69.838  1.00  0.00    -0.310 C  
HETATM    4  C   UNL     1     -11.588  14.720  70.672  1.00  0.00    -0.324 C  
HETATM    5  C   UNL     1     -12.546  15.664  71.394  1.00  0.00    -0.457 C  
HETATM    6  C   UNL     1     -10.530  15.497  69.863  1.00  0.00    -0.323 C  
HETATM    7  O   UNL     1     -11.937  16.516  72.249  1.00  0.00    -0.494 OA 
HETATM    8  O   UNL     1     -13.762  15.657  71.265  1.00  0.00    -0.568 OA 
BRANCH   6   9
HETATM    9  C   UNL     1     -11.106  16.367  68.741  1.00  0.00    -0.337 C  
HETATM   10  C   UNL     1     -10.409  16.086  67.418  1.00  0.00    -0.294 C  
ENDBRANCH   6   9
ENDBRANCH   2   3
TORSDOF 2
ENDMDL
MODEL       17
REMARK 921   NORMALIZED FREE ENERGY PREDICTED BY IDOCK:   -3.50 KCAL/MOL
REMARK 922        TOTAL FREE ENERGY PREDICTED BY IDOCK:   -4.26 KCAL/MOL
REMARK 923 INTER-LIGAND FREE ENERGY PREDICTED BY IDOCK:   -3.93 KCAL/MOL
REMARK 924 INTRA-LIGAND FREE ENERGY PREDICTED BY IDOCK:   -0.33 KCAL/MOL
REMARK 927      BINDING AFFINITY PREDICTED BY RF-SCORE:    0.00 PKD
ROOT
HETATM    1  C   UNL     1      -9.216  17.501  66.523  1.00  0.00    -0.286 C  
HETATM    2  C   UNL     1      -9.096  16.087  65.973  1.00  0.00    -0.361 C  
ENDROOT
BRANCH   2   3
HETATM    3  C   UNL     1     -10.474  15.486  65.681  1.00  0.00    -0.393 C  
HETATM    4  C   UNL     1     -10.747  14.145  66.400  1.00  0.00    -0.288 C  
HETATM    5  C   UNL     1     -12.094  13.587  65.949  1.00  0.00    -0.435 C  
HETATM    6  C   UNL     1     -10.653  14.225  67.937  1.00  0.00    -0.240 C  
HETATM    7  O   UNL     1     -12.366  12.354  66.430  1.00  0.00    -0.539 OA 
HETATM    8  O   UNL     1     -12.868  14.158  65.194  1.00  0.00    -0.686 OA 
BRANCH   6   9
HETATM    9  C   UNL     1     -11.676  15.163  68.585  1.00  0.00    -0.364 C  
HETATM   10  C   UNL     1     -10.985  16.257  69.386  1.00  0.00    -0.337 C  
ENDBRANCH   6   9
ENDBRANCH   2   3
TORSDOF 2
ENDMDL
MODEL       18
REMARK 921   NORMALIZED FREE ENERGY PREDICTED BY IDOCK:   -3.46 KCAL/MOL
REMARK 922        TOTAL FREE ENERGY PREDICTED BY IDOCK:   -4.22 KCAL/MOL
REMARK 923 INTER-LIGAND FREE ENERGY PREDICTED BY IDOCK:   -3.97 KCAL/MOL
REMARK 924 INTRA-LIGAND FREE ENERGY PREDICTED BY IDOCK:   -0.25 KCAL/MOL
REMARK 927      BINDING AFFINITY PREDICTED BY RF-SCORE:    0.00 PKD
ROOT
HETATM    1  C   UNL     1     -13.090  10.111  71.775  1.00  0.00    -0.568 C  
HETATM    2  C   UNL     1     -11.885   9.740  70.923  1.00  0.00    -0.420 C  
ENDROOT
BRANCH   2   3
HETATM    3  C   UNL     1     -10.773   9.119  71.774  1.00  0.00    -0.405 C  
HETATM    4  C   UNL     1     -11.221   7.896  72.607  1.00  0.00    -0.459 C  
HETATM    5  C   UNL     1     -10.069   7.433  73.495  1.00  0.00    -0.339 C  
HETATM    6  C   UNL     1     -11.788   6.736  71.764  1.00  0.00    -0.371 C  
HETATM    7  O   UNL     1     -10.402   6.443  74.353  1.00  0.00    -0.332 OA 
HETATM    8  O   UNL     1      -8.945   7.912  73.486  1.00  0.00    -0.238 OA 
BRANCH   6   9
HETATM    9  C   UNL     1     -10.788   6.120  70.781  1.00  0.00    -0.350 C  
HETATM   10  C   UNL     1     -11.259   6.288  69.344  1.00  0.00    -0.489 C  
ENDBRANCH   6   9
ENDBRANCH   2   3
TORSDOF 2
ENDMDL
MODEL       19
REMARK 921   NORMALIZED FREE ENERGY PREDICTED BY IDOCK:   -3.43 KCAL/MOL
REMARK 922        TOTAL FREE ENERGY PREDICTED BY IDOCK:   -4.18 KCAL/MOL
REMARK 923 INTER-LIGAND FREE ENERGY PREDICTED BY IDOCK:   -4.00 KCAL/MOL
REMARK 924 INTRA-LIGAND FREE ENERGY PREDICTED BY IDOCK:   -0.19 KCAL/MOL
REMARK 927      BINDING AFFINITY PREDICTED BY RF-SCORE:    0.00 PKD
ROOT
HETATM    1  C   UNL     1     -10.324  16.930  66.930  1.00  0.00    -0.304 C  
HETATM    2  C   UNL     1     -10.291  16.064  65.680  1.00  0.00    -0.414 C  
ENDROOT
BRANCH   2   3
HETATM    3  C   UNL     1     -10.038  14.594  66.029  1.00  0.00    -0.330 C  
HETATM    4  C   UNL     1     -11.322  13.773  66.284  1.00  0.00    -0.329 C  
HETATM    5  C   UNL     1     -10.947  12.362  66.731  1.00  0.00    -0.263 C  
HETATM    6  C   UNL     1     -12.299  13.747  65.091  1.00  0.00    -0.476 C  
HETATM    7  O   UNL     1     -12.004  11.603  67.097  1.00  0.00    -0.614 OA 
HETATM    8  O   UNL     1      -9.805  11.932  66.800  1.00  0.00    -0.193 OA 
BRANCH   6   9
HETATM    9  C   UNL     1     -11.735  13.096  63.825  1.00  0.00    -0.519 C  
HETATM   10  C   UNL     1     -12.606  11.934  63.371  1.00  0.00    -0.555 C  
ENDBRANCH   6   9
ENDBRANCH   2   3
TORSDOF 2
ENDMDL
MODEL       20
REMARK 921   NORMALIZED FREE ENERGY PREDICTED BY IDOCK:   -3.41 KCAL/MOL
REMARK 922        TOTAL FREE ENERGY PREDICTED BY IDOCK:   -4.17 KCAL/MOL
REMARK 923 INTER-LIGAND FREE ENERGY PREDICTED BY IDOCK:   -3.89 KCAL/MOL
REMARK 924 INTRA-LIGAND FREE ENERGY PREDICTED BY IDOCK:   -0.28 KCAL/MOL
REMARK 927      BINDING AFFINITY PREDICTED BY RF-SCORE:    0.00 PKD
ROOT
HETATM    1  C   UNL     1      -9.019  14.304  68.077  1.00  0.00    -0.183 C  
HETATM    2  C   UNL     1      -9.294  14.317  66.580  1.00  0.00    -0.292 C  
ENDROOT
BRANCH   2   3
HETATM    3  C   UNL     1     -10.798  14.270  66.291  1.00  0.00    -0.310 C  
HETATM    4  C   UNL     1     -11.237  13.077  65.411  1.00  0.00    -0.317 C  
HETATM    5  C   UNL     1     -12.726  13.195  65.097  1.00  0.00    -0.405 C  
HETATM    6  C   UNL     1     -10.892  11.697  66.006  1.00  0.00    -0.339 C  
HETATM    7  O   UNL     1     -13.179  12.263  64.229  1.00  0.00    -0.785 OA 
HETATM    8  O   UNL     1     -13.467  14.060  65.540  1.00  0.00    -0.677 OA 
BRANCH   6   9
HETATM    9  C   UNL     1     -11.576  11.394  67.342  1.00  0.00    -0.266 C  
HETATM   10  C   UNL     1     -10.823  10.319  68.112  1.00  0.00    -0.312 C  
ENDBRANCH   6   9
ENDBRANCH   2   3
TORSDOF 2
ENDMDL
MODEL       21
REMARK 921   NORMALIZED FREE ENERGY PREDICTED BY IDOCK:   -3.41 KCAL/MOL
REMARK 922        TOTAL FREE ENERGY PREDICTED BY IDOCK:   -4.16 KCAL/MOL
REMARK 923 INTER-LIGAND FREE ENERGY PREDICTED BY IDOCK:   -3.82 KCAL/MOL
REMARK 924 INTRA-LIGAND FREE ENERGY PREDICTED BY IDOCK:   -0.34 KCAL/MOL
REMARK 927      BINDING AFFINITY PREDICTED BY RF-SCORE:    0.00 PKD
ROOT
HETATM    1  C   UNL     1     -11.482  11.736  63.581  1.00  0.00    -0.524 C  
HETATM    2  C   UNL     1     -12.006  13.149  63.792  1.00  0.00    -0.572 C  
ENDROOT
BRANCH   2   3
HETATM    3  C   UNL     1     -10.959  14.033  64.479  1.00  0.00    -0.361 C  
HETATM    4  C   UNL     1     -11.462  14.729  65.764  1.00  0.00    -0.322 C  
HETATM    5  C   UNL     1     -10.379  15.665  66.295  1.00  0.00    -0.306 C  
HETATM    6  C   UNL     1     -11.955  13.757  66.854  1.00  0.00    -0.460 C  
HETATM    7  O   UNL     1     -10.771  16.414  67.350  1.00  0.00    -0.322 OA 
HETATM    8  O   UNL     1      -9.261  15.782  65.816  1.00  0.00    -0.321 OA 
BRANCH   6   9
HETATM    9  C   UNL     1     -10.878  12.809  67.390  1.00  0.00    -0.265 C  
HETATM   10  C   UNL     1     -11.277  11.355  67.186  1.00  0.00    -0.363 C  
ENDBRANCH   6   9
ENDBRANCH   2   3
TORSDOF 2
ENDMDL
MODEL       22
REMARK 921   NORMALIZED FREE ENERGY PREDICTED BY IDOCK:   -3.40 KCAL/MOL
REMARK 922        TOTAL FREE ENERGY PREDICTED BY IDOCK:   -4.15 KCAL/MOL
REMARK 923 INTER-LIGAND FREE ENERGY PREDICTED BY IDOCK:   -3.80 KCAL/MOL
REMARK 924 INTRA-LIGAND FREE ENERGY PREDICTED BY IDOCK:   -0.35 KCAL/MOL
REMARK 927      BINDING AFFINITY PREDICTED BY RF-SCORE:    0.00 PKD
ROOT
HETATM    1  C   UNL     1     -10.574  10.699  66.863  1.00  0.00    -0.311 C  
HETATM    2  C   UNL     1      -9.531  11.807  66.829  1.00  0.00    -0.202 C  
ENDROOT
BRANCH   2   3
HETATM    3  C   UNL     1     -10.177  13.183  67.022  1.00  0.00    -0.250 C  
HETATM    4  C   UNL     1      -9.963  14.156  65.841  1.00  0.00    -0.331 C  
HETATM    5  C   UNL     1     -10.548  15.522  66.190  1.00  0.00    -0.315 C  
HETATM    6  C   UNL     1     -10.503  13.636  64.493  1.00  0.00    -0.411 C  
HETATM    7  O   UNL     1     -10.301  16.477  65.267  1.00  0.00    -0.596 OA 
HETATM    8  O   UNL     1     -11.159  15.777  67.217  1.00  0.00    -0.302 OA 
BRANCH   6   9
HETATM    9  C   UNL     1     -12.017  13.407  64.464  1.00  0.00    -0.452 C  
HETATM   10  C   UNL     1     -12.363  12.124  63.724  1.00  0.00    -0.635 C  
ENDBRANCH   6   9
ENDBRANCH   2   3
TORSDOF 2
ENDMDL
MODEL       23
REMARK 921   NORMALIZED FREE ENERGY PREDICTED BY IDOCK:   -3.37 KCAL/MOL
REMARK 922        TOTAL FREE ENERGY PREDICTED BY IDOCK:   -4.12 KCAL/MOL
REMARK 923 INTER-LIGAND FREE ENERGY PREDICTED BY IDOCK:   -3.81 KCAL/MOL
REMARK 924 INTRA-LIGAND FREE ENERGY PREDICTED BY IDOCK:   -0.31 KCAL/MOL
REMARK 927      BINDING AFFINITY PREDICTED BY RF-SCORE:    0.00 PKD
ROOT
HETATM    1  C   UNL     1     -12.144  12.124  63.504  1.00  0.00    -0.649 C  
HETATM    2  C   UNL     1     -12.477  12.923  64.756  1.00  0.00    -0.517 C  
ENDROOT
BRANCH   2   3
HETATM    3  C   UNL     1     -11.666  14.221  64.818  1.00  0.00    -0.420 C  
HETATM    4  C   UNL     1     -11.398  14.733  66.251  1.00  0.00    -0.334 C  
HETATM    5  C   UNL     1     -10.685  16.082  66.188  1.00  0.00    -0.244 C  
HETATM    6  C   UNL     1     -10.637  13.733  67.144  1.00  0.00    -0.277 C  
HETATM    7  O   UNL     1     -10.517  16.671  67.393  1.00  0.00    -0.309 OA 
HETATM    8  O   UNL     1     -10.318  16.629  65.159  1.00  0.00    -0.630 OA 
BRANCH   6   9
HETATM    9  C   UNL     1      -9.230  13.384  66.647  1.00  0.00    -0.223 C  
HETATM   10  C   UNL     1      -9.099  11.893  66.377  1.00  0.00    -0.208 C  
ENDBRANCH   6   9
ENDBRANCH   2   3
TORSDOF 2
ENDMDL
MODEL       24
REMARK 921   NORMALIZED FREE ENERGY PREDICTED BY IDOCK:   -3.35 KCAL/MOL
REMARK 922        TOTAL FREE ENERGY PREDICTED BY IDOCK:   -4.10 KCAL/MOL
REMARK 923 INTER-LIGAND FREE ENERGY PREDICTED BY IDOCK:   -3.74 KCAL/MOL
REMARK 924 INTRA-LIGAND FREE ENERGY PREDICTED BY IDOCK:   -0.35 KCAL/MOL
REMARK 927      BINDING AFFINITY PREDICTED BY RF-SCORE:    0.00 PKD
ROOT
HETATM    1  C   UNL     1      -6.233  20.682  68.539  1.00  0.00    -0.355 C  
HETATM    2  C   UNL     1      -6.852  20.844  67.158  1.00  0.00    -0.417 C  
ENDROOT
BRANCH   2   3
HETATM    3  C   UNL     1      -8.331  20.444  67.162  1.00  0.00    -0.382 C  
HETATM    4  C   UNL     1      -8.670  19.262  66.226  1.00  0.00    -0.333 C  
HETATM    5  C   UNL     1     -10.178  19.026  66.225  1.00  0.00    -0.446 C  
HETATM    6  C   UNL     1      -7.895  17.967  66.543  1.00  0.00    -0.298 C  
HETATM    7  O   UNL     1     -10.587  18.090  65.340  1.00  0.00    -0.648 OA 
HETATM    8  O   UNL     1     -10.979  19.633  66.921  1.00  0.00    -0.452 OA 
BRANCH   6   9
HETATM    9  C   UNL     1      -8.178  17.384  67.930  1.00  0.00    -0.225 C  
HETATM   10  C   UNL     1      -6.885  17.030  68.649  1.00  0.00    -0.187 C  
ENDBRANCH   6   9
ENDBRANCH   2   3
TORSDOF 2
ENDMDL
MODEL       25
REMARK 921   NORMALIZED FREE ENERGY PREDICTED BY IDOCK:   -3.35 KCAL/MOL
REMARK 922        TOTAL FREE ENERGY PREDICTED BY IDOCK:   -4.09 KCAL/MOL
REMARK 923 INTER-LIGAND FREE ENERGY PREDICTED BY IDOCK:   -3.82 KCAL/MOL
REMARK 924 INTRA-LIGAND FREE ENERGY PREDICTED BY IDOCK:   -0.27 KCAL/MOL
REMARK 927      BINDING AFFINITY PREDICTED BY RF-SCORE:    0.00 PKD
ROOT
HETATM    1  C   UNL     1      -8.831  18.950  67.868  1.00  0.00    -0.326 C  
HETATM    2  C   UNL     1      -8.654  17.557  67.282  1.00  0.00    -0.234 C  
ENDROOT
BRANCH   2   3
HETATM    3  C   UNL     1      -9.739  17.248  66.246  1.00  0.00    -0.282 C  
HETATM    4  C   UNL     1      -9.930  15.741  65.959  1.00  0.00    -0.358 C  
HETATM    5  C   UNL     1     -10.950  15.559  64.837  1.00  0.00    -0.436 C  
HETATM    6  C   UNL     1     -10.300  14.906  67.201  1.00  0.00    -0.260 C  
HETATM    7  O   UNL     1     -11.094  14.279  64.429  1.00  0.00    -0.335 OA 
HETATM    8  O   UNL     1     -11.572  16.467  64.307  1.00  0.00    -0.923 OA 
BRANCH   6   9
HETATM    9  C   UNL     1     -11.633  15.292  67.849  1.00  0.00    -0.301 C  
HETATM   10  C   UNL     1     -11.447  15.643  69.317  1.00  0.00    -0.368 C  
ENDBRANCH   6   9
ENDBRANCH   2   3
TORSDOF 2
ENDMDL
MODEL       26
REMARK 921   NORMALIZED FREE ENERGY PREDICTED BY IDOCK:   -3.34 KCAL/MOL
REMARK 922        TOTAL FREE ENERGY PREDICTED BY IDOCK:   -4.09 KCAL/MOL
REMARK 923 INTER-LIGAND FREE ENERGY PREDICTED BY IDOCK:   -3.94 KCAL/MOL
REMARK 924 INTRA-LIGAND FREE ENERGY PREDICTED BY IDOCK:   -0.15 KCAL/MOL
REMARK 927      BINDING AFFINITY PREDICTED BY RF-SCORE:    0.00 PKD
ROOT
HETATM    1  C   UNL     1     -12.727  13.714  71.441  1.00  0.00    -0.437 C  
HETATM    2  C   UNL     1     -12.536  12.345  70.804  1.00  0.00    -0.356 C  
ENDROOT
BRANCH   2   3
HETATM    3  C   UNL     1     -13.156  11.240  71.664  1.00  0.00    -0.513 C  
HETATM    4  C   UNL     1     -13.150   9.843  71.003  1.00  0.00    -0.406 C  
HETATM    5  C   UNL     1     -13.889   8.851  71.897  1.00  0.00    -0.440 C  
HETATM    6  C   UNL     1     -11.744   9.330  70.630  1.00  0.00    -0.276 C  
HETATM    7  O   UNL     1     -14.045   7.626  71.346  1.00  0.00    -0.399 OA 
HETATM    8  O   UNL     1     -14.345   9.112  73.000  1.00  0.00    -0.439 OA 
BRANCH   6   9
HETATM    9  C   UNL     1     -10.804   9.137  71.823  1.00  0.00    -0.416 C  
HETATM   10  C   UNL     1     -10.471   7.666  72.025  1.00  0.00    -0.258 C  
ENDBRANCH   6   9
ENDBRANCH   2   3
TORSDOF 2
ENDMDL
MODEL       27
REMARK 921   NORMALIZED FREE ENERGY PREDICTED BY IDOCK:   -3.34 KCAL/MOL
REMARK 922        TOTAL FREE ENERGY PREDICTED BY IDOCK:   -4.08 KCAL/MOL
REMARK 923 INTER-LIGAND FREE ENERGY PREDICTED BY IDOCK:   -3.77 KCAL/MOL
REMARK 924 INTRA-LIGAND FREE ENERGY PREDICTED BY IDOCK:   -0.31 KCAL/MOL
REMARK 927      BINDING AFFINITY PREDICTED BY RF-SCORE:    0.00 PKD
ROOT
HETATM    1  C   UNL     1     -11.362  12.313  63.338  1.00  0.00    -0.508 C  
HETATM    2  C   UNL     1     -12.281  13.388  63.900  1.00  0.00    -0.478 C  
ENDROOT
BRANCH   2   3
HETATM    3  C   UNL     1     -11.550  14.264  64.923  1.00  0.00    -0.384 C  
HETATM    4  C   UNL     1     -12.039  14.081  66.378  1.00  0.00    -0.483 C  
HETATM    5  C   UNL     1     -11.324  15.078  67.287  1.00  0.00    -0.332 C  
HETATM    6  C   UNL     1     -11.910  12.638  66.908  1.00  0.00    -0.425 C  
HETATM    7  O   UNL     1     -11.775  15.080  68.561  1.00  0.00    -0.320 OA 
HETATM    8  O   UNL     1     -10.446  15.846  66.925  1.00  0.00    -0.301 OA 
BRANCH   6   9
HETATM    9  C   UNL     1     -10.472  12.114  66.972  1.00  0.00    -0.244 C  
HETATM   10  C   UNL     1     -10.414  10.632  66.632  1.00  0.00    -0.296 C  
ENDBRANCH   6   9
ENDBRANCH   2   3
TORSDOF 2
ENDMDL
MODEL       28
REMARK 921   NORMALIZED FREE ENERGY PREDICTED BY IDOCK:   -3.31 KCAL/MOL
REMARK 922        TOTAL FREE ENERGY PREDICTED BY IDOCK:   -4.05 KCAL/MOL
REMARK 923 INTER-LIGAND FREE ENERGY PREDICTED BY IDOCK:   -3.80 KCAL/MOL
REMARK 924 INTRA-LIGAND FREE ENERGY PREDICTED BY IDOCK:   -0.25 KCAL/MOL
REMARK 927      BINDING AFFINITY PREDICTED BY RF-SCORE:    0.00 PKD
ROOT
HETATM    1  C   UNL     1     -12.328  15.343  70.273  1.00  0.00    -0.425 C  
HETATM    2  C   UNL     1     -11.376  14.871  69.183  1.00  0.00    -0.309 C  
ENDROOT
BRANCH   2   3
HETATM    3  C   UNL     1     -12.130  14.545  67.891  1.00  0.00    -0.261 C  
HETATM    4  C   UNL     1     -11.244  13.947  66.774  1.00  0.00    -0.328 C  
HETATM    5  C   UNL     1     -12.073  13.769  65.504  1.00  0.00    -0.410 C  
HETATM    6  C   UNL     1     -10.529  12.639  67.171  1.00  0.00    -0.245 C  
HETATM    7  O   UNL     1     -11.355  13.366  64.432  1.00  0.00    -0.363 OA 
HETATM    8  O   UNL     1     -13.270  13.995  65.415  1.00  0.00    -0.761 OA 
BRANCH   6   9
HETATM    9  C   UNL     1     -11.472  11.479  67.505  1.00  0.00    -0.355 C  
HETATM   10  C   UNL     1     -11.326  11.056  68.959  1.00  0.00    -0.345 C  
ENDBRANCH   6   9
ENDBRANCH   2   3
TORSDOF 2
ENDMDL
MODEL       29
REMARK 921   NORMALIZED FREE ENERGY PREDICTED BY IDOCK:   -3.30 KCAL/MOL
REMARK 922        TOTAL FREE ENERGY PREDICTED BY IDOCK:   -4.04 KCAL/MOL
REMARK 923 INTER-LIGAND FREE ENERGY PREDICTED BY IDOCK:   -3.72 KCAL/MOL
REMARK 924 INTRA-LIGAND FREE ENERGY PREDICTED BY IDOCK:   -0.32 KCAL/MOL
REMARK 927      BINDING AFFINITY PREDICTED BY RF-SCORE:    0.00 PKD
ROOT
HETATM    1  C   UNL     1      -7.496  15.122  68.849  1.00  0.00    -0.143 C  
HETATM    2  C   UNL     1      -7.709  15.031  67.345  1.00  0.00    -0.227 C  
ENDROOT
BRANCH   2   3
HETATM    3  C   UNL     1      -8.656  16.128  66.850  1.00  0.00    -0.253 C  
HETATM    4  C   UNL     1      -9.631  15.672  65.741  1.00  0.00    -0.361 C  
HETATM    5  C   UNL     1     -10.443  16.868  65.249  1.00  0.00    -0.081 C  
HETATM    6  C   UNL     1     -10.543  14.498  66.149  1.00  0.00    -0.308 C  
HETATM    7  O   UNL     1     -11.238  16.594  64.191  1.00  0.00    -1.103 OA 
HETATM    8  O   UNL     1     -10.380  17.994  65.720  1.00  0.00    -0.583 OA 
BRANCH   6   9
HETATM    9  C   UNL     1     -11.488  14.807  67.315  1.00  0.00    -0.378 C  
HETATM   10  C   UNL     1     -11.104  14.014  68.555  1.00  0.00    -0.279 C  
ENDBRANCH   6   9
ENDBRANCH   2   3
TORSDOF 2
ENDMDL
MODEL       30
REMARK 921   NORMALIZED FREE ENERGY PREDICTED BY IDOCK:   -3.29 KCAL/MOL
REMARK 922        TOTAL FREE ENERGY PREDICTED BY IDOCK:   -4.03 KCAL/MOL
REMARK 923 INTER-LIGAND FREE ENERGY PREDICTED BY IDOCK:   -3.90 KCAL/MOL
REMARK 924 INTRA-LIGAND FREE ENERGY PREDICTED BY IDOCK:   -0.13 KCAL/MOL
REMARK 927      BINDING AFFINITY PREDICTED BY RF-SCORE:    0.00 PKD
ROOT
HETATM    1  C   UNL     1     -12.023  15.628  69.663  1.00  0.00    -0.367 C  
HETATM    2  C   UNL     1     -10.621  16.115  69.326  1.00  0.00    -0.280 C  
ENDROOT
BRANCH   2   3
HETATM    3  C   UNL     1     -10.538  16.608  67.878  1.00  0.00    -0.342 C  
HETATM    4  C   UNL     1     -10.590  18.145  67.728  1.00  0.00    -0.407 C  
HETATM    5  C   UNL     1     -10.614  18.514  66.246  1.00  0.00    -0.330 C  
HETATM    6  C   UNL     1      -9.467  18.889  68.478  1.00  0.00    -0.416 C  
HETATM    7  O   UNL     1     -10.785  19.835  66.012  1.00  0.00    -0.472 OA 
HETATM    8  O   UNL     1     -10.526  17.714  65.327  1.00  0.00    -0.630 OA 
BRANCH   6   9
HETATM    9  C   UNL     1      -8.053  18.556  67.992  1.00  0.00    -0.288 C  
HETATM   10  C   UNL     1      -7.004  19.279  68.824  1.00  0.00    -0.365 C  
ENDBRANCH   6   9
ENDBRANCH   2   3
TORSDOF 2
ENDMDL
MODEL       31
REMARK 921   NORMALIZED FREE ENERGY PREDICTED BY IDOCK:   -3.27 KCAL/MOL
REMARK 922        TOTAL FREE ENERGY PREDICTED BY IDOCK:   -4.01 KCAL/MOL
REMARK 923 INTER-LIGAND FREE ENERGY PREDICTED BY IDOCK:   -3.70 KCAL/MOL
REMARK 924 INTRA-LIGAND FREE ENERGY PREDICTED BY IDOCK:   -0.31 KCAL/MOL
REMARK 927      BINDING AFFINITY PREDICTED BY RF-SCORE:    0.00 PKD
ROOT
HETATM    1  C   UNL     1     -10.220  11.428  63.601  1.00  0.00    -0.448 C  
HETATM    2  C   UNL     1      -9.570  11.370  64.976  1.00  0.00    -0.250 C  
ENDROOT
BRANCH   2   3
HETATM    3  C   UNL     1     -10.623  11.249  66.082  1.00  0.00    -0.312 C  
HETATM    4  C   UNL     1     -10.731  12.493  66.993  1.00  0.00    -0.268 C  
HETATM    5  C   UNL     1     -11.723  12.217  68.120  1.00  0.00    -0.349 C  
HETATM    6  C   UNL     1     -11.076  13.794  66.241  1.00  0.00    -0.302 C  
HETATM    7  O   UNL     1     -11.795  13.203  69.041  1.00  0.00    -0.294 OA 
HETATM    8  O   UNL     1     -12.384  11.195  68.233  1.00  0.00    -0.532 OA 
BRANCH   6   9
HETATM    9  C   UNL     1     -12.437  13.777  65.538  1.00  0.00    -0.548 C  
HETATM   10  C   UNL     1     -12.395  14.575  64.244  1.00  0.00    -0.396 C  
ENDBRANCH   6   9
ENDBRANCH   2   3
TORSDOF 2
ENDMDL
MODEL       32
REMARK 921   NORMALIZED FREE ENERGY PREDICTED BY IDOCK:   -3.27 KCAL/MOL
REMARK 922        TOTAL FREE ENERGY PREDICTED BY IDOCK:   -4.01 KCAL/MOL
REMARK 923 INTER-LIGAND FREE ENERGY PREDICTED BY IDOCK:   -3.75 KCAL/MOL
REMARK 924 INTRA-LIGAND FREE ENERGY PREDICTED BY IDOCK:   -0.26 KCAL/MOL
REMARK 927      BINDING AFFINITY PREDICTED BY RF-SCORE:    0.00 PKD
ROOT
HETATM    1  C   UNL     1     -12.140  12.711  63.218  1.00  0.00    -0.524 C  
HETATM    2  C   UNL     1     -12.144  13.694  64.381  1.00  0.00    -0.470 C  
ENDROOT
BRANCH   2   3
HETATM    3  C   UNL     1     -12.226  12.964  65.725  1.00  0.00    -0.498 C  
HETATM    4  C   UNL     1     -11.009  12.062  66.032  1.00  0.00    -0.346 C  
HETATM    5  C   UNL     1     -11.251  11.302  67.334  1.00  0.00    -0.303 C  
HETATM    6  C   UNL     1      -9.661  12.811  66.055  1.00  0.00    -0.226 C  
HETATM    7  O   UNL     1     -10.294  10.393  67.624  1.00  0.00    -0.192 OA 
HETATM    8  O   UNL     1     -12.226  11.449  68.056  1.00  0.00    -0.607 OA 
BRANCH   6   9
HETATM    9  C   UNL     1      -9.556  13.890  67.136  1.00  0.00    -0.247 C  
HETATM   10  C   UNL     1      -9.140  15.226  66.538  1.00  0.00    -0.334 C  
ENDBRANCH   6   9
ENDBRANCH   2   3
TORSDOF 2
ENDMDL
MODEL       33
REMARK 921   NORMALIZED FREE ENERGY PREDICTED BY IDOCK:   -3.24 KCAL/MOL
REMARK 922        TOTAL FREE ENERGY PREDICTED BY IDOCK:   -3.97 KCAL/MOL
REMARK 923 INTER-LIGAND FREE ENERGY PREDICTED BY IDOCK:   -3.73 KCAL/MOL
REMARK 924 INTRA-LIGAND FREE ENERGY PREDICTED BY IDOCK:   -0.25 KCAL/MOL
REMARK 927      BINDING AFFINITY PREDICTED BY RF-SCORE:    0.00 PKD
ROOT
HETATM    1  C   UNL     1      -8.924  15.326  69.370  1.00  0.00    -0.225 C  
HETATM    2  C   UNL     1     -10.355  15.274  68.855  1.00  0.00    -0.243 C  
ENDROOT
BRANCH   2   3
HETATM    3  C   UNL     1     -10.394  14.993  67.350  1.00  0.00    -0.238 C  
HETATM    4  C   UNL     1     -10.766  16.219  66.486  1.00  0.00    -0.187 C  
HETATM    5  C   UNL     1     -10.885  15.797  65.023  1.00  0.00    -0.443 C  
HETATM    6  C   UNL     1      -9.813  17.419  66.653  1.00  0.00    -0.300 C  
HETATM    7  O   UNL     1     -11.328  16.777  64.204  1.00  0.00    -1.194 OA 
HETATM    8  O   UNL     1     -10.645  14.677  64.599  1.00  0.00    -0.392 OA 
BRANCH   6   9
HETATM    9  C   UNL     1      -8.367  17.142  66.231  1.00  0.00    -0.298 C  
HETATM   10  C   UNL     1      -7.382  17.823  67.170  1.00  0.00    -0.208 C  
ENDBRANCH   6   9
ENDBRANCH   2   3
TORSDOF 2
ENDMDL
MODEL       34
REMARK 921   NORMALIZED FREE ENERGY PREDICTED BY IDOCK:   -3.24 KCAL/MOL
REMARK 922        TOTAL FREE ENERGY PREDICTED BY IDOCK:   -3.97 KCAL/MOL
REMARK 923 INTER-LIGAND FREE ENERGY PREDICTED BY IDOCK:   -3.79 KCAL/MOL
REMARK 924 INTRA-LIGAND FREE ENERGY PREDICTED BY IDOCK:   -0.18 KCAL/MOL
REMARK 927      BINDING AFFINITY PREDICTED BY RF-SCORE:    0.00 PKD
ROOT
HETATM    1  C   UNL     1     -12.318  12.071  63.461  1.00  0.00    -0.661 C  
HETATM    2  C   UNL     1     -12.131  13.547  63.778  1.00  0.00    -0.482 C  
ENDROOT
BRANCH   2   3
HETATM    3  C   UNL     1     -12.256  13.813  65.282  1.00  0.00    -0.461 C  
HETATM    4  C   UNL     1     -10.907  13.836  66.035  1.00  0.00    -0.282 C  
HETATM    5  C   UNL     1     -11.159  13.994  67.532  1.00  0.00    -0.298 C  
HETATM    6  C   UNL     1      -9.914  14.895  65.514  1.00  0.00    -0.392 C  
HETATM    7  O   UNL     1     -10.044  13.902  68.290  1.00  0.00    -0.228 OA 
HETATM    8  O   UNL     1     -12.259  14.155  68.041  1.00  0.00    -0.310 OA 
BRANCH   6   9
HETATM    9  C   UNL     1     -10.399  16.341  65.656  1.00  0.00    -0.385 C  
HETATM   10  C   UNL     1      -9.431  17.163  66.493  1.00  0.00    -0.290 C  
ENDBRANCH   6   9
ENDBRANCH   2   3
TORSDOF 2
ENDMDL
MODEL       35
REMARK 921   NORMALIZED FREE ENERGY PREDICTED BY IDOCK:   -3.23 KCAL/MOL
REMARK 922        TOTAL FREE ENERGY PREDICTED BY IDOCK:   -3.96 KCAL/MOL
REMARK 923 INTER-LIGAND FREE ENERGY PREDICTED BY IDOCK:   -3.62 KCAL/MOL
REMARK 924 INTRA-LIGAND FREE ENERGY PREDICTED BY IDOCK:   -0.34 KCAL/MOL
REMARK 927      BINDING AFFINITY PREDICTED BY RF-SCORE:    0.00 PKD
ROOT
HETATM    1  C   UNL     1     -11.104  14.375  68.986  1.00  0.00    -0.282 C  
HETATM    2  C   UNL     1      -9.999  15.416  69.094  1.00  0.00    -0.241 C  
ENDROOT
BRANCH   2   3
HETATM    3  C   UNL     1     -10.418  16.739  68.447  1.00  0.00    -0.339 C  
HETATM    4  C   UNL     1      -9.467  17.228  67.331  1.00  0.00    -0.245 C  
HETATM    5  C   UNL     1      -9.918  18.602  66.840  1.00  0.00    -0.345 C  
HETATM    6  C   UNL     1      -9.306  16.234  66.163  1.00  0.00    -0.374 C  
HETATM    7  O   UNL     1      -9.076  19.169  65.948  1.00  0.00    -0.436 OA 
HETATM    8  O   UNL     1     -10.922  19.184  67.222  1.00  0.00    -0.478 OA 
BRANCH   6   9
HETATM    9  C   UNL     1     -10.600  15.946  65.395  1.00  0.00    -0.439 C  
HETATM   10  C   UNL     1     -10.704  14.472  65.032  1.00  0.00    -0.444 C  
ENDBRANCH   6   9
ENDBRANCH   2   3
TORSDOF 2
ENDMDL
MODEL       36
REMARK 921   NORMALIZED FREE ENERGY PREDICTED BY IDOCK:   -3.18 KCAL/MOL
REMARK 922        TOTAL FREE ENERGY PREDICTED BY IDOCK:   -3.91 KCAL/MOL
REMARK 923 INTER-LIGAND FREE ENERGY PREDICTED BY IDOCK:   -3.66 KCAL/MOL
REMARK 924 INTRA-LIGAND FREE ENERGY PREDICTED BY IDOCK:   -0.25 KCAL/MOL
REMARK 927      BINDING AFFINITY PREDICTED BY RF-SCORE:    0.00 PKD
ROOT
HETATM    1  C   UNL     1      -7.142  19.385  69.237  1.00  0.00    -0.358 C  
HETATM    2  C   UNL     1      -7.490  18.391  68.139  1.00  0.00    -0.279 C  
ENDROOT
BRANCH   2   3
HETATM    3  C   UNL     1      -8.725  18.842  67.353  1.00  0.00    -0.293 C  
HETATM    4  C   UNL     1      -9.363  17.735  66.484  1.00  0.00    -0.291 C  
HETATM    5  C   UNL     1     -10.509  18.324  65.665  1.00  0.00    -0.095 C  
HETATM    6  C   UNL     1      -9.816  16.494  67.280  1.00  0.00    -0.254 C  
HETATM    7  O   UNL     1     -11.052  17.459  64.779  1.00  0.00    -0.973 OA 
HETATM    8  O   UNL     1     -10.904  19.477  65.747  1.00  0.00    -0.453 OA 
BRANCH   6   9
HETATM    9  C   UNL     1     -10.907  16.772  68.318  1.00  0.00    -0.366 C  
HETATM   10  C   UNL     1     -10.494  16.271  69.694  1.00  0.00    -0.294 C  
ENDBRANCH   6   9
ENDBRANCH   2   3
TORSDOF 2
ENDMDL
MODEL       37
REMARK 921   NORMALIZED FREE ENERGY PREDICTED BY IDOCK:   -3.18 KCAL/MOL
REMARK 922        TOTAL FREE ENERGY PREDICTED BY IDOCK:   -3.91 KCAL/MOL
REMARK 923 INTER-LIGAND FREE ENERGY PREDICTED BY IDOCK:   -3.66 KCAL/MOL
REMARK 924 INTRA-LIGAND FREE ENERGY PREDICTED BY IDOCK:   -0.24 KCAL/MOL
REMARK 927      BINDING AFFINITY PREDICTED BY RF-SCORE:    0.00 PKD
ROOT
HETATM    1  C   UNL     1     -12.688  12.009  63.465  1.00  0.00    -0.567 C  
HETATM    2  C   UNL     1     -11.280  12.561  63.633  1.00  0.00    -0.545 C  
ENDROOT
BRANCH   2   3
HETATM    3  C   UNL     1     -11.192  13.501  64.839  1.00  0.00    -0.353 C  
HETATM    4  C   UNL     1     -11.661  12.871  66.169  1.00  0.00    -0.451 C  
HETATM    5  C   UNL     1     -11.637  13.926  67.272  1.00  0.00    -0.365 C  
HETATM    6  C   UNL     1     -10.877  11.607  66.578  1.00  0.00    -0.328 C  
HETATM    7  O   UNL     1     -12.149  13.502  68.449  1.00  0.00    -0.352 OA 
HETATM    8  O   UNL     1     -11.233  15.071  67.133  1.00  0.00    -0.331 OA 
BRANCH   6   9
HETATM    9  C   UNL     1      -9.385  11.843  66.830  1.00  0.00    -0.204 C  
HETATM   10  C   UNL     1      -8.532  10.921  65.971  1.00  0.00    -0.167 C  
ENDBRANCH   6   9
ENDBRANCH   2   3
TORSDOF 2
ENDMDL
MODEL       38
REMARK 921   NORMALIZED FREE ENERGY PREDICTED BY IDOCK:   -3.15 KCAL/MOL
REMARK 922        TOTAL FREE ENERGY PREDICTED BY IDOCK:   -3.88 KCAL/MOL
REMARK 923 INTER-LIGAND FREE ENERGY PREDICTED BY IDOCK:   -3.64 KCAL/MOL
REMARK 924 INTRA-LIGAND FREE ENERGY PREDICTED BY IDOCK:   -0.23 KCAL/MOL
REMARK 927      BINDING AFFINITY PREDICTED BY RF-SCORE:    0.00 PKD
ROOT
HETATM    1  C   UNL     1     -10.396   5.314  70.651  1.00  0.00    -0.324 C  
HETATM    2  C   UNL     1     -10.941   5.918  71.938  1.00  0.00    -0.321 C  
ENDROOT
BRANCH   2   3
HETATM    3  C   UNL     1     -12.169   6.791  71.664  1.00  0.00    -0.410 C  
HETATM    4  C   UNL     1     -12.002   8.270  72.083  1.00  0.00    -0.429 C  
HETATM    5  C   UNL     1     -13.317   9.014  71.870  1.00  0.00    -0.417 C  
HETATM    6  C   UNL     1     -10.826   8.990  71.392  1.00  0.00    -0.400 C  
HETATM    7  O   UNL     1     -13.307  10.287  72.324  1.00  0.00    -0.407 OA 
HETATM    8  O   UNL     1     -14.321   8.527  71.372  1.00  0.00    -0.405 OA 
BRANCH   6   9
HETATM    9  C   UNL     1     -10.952   9.088  69.869  1.00  0.00    -0.204 C  
HETATM   10  C   UNL     1     -11.163  10.529  69.429  1.00  0.00    -0.327 C  
ENDBRANCH   6   9
ENDBRANCH   2   3
TORSDOF 2
ENDMDL
MODEL       39
REMARK 921   NORMALIZED FREE ENERGY PREDICTED BY IDOCK:   -3.14 KCAL/MOL
REMARK 922        TOTAL FREE ENERGY PREDICTED BY IDOCK:   -3.86 KCAL/MOL
REMARK 923 INTER-LIGAND FREE ENERGY PREDICTED BY IDOCK:   -3.66 KCAL/MOL
REMARK 924 INTRA-LIGAND FREE ENERGY PREDICTED BY IDOCK:   -0.20 KCAL/MOL
REMARK 927      BINDING AFFINITY PREDICTED BY RF-SCORE:    0.00 PKD
ROOT
HETATM    1  C   UNL     1     -10.785  11.610  63.148  1.00  0.00    -0.312 C  
HETATM    2  C   UNL     1     -11.866  12.533  63.692  1.00  0.00    -0.610 C  
ENDROOT
BRANCH   2   3
HETATM    3  C   UNL     1     -12.050  12.344  65.201  1.00  0.00    -0.464 C  
HETATM    4  C   UNL     1     -10.769  12.587  66.031  1.00  0.00    -0.292 C  
HETATM    5  C   UNL     1     -11.041  12.262  67.498  1.00  0.00    -0.275 C  
HETATM    6  C   UNL     1     -10.172  13.999  65.866  1.00  0.00    -0.332 C  
HETATM    7  O   UNL     1      -9.945  12.325  68.286  1.00  0.00    -0.208 OA 
HETATM    8  O   UNL     1     -12.128  11.934  67.950  1.00  0.00    -0.558 OA 
BRANCH   6   9
HETATM    9  C   UNL     1     -11.090  15.133  66.332  1.00  0.00    -0.312 C  
HETATM   10  C   UNL     1     -10.464  15.906  67.483  1.00  0.00    -0.298 C  
ENDBRANCH   6   9
ENDBRANCH   2   3
TORSDOF 2
ENDMDL
MODEL       40
REMARK 921   NORMALIZED FREE ENERGY PREDICTED BY IDOCK:   -3.13 KCAL/MOL
REMARK 922        TOTAL FREE ENERGY PREDICTED BY IDOCK:   -3.84 KCAL/MOL
REMARK 923 INTER-LIGAND FREE ENERGY PREDICTED BY IDOCK:   -3.51 KCAL/MOL
REMARK 924 INTRA-LIGAND FREE ENERGY PREDICTED BY IDOCK:   -0.34 KCAL/MOL
REMARK 927      BINDING AFFINITY PREDICTED BY RF-SCORE:    0.00 PKD
ROOT
HETATM    1  C   UNL     1     -12.463  12.648  64.736  1.00  0.00    -0.555 C  
HETATM    2  C   UNL     1     -12.745  13.822  65.662  1.00  0.00    -0.523 C  
ENDROOT
BRANCH   2   3
HETATM    3  C   UNL     1     -11.450  14.378  66.263  1.00  0.00    -0.361 C  
HETATM    4  C   UNL     1     -11.545  14.720  67.767  1.00  0.00    -0.378 C  
HETATM    5  C   UNL     1     -10.241  15.368  68.228  1.00  0.00    -0.229 C  
HETATM    6  C   UNL     1     -11.930  13.524  68.661  1.00  0.00    -0.378 C  
HETATM    7  O   UNL     1     -10.271  15.816  69.502  1.00  0.00    -0.234 OA 
HETATM    8  O   UNL     1      -9.251  15.518  67.527  1.00  0.00    -0.195 OA 
BRANCH   6   9
HETATM    9  C   UNL     1     -10.920  12.372  68.645  1.00  0.00    -0.283 C  
HETATM   10  C   UNL     1     -11.608  11.046  68.358  1.00  0.00    -0.372 C  
ENDBRANCH   6   9
ENDBRANCH   2   3
TORSDOF 2
ENDMDL
MODEL       41
REMARK 921   NORMALIZED FREE ENERGY PREDICTED BY IDOCK:   -3.09 KCAL/MOL
REMARK 922        TOTAL FREE ENERGY PREDICTED BY IDOCK:   -3.80 KCAL/MOL
REMARK 923 INTER-LIGAND FREE ENERGY PREDICTED BY IDOCK:   -3.61 KCAL/MOL
REMARK 924 INTRA-LIGAND FREE ENERGY PREDICTED BY IDOCK:   -0.19 KCAL/MOL
REMARK 927      BINDING AFFINITY PREDICTED BY RF-SCORE:    0.00 PKD
ROOT
HETATM    1  C   UNL     1     -14.383   7.343  71.684  1.00  0.00    -0.614 C  
HETATM    2  C   UNL     1     -14.015   8.695  72.279  1.00  0.00    -0.472 C  
ENDROOT
BRANCH   2   3
HETATM    3  C   UNL     1     -12.509   8.953  72.179  1.00  0.00    -0.459 C  
HETATM    4  C   UNL     1     -12.046   9.486  70.804  1.00  0.00    -0.305 C  
HETATM    5  C   UNL     1     -10.524   9.599  70.784  1.00  0.00    -0.305 C  
HETATM    6  C   UNL     1     -12.717  10.811  70.385  1.00  0.00    -0.346 C  
HETATM    7  O   UNL     1     -10.014   9.940  69.579  1.00  0.00    -0.195 OA 
HETATM    8  O   UNL     1      -9.795   9.373  71.739  1.00  0.00    -0.206 OA 
BRANCH   6   9
HETATM    9  C   UNL     1     -12.422  11.991  71.315  1.00  0.00    -0.303 C  
HETATM   10  C   UNL     1     -13.641  12.345  72.154  1.00  0.00    -0.405 C  
ENDBRANCH   6   9
ENDBRANCH   2   3
TORSDOF 2
ENDMDL
MODEL       42
REMARK 921   NORMALIZED FREE ENERGY PREDICTED BY IDOCK:   -3.08 KCAL/MOL
REMARK 922        TOTAL FREE ENERGY PREDICTED BY IDOCK:   -3.80 KCAL/MOL
REMARK 923 INTER-LIGAND FREE ENERGY PREDICTED BY IDOCK:   -3.60 KCAL/MOL
REMARK 924 INTRA-LIGAND FREE ENERGY PREDICTED BY IDOCK:   -0.20 KCAL/MOL
REMARK 927      BINDING AFFINITY PREDICTED BY RF-SCORE:    0.00 PKD
ROOT
HETATM    1  C   UNL     1     -11.353  10.599  67.649  1.00  0.00    -0.284 C  
HETATM    2  C   UNL     1     -10.527  10.703  68.923  1.00  0.00    -0.232 C  
ENDROOT
BRANCH   2   3
HETATM    3  C   UNL     1     -11.421  10.927  70.147  1.00  0.00    -0.405 C  
HETATM    4  C   UNL     1     -12.212   9.676  70.592  1.00  0.00    -0.235 C  
HETATM    5  C   UNL     1     -13.147  10.044  71.742  1.00  0.00    -0.457 C  
HETATM    6  C   UNL     1     -11.325   8.466  70.949  1.00  0.00    -0.298 C  
HETATM    7  O   UNL     1     -13.972   9.042  72.120  1.00  0.00    -0.431 OA 
HETATM    8  O   UNL     1     -13.199  11.143  72.274  1.00  0.00    -0.413 OA 
BRANCH   6   9
HETATM    9  C   UNL     1     -10.381   8.700  72.132  1.00  0.00    -0.403 C  
HETATM   10  C   UNL     1     -10.547   7.617  73.187  1.00  0.00    -0.438 C  
ENDBRANCH   6   9
ENDBRANCH   2   3
TORSDOF 2
ENDMDL
MODEL       43
REMARK 921   NORMALIZED FREE ENERGY PREDICTED BY IDOCK:   -3.08 KCAL/MOL
REMARK 922        TOTAL FREE ENERGY PREDICTED BY IDOCK:   -3.80 KCAL/MOL
REMARK 923 INTER-LIGAND FREE ENERGY PREDICTED BY IDOCK:   -3.64 KCAL/MOL
REMARK 924 INTRA-LIGAND FREE ENERGY PREDICTED BY IDOCK:   -0.16 KCAL/MOL
REMARK 927      BINDING AFFINITY PREDICTED BY RF-SCORE:    0.00 PKD
ROOT
HETATM    1  C   UNL     1     -13.393  12.796  71.965  1.00  0.00    -0.565 C  
HETATM    2  C   UNL     1     -13.284  11.279  71.911  1.00  0.00    -0.491 C  
ENDROOT
BRANCH   2   3
HETATM    3  C   UNL     1     -12.634  10.816  70.603  1.00  0.00    -0.446 C  
HETATM    4  C   UNL     1     -11.257  10.139  70.785  1.00  0.00    -0.414 C  
HETATM    5  C   UNL     1     -10.657   9.823  69.418  1.00  0.00    -0.228 C  
HETATM    6  C   UNL     1     -11.284   8.892  71.693  1.00  0.00    -0.415 C  
HETATM    7  O   UNL     1      -9.395   9.340  69.470  1.00  0.00    -0.158 OA 
HETATM    8  O   UNL     1     -11.220  10.010  68.349  1.00  0.00    -0.218 OA 
BRANCH   6   9
HETATM    9  C   UNL     1     -12.151   7.745  71.166  1.00  0.00    -0.306 C  
HETATM   10  C   UNL     1     -11.313   6.503  70.899  1.00  0.00    -0.393 C  
ENDBRANCH   6   9
ENDBRANCH   2   3
TORSDOF 2
ENDMDL
MODEL       44
REMARK 921   NORMALIZED FREE ENERGY PREDICTED BY IDOCK:   -3.07 KCAL/MOL
REMARK 922        TOTAL FREE ENERGY PREDICTED BY IDOCK:   -3.78 KCAL/MOL
REMARK 923 INTER-LIGAND FREE ENERGY PREDICTED BY IDOCK:   -3.60 KCAL/MOL
REMARK 924 INTRA-LIGAND FREE ENERGY PREDICTED BY IDOCK:   -0.18 KCAL/MOL
REMARK 927      BINDING AFFINITY PREDICTED BY RF-SCORE:    0.00 PKD
ROOT
HETATM    1  C   UNL     1      -7.559  14.495  67.487  1.00  0.00    -0.211 C  
HETATM    2  C   UNL     1      -8.651  13.517  67.079  1.00  0.00    -0.169 C  
ENDROOT
BRANCH   2   3
HETATM    3  C   UNL     1      -9.707  14.198  66.204  1.00  0.00    -0.310 C  
HETATM    4  C   UNL     1     -11.144  13.669  66.417  1.00  0.00    -0.307 C  
HETATM    5  C   UNL     1     -12.088  14.335  65.419  1.00  0.00    -0.396 C  
HETATM    6  C   UNL     1     -11.658  13.810  67.864  1.00  0.00    -0.376 C  
HETATM    7  O   UNL     1     -13.347  13.846  65.444  1.00  0.00    -0.710 OA 
HETATM    8  O   UNL     1     -11.763  15.209  64.629  1.00  0.00    -0.408 OA 
BRANCH   6   9
HETATM    9  C   UNL     1     -11.759  15.255  68.361  1.00  0.00    -0.340 C  
HETATM   10  C   UNL     1     -12.149  15.302  69.831  1.00  0.00    -0.375 C  
ENDBRANCH   6   9
ENDBRANCH   2   3
TORSDOF 2
ENDMDL
MODEL       45
REMARK 921   NORMALIZED FREE ENERGY PREDICTED BY IDOCK:   -3.06 KCAL/MOL
REMARK 922        TOTAL FREE ENERGY PREDICTED BY IDOCK:   -3.77 KCAL/MOL
REMARK 923 INTER-LIGAND FREE ENERGY PREDICTED BY IDOCK:   -3.53 KCAL/MOL
REMARK 924 INTRA-LIGAND FREE ENERGY PREDICTED BY IDOCK:   -0.24 KCAL/MOL
REMARK 927      BINDING AFFINITY PREDICTED BY RF-SCORE:    0.00 PKD
ROOT
HETATM    1  C   UNL     1      -9.883   6.376  74.451  1.00  0.00    -0.338 C  
HETATM    2  C   UNL     1      -9.947   7.362  73.293  1.00  0.00    -0.341 C  
ENDROOT
BRANCH   2   3
HETATM    3  C   UNL     1     -11.383   7.833  73.044  1.00  0.00    -0.331 C  
HETATM    4  C   UNL     1     -11.536   8.788  71.838  1.00  0.00    -0.432 C  
HETATM    5  C   UNL     1     -12.979   9.280  71.755  1.00  0.00    -0.396 C  
HETATM    6  C   UNL     1     -11.064   8.190  70.498  1.00  0.00    -0.257 C  
HETATM    7  O   UNL     1     -13.186  10.218  70.805  1.00  0.00    -0.385 OA 
HETATM    8  O   UNL     1     -13.885   8.909  72.487  1.00  0.00    -0.456 OA 
BRANCH   6   9
HETATM    9  C   UNL     1     -11.849   6.955  70.045  1.00  0.00    -0.207 C  
HETATM   10  C   UNL     1     -10.930   5.753  69.878  1.00  0.00    -0.389 C  
ENDBRANCH   6   9
ENDBRANCH   2   3
TORSDOF 2
ENDMDL
MODEL       46
REMARK 921   NORMALIZED FREE ENERGY PREDICTED BY IDOCK:   -3.05 KCAL/MOL
REMARK 922        TOTAL FREE ENERGY PREDICTED BY IDOCK:   -3.76 KCAL/MOL
REMARK 923 INTER-LIGAND FREE ENERGY PREDICTED BY IDOCK:   -3.50 KCAL/MOL
REMARK 924 INTRA-LIGAND FREE ENERGY PREDICTED BY IDOCK:   -0.25 KCAL/MOL
REMARK 927      BINDING AFFINITY PREDICTED BY RF-SCORE:    0.00 PKD
ROOT
HETATM    1  C   UNL     1     -11.389  14.738  69.102  1.00  0.00    -0.302 C  
HETATM    2  C   UNL     1     -10.351  14.429  68.033  1.00  0.00    -0.227 C  
ENDROOT
BRANCH   2   3
HETATM    3  C   UNL     1     -10.571  15.284  66.781  1.00  0.00    -0.304 C  
HETATM    4  C   UNL     1     -10.340  16.797  66.998  1.00  0.00    -0.300 C  
HETATM    5  C   UNL     1     -10.696  17.557  65.723  1.00  0.00    -0.106 C  
HETATM    6  C   UNL     1      -8.923  17.152  67.492  1.00  0.00    -0.221 C  
HETATM    7  O   UNL     1     -10.645  18.902  65.852  1.00  0.00    -0.476 OA 
HETATM    8  O   UNL     1     -11.037  17.035  64.671  1.00  0.00    -0.997 OA 
BRANCH   6   9
HETATM    9  C   UNL     1      -7.802  16.782  66.516  1.00  0.00    -0.338 C  
HETATM   10  C   UNL     1      -6.701  16.003  67.219  1.00  0.00    -0.232 C  
ENDBRANCH   6   9
ENDBRANCH   2   3
TORSDOF 2
ENDMDL
MODEL       47
REMARK 921   NORMALIZED FREE ENERGY PREDICTED BY IDOCK:   -3.04 KCAL/MOL
REMARK 922        TOTAL FREE ENERGY PREDICTED BY IDOCK:   -3.75 KCAL/MOL
REMARK 923 INTER-LIGAND FREE ENERGY PREDICTED BY IDOCK:   -3.49 KCAL/MOL
REMARK 924 INTRA-LIGAND FREE ENERGY PREDICTED BY IDOCK:   -0.26 KCAL/MOL
REMARK 927      BINDING AFFINITY PREDICTED BY RF-SCORE:    0.00 PKD
ROOT
HETATM    1  C   UNL     1     -10.722  19.039  67.379  1.00  0.00    -0.559 C  
HETATM    2  C   UNL     1      -9.924  18.080  68.251  1.00  0.00    -0.374 C  
ENDROOT
BRANCH   2   3
HETATM    3  C   UNL     1     -10.617  16.717  68.354  1.00  0.00    -0.354 C  
HETATM    4  C   UNL     1     -10.782  15.986  67.002  1.00  0.00    -0.277 C  
HETATM    5  C   UNL     1     -11.580  14.701  67.210  1.00  0.00    -0.387 C  
HETATM    6  C   UNL     1      -9.453  15.715  66.267  1.00  0.00    -0.351 C  
HETATM    7  O   UNL     1     -11.883  14.052  66.063  1.00  0.00    -0.355 OA 
HETATM    8  O   UNL     1     -11.959  14.283  68.293  1.00  0.00    -0.341 OA 
BRANCH   6   9
HETATM    9  C   UNL     1      -8.487  14.799  67.025  1.00  0.00    -0.250 C  
HETATM   10  C   UNL     1      -7.218  15.543  67.412  1.00  0.00    -0.241 C  
ENDBRANCH   6   9
ENDBRANCH   2   3
TORSDOF 2
ENDMDL
MODEL       48
REMARK 921   NORMALIZED FREE ENERGY PREDICTED BY IDOCK:   -3.04 KCAL/MOL
REMARK 922        TOTAL FREE ENERGY PREDICTED BY IDOCK:   -3.75 KCAL/MOL
REMARK 923 INTER-LIGAND FREE ENERGY PREDICTED BY IDOCK:   -3.42 KCAL/MOL
REMARK 924 INTRA-LIGAND FREE ENERGY PREDICTED BY IDOCK:   -0.33 KCAL/MOL
REMARK 927      BINDING AFFINITY PREDICTED BY RF-SCORE:    0.00 PKD
ROOT
HETATM    1  C   UNL     1     -11.588  16.008  70.746  1.00  0.00    -0.431 C  
HETATM    2  C   UNL     1     -12.444  14.841  70.274  1.00  0.00    -0.393 C  
ENDROOT
BRANCH   2   3
HETATM    3  C   UNL     1     -11.583  13.737  69.652  1.00  0.00    -0.343 C  
HETATM    4  C   UNL     1     -12.015  13.324  68.227  1.00  0.00    -0.338 C  
HETATM    5  C   UNL     1     -11.164  12.148  67.755  1.00  0.00    -0.275 C  
HETATM    6  C   UNL     1     -11.999  14.479  67.205  1.00  0.00    -0.375 C  
HETATM    7  O   UNL     1     -11.549  11.634  66.566  1.00  0.00    -0.473 OA 
HETATM    8  O   UNL     1     -10.235  11.663  68.383  1.00  0.00    -0.195 OA 
BRANCH   6   9
HETATM    9  C   UNL     1     -10.617  15.095  66.968  1.00  0.00    -0.300 C  
HETATM   10  C   UNL     1     -10.604  16.571  67.338  1.00  0.00    -0.300 C  
ENDBRANCH   6   9
ENDBRANCH   2   3
TORSDOF 2
ENDMDL
MODEL       49
REMARK 921   NORMALIZED FREE ENERGY PREDICTED BY IDOCK:   -3.03 KCAL/MOL
REMARK 922        TOTAL FREE ENERGY PREDICTED BY IDOCK:   -3.74 KCAL/MOL
REMARK 923 INTER-LIGAND FREE ENERGY PREDICTED BY IDOCK:   -3.50 KCAL/MOL
REMARK 924 INTRA-LIGAND FREE ENERGY PREDICTED BY IDOCK:   -0.24 KCAL/MOL
REMARK 927      BINDING AFFINITY PREDICTED BY RF-SCORE:    0.00 PKD
ROOT
HETATM    1  C   UNL     1     -11.901  12.983  69.230  1.00  0.00    -0.370 C  
HETATM    2  C   UNL     1     -10.907  13.341  68.135  1.00  0.00    -0.270 C  
ENDROOT
BRANCH   2   3
HETATM    3  C   UNL     1     -10.996  14.825  67.767  1.00  0.00    -0.294 C  
HETATM    4  C   UNL     1     -10.014  15.263  66.656  1.00  0.00    -0.264 C  
HETATM    5  C   UNL     1     -10.111  16.773  66.453  1.00  0.00    -0.317 C  
HETATM    6  C   UNL     1     -10.189  14.500  65.327  1.00  0.00    -0.431 C  
HETATM    7  O   UNL     1      -9.202  17.270  65.586  1.00  0.00    -0.501 OA 
HETATM    8  O   UNL     1     -10.902  17.505  67.030  1.00  0.00    -0.215 OA 
BRANCH   6   9
HETATM    9  C   UNL     1     -11.554  14.696  64.661  1.00  0.00    -0.406 C  
HETATM   10  C   UNL     1     -12.328  13.387  64.604  1.00  0.00    -0.433 C  
ENDBRANCH   6   9
ENDBRANCH   2   3
TORSDOF 2
ENDMDL
MODEL       50
REMARK 921   NORMALIZED FREE ENERGY PREDICTED BY IDOCK:   -3.03 KCAL/MOL
REMARK 922        TOTAL FREE ENERGY PREDICTED BY IDOCK:   -3.74 KCAL/MOL
REMARK 923 INTER-LIGAND FREE ENERGY PREDICTED BY IDOCK:   -3.66 KCAL/MOL
REMARK 924 INTRA-LIGAND FREE ENERGY PREDICTED BY IDOCK:   -0.08 KCAL/MOL
REMARK 927      BINDING AFFINITY PREDICTED BY RF-SCORE:    0.00 PKD
ROOT
HETATM    1  C   UNL     1      -5.300  20.482  69.195  1.00  0.00    -0.329 C  
HETATM    2  C   UNL     1      -5.968  21.143  67.999  1.00  0.00    -0.393 C  
ENDROOT
BRANCH   2   3
HETATM    3  C   UNL     1      -6.537  20.099  67.033  1.00  0.00    -0.248 C  
HETATM    4  C   UNL     1      -7.441  19.041  67.705  1.00  0.00    -0.251 C  
HETATM    5  C   UNL     1      -7.856  17.994  66.674  1.00  0.00    -0.243 C  
HETATM    6  C   UNL     1      -8.664  19.631  68.435  1.00  0.00    -0.357 C  
HETATM    7  O   UNL     1      -8.549  16.956  67.193  1.00  0.00    -0.188 OA 
HETATM    8  O   UNL     1      -7.575  18.036  65.485  1.00  0.00    -0.530 OA 
BRANCH   6   9
HETATM    9  C   UNL     1      -9.645  20.377  67.526  1.00  0.00    -0.560 C  
HETATM   10  C   UNL     1     -10.897  19.550  67.276  1.00  0.00    -0.557 C  
ENDBRANCH   6   9
ENDBRANCH   2   3
TORSDOF 2
ENDMDL
MODEL       51
REMARK 921   NORMALIZED FREE ENERGY PREDICTED BY IDOCK:   -3.02 KCAL/MOL
REMARK 922        TOTAL FREE ENERGY PREDICTED BY IDOCK:   -3.72 KCAL/MOL
REMARK 923 INTER-LIGAND FREE ENERGY PREDICTED BY IDOCK:   -3.60 KCAL/MOL
REMARK 924 INTRA-LIGAND FREE ENERGY PREDICTED BY IDOCK:   -0.13 KCAL/MOL
REMARK 927      BINDING AFFINITY PREDICTED BY RF-SCORE:    0.00 PKD
ROOT
HETATM    1  C   UNL     1     -11.581  14.859  64.774  1.00  0.00    -0.410 C  
HETATM    2  C   UNL     1     -11.296  14.837  66.269  1.00  0.00    -0.334 C  
ENDROOT
BRANCH   2   3
HETATM    3  C   UNL     1      -9.849  15.242  66.565  1.00  0.00    -0.283 C  
HETATM    4  C   UNL     1      -9.413  16.567  65.900  1.00  0.00    -0.254 C  
HETATM    5  C   UNL     1      -7.930  16.811  66.169  1.00  0.00    -0.238 C  
HETATM    6  C   UNL     1     -10.269  17.785  66.303  1.00  0.00    -0.364 C  
HETATM    7  O   UNL     1      -7.424  17.885  65.523  1.00  0.00    -0.524 OA 
HETATM    8  O   UNL     1      -7.222  16.101  66.869  1.00  0.00    -0.216 OA 
BRANCH   6   9
HETATM    9  C   UNL     1     -10.216  18.129  67.795  1.00  0.00    -0.395 C  
HETATM   10  C   UNL     1     -10.347  19.629  68.016  1.00  0.00    -0.579 C  
ENDBRANCH   6   9
ENDBRANCH   2   3
TORSDOF 2
ENDMDL
MODEL       52
REMARK 921   NORMALIZED FREE ENERGY PREDICTED BY IDOCK:   -3.01 KCAL/MOL
REMARK 922        TOTAL FREE ENERGY PREDICTED BY IDOCK:   -3.72 KCAL/MOL
REMARK 923 INTER-LIGAND FREE ENERGY PREDICTED BY IDOCK:   -3.51 KCAL/MOL
REMARK 924 INTRA-LIGAND FREE ENERGY PREDICTED BY IDOCK:   -0.21 KCAL/MOL
REMARK 927      BINDING AFFINITY PREDICTED BY RF-SCORE:    0.00 PKD
ROOT
HETATM    1  C   UNL     1     -10.202   5.578  69.151  1.00  0.00    -0.309 C  
HETATM    2  C   UNL     1     -11.346   6.372  69.763  1.00  0.00    -0.494 C  
ENDROOT
BRANCH   2   3
HETATM    3  C   UNL     1     -11.080   6.681  71.240  1.00  0.00    -0.312 C  
HETATM    4  C   UNL     1      -9.946   7.704  71.480  1.00  0.00    -0.200 C  
HETATM    5  C   UNL     1      -9.695   7.848  72.979  1.00  0.00    -0.283 C  
HETATM    6  C   UNL     1     -10.184   9.074  70.812  1.00  0.00    -0.305 C  
HETATM    7  O   UNL     1      -8.636   8.630  73.285  1.00  0.00    -0.375 OA 
HETATM    8  O   UNL     1     -10.347   7.294  73.851  1.00  0.00    -0.352 OA 
BRANCH   6   9
HETATM    9  C   UNL     1     -11.419   9.821  71.323  1.00  0.00    -0.457 C  
HETATM   10  C   UNL     1     -12.006  10.713  70.239  1.00  0.00    -0.425 C  
ENDBRANCH   6   9
ENDBRANCH   2   3
TORSDOF 2
ENDMDL
MODEL       53
REMARK 921   NORMALIZED FREE ENERGY PREDICTED BY IDOCK:   -2.98 KCAL/MOL
REMARK 922        TOTAL FREE ENERGY PREDICTED BY IDOCK:   -3.69 KCAL/MOL
REMARK 923 INTER-LIGAND FREE ENERGY PREDICTED BY IDOCK:   -3.53 KCAL/MOL
REMARK 924 INTRA-LIGAND FREE ENERGY PREDICTED BY IDOCK:   -0.16 KCAL/MOL
REMARK 927      BINDING AFFINITY PREDICTED BY RF-SCORE:    0.00 PKD
ROOT
HETATM    1  C   UNL     1     -12.146  11.060  70.574  1.00  0.00    -0.470 C  
HETATM    2  C   UNL     1     -11.026  10.860  69.563  1.00  0.00    -0.306 C  
ENDROOT
BRANCH   2   3
HETATM    3  C   UNL     1     -11.473  11.258  68.153  1.00  0.00    -0.376 C  
HETATM    4  C   UNL     1     -11.589  12.783  67.932  1.00  0.00    -0.400 C  
HETATM    5  C   UNL     1     -12.147  13.057  66.537  1.00  0.00    -0.341 C  
HETATM    6  C   UNL     1     -10.277  13.556  68.178  1.00  0.00    -0.249 C  
HETATM    7  O   UNL     1     -12.401  14.362  66.294  1.00  0.00    -0.409 OA 
HETATM    8  O   UNL     1     -12.390  12.198  65.702  1.00  0.00    -0.560 OA 
BRANCH   6   9
HETATM    9  C   UNL     1      -9.130  13.169  67.239  1.00  0.00    -0.217 C  
HETATM   10  C   UNL     1      -7.885  13.995  67.527  1.00  0.00    -0.197 C  
ENDBRANCH   6   9
ENDBRANCH   2   3
TORSDOF 2
ENDMDL
MODEL       54
REMARK 921   NORMALIZED FREE ENERGY PREDICTED BY IDOCK:   -2.98 KCAL/MOL
REMARK 922        TOTAL FREE ENERGY PREDICTED BY IDOCK:   -3.69 KCAL/MOL
REMARK 923 INTER-LIGAND FREE ENERGY PREDICTED BY IDOCK:   -3.33 KCAL/MOL
REMARK 924 INTRA-LIGAND FREE ENERGY PREDICTED BY IDOCK:   -0.36 KCAL/MOL
REMARK 927      BINDING AFFINITY PREDICTED BY RF-SCORE:    0.00 PKD
ROOT
HETATM    1  C   UNL     1      -8.370   8.165  72.225  1.00  0.00    -0.214 C  
HETATM    2  C   UNL     1      -9.404   8.749  71.273  1.00  0.00    -0.319 C  
ENDROOT
BRANCH   2   3
HETATM    3  C   UNL     1     -10.779   8.852  71.941  1.00  0.00    -0.426 C  
HETATM    4  C   UNL     1     -11.894   8.058  71.224  1.00  0.00    -0.321 C  
HETATM    5  C   UNL     1     -13.233   8.325  71.908  1.00  0.00    -0.344 C  
HETATM    6  C   UNL     1     -11.611   6.547  71.101  1.00  0.00    -0.390 C  
HETATM    7  O   UNL     1     -14.292   7.771  71.276  1.00  0.00    -0.384 OA 
HETATM    8  O   UNL     1     -13.379   9.001  72.915  1.00  0.00    -0.337 OA 
BRANCH   6   9
HETATM    9  C   UNL     1     -11.493   5.816  72.442  1.00  0.00    -0.343 C  
HETATM   10  C   UNL     1     -10.267   4.915  72.467  1.00  0.00    -0.248 C  
ENDBRANCH   6   9
ENDBRANCH   2   3
TORSDOF 2
ENDMDL
MODEL       55
REMARK 921   NORMALIZED FREE ENERGY PREDICTED BY IDOCK:   -2.96 KCAL/MOL
REMARK 922        TOTAL FREE ENERGY PREDICTED BY IDOCK:   -3.66 KCAL/MOL
REMARK 923 INTER-LIGAND FREE ENERGY PREDICTED BY IDOCK:   -3.46 KCAL/MOL
REMARK 924 INTRA-LIGAND FREE ENERGY PREDICTED BY IDOCK:   -0.20 KCAL/MOL
REMARK 927      BINDING AFFINITY PREDICTED BY RF-SCORE:    0.00 PKD
ROOT
HETATM    1  C   UNL     1     -10.960   6.347  67.648  1.00  0.00    -0.441 C  
HETATM    2  C   UNL     1     -10.987   6.031  69.136  1.00  0.00    -0.429 C  
ENDROOT
BRANCH   2   3
HETATM    3  C   UNL     1     -10.969   7.312  69.976  1.00  0.00    -0.273 C  
HETATM    4  C   UNL     1     -12.099   7.398  71.026  1.00  0.00    -0.330 C  
HETATM    5  C   UNL     1     -12.051   8.756  71.721  1.00  0.00    -0.350 C  
HETATM    6  C   UNL     1     -12.100   6.240  72.045  1.00  0.00    -0.321 C  
HETATM    7  O   UNL     1     -13.078   8.975  72.572  1.00  0.00    -0.433 OA 
HETATM    8  O   UNL     1     -11.198   9.609  71.525  1.00  0.00    -0.372 OA 
BRANCH   6   9
HETATM    9  C   UNL     1     -10.842   6.164  72.916  1.00  0.00    -0.290 C  
HETATM   10  C   UNL     1     -10.080   4.872  72.666  1.00  0.00    -0.222 C  
ENDBRANCH   6   9
ENDBRANCH   2   3
TORSDOF 2
ENDMDL
MODEL       56
REMARK 921   NORMALIZED FREE ENERGY PREDICTED BY IDOCK:   -2.96 KCAL/MOL
REMARK 922        TOTAL FREE ENERGY PREDICTED BY IDOCK:   -3.66 KCAL/MOL
REMARK 923 INTER-LIGAND FREE ENERGY PREDICTED BY IDOCK:   -3.47 KCAL/MOL
REMARK 924 INTRA-LIGAND FREE ENERGY PREDICTED BY IDOCK:   -0.19 KCAL/MOL
REMARK 927      BINDING AFFINITY PREDICTED BY RF-SCORE:    0.00 PKD
ROOT
HETATM    1  C   UNL     1     -10.152  19.136  67.815  1.00  0.00    -0.469 C  
HETATM    2  C   UNL     1      -9.736  17.719  68.186  1.00  0.00    -0.313 C  
ENDROOT
BRANCH   2   3
HETATM    3  C   UNL     1     -10.705  16.686  67.603  1.00  0.00    -0.306 C  
HETATM    4  C   UNL     1     -10.490  15.248  68.128  1.00  0.00    -0.246 C  
HETATM    5  C   UNL     1     -11.429  14.291  67.399  1.00  0.00    -0.347 C  
HETATM    6  C   UNL     1     -10.620  15.113  69.659  1.00  0.00    -0.274 C  
HETATM    7  O   UNL     1     -11.230  12.989  67.702  1.00  0.00    -0.256 OA 
HETATM    8  O   UNL     1     -12.273  14.629  66.582  1.00  0.00    -0.317 OA 
BRANCH   6   9
HETATM    9  C   UNL     1     -12.005  15.464  70.210  1.00  0.00    -0.386 C  
HETATM   10  C   UNL     1     -11.901  16.115  71.581  1.00  0.00    -0.557 C  
ENDBRANCH   6   9
ENDBRANCH   2   3
TORSDOF 2
ENDMDL
MODEL       57
REMARK 921   NORMALIZED FREE ENERGY PREDICTED BY IDOCK:   -2.96 KCAL/MOL
REMARK 922        TOTAL FREE ENERGY PREDICTED BY IDOCK:   -3.66 KCAL/MOL
REMARK 923 INTER-LIGAND FREE ENERGY PREDICTED BY IDOCK:   -3.46 KCAL/MOL
REMARK 924 INTRA-LIGAND FREE ENERGY PREDICTED BY IDOCK:   -0.20 KCAL/MOL
REMARK 927      BINDING AFFINITY PREDICTED BY RF-SCORE:    0.00 PKD
ROOT
HETATM    1  C   UNL     1     -13.051  10.590  71.742  1.00  0.00    -0.570 C  
HETATM    2  C   UNL     1     -13.302   9.226  72.370  1.00  0.00    -0.521 C  
ENDROOT
BRANCH   2   3
HETATM    3  C   UNL     1     -12.760   8.099  71.486  1.00  0.00    -0.327 C  
HETATM    4  C   UNL     1     -11.226   8.127  71.292  1.00  0.00    -0.297 C  
HETATM    5  C   UNL     1     -10.815   7.034  70.309  1.00  0.00    -0.254 C  
HETATM    6  C   UNL     1     -10.425   8.037  72.607  1.00  0.00    -0.408 C  
HETATM    7  O   UNL     1      -9.504   7.057  69.979  1.00  0.00    -0.161 OA 
HETATM    8  O   UNL     1     -11.578   6.217  69.815  1.00  0.00    -0.436 OA 
BRANCH   6   9
HETATM    9  C   UNL     1     -10.638   6.737  73.389  1.00  0.00    -0.351 C  
HETATM   10  C   UNL     1      -9.309   6.132  73.816  1.00  0.00    -0.136 C  
ENDBRANCH   6   9
ENDBRANCH   2   3
TORSDOF 2
ENDMDL
MODEL       58
REMARK 921   NORMALIZED FREE ENERGY PREDICTED BY IDOCK:   -2.95 KCAL/MOL
REMARK 922        TOTAL FREE ENERGY PREDICTED BY IDOCK:   -3.65 KCAL/MOL
REMARK 923 INTER-LIGAND FREE ENERGY PREDICTED BY IDOCK:   -3.30 KCAL/MOL
REMARK 924 INTRA-LIGAND FREE ENERGY PREDICTED BY IDOCK:   -0.35 KCAL/MOL
REMARK 927      BINDING AFFINITY PREDICTED BY RF-SCORE:    0.00 PKD
ROOT
HETATM    1  C   UNL     1     -11.306  14.546  69.249  1.00  0.00    -0.317 C  
HETATM    2  C   UNL     1     -11.910  13.366  68.500  1.00  0.00    -0.401 C  
ENDROOT
BRANCH   2   3
HETATM    3  C   UNL     1     -10.826  12.533  67.810  1.00  0.00    -0.254 C  
HETATM    4  C   UNL     1     -11.211  12.035  66.399  1.00  0.00    -0.389 C  
HETATM    5  C   UNL     1     -10.109  11.128  65.858  1.00  0.00    -0.247 C  
HETATM    6  C   UNL     1     -11.554  13.164  65.406  1.00  0.00    -0.362 C  
HETATM    7  O   UNL     1     -10.411  10.542  64.677  1.00  0.00    -0.344 OA 
HETATM    8  O   UNL     1      -9.053  10.898  66.427  1.00  0.00    -0.163 OA 
BRANCH   6   9
HETATM    9  C   UNL     1     -10.396  14.123  65.114  1.00  0.00    -0.429 C  
HETATM   10  C   UNL     1     -10.736  15.540  65.551  1.00  0.00    -0.395 C  
ENDBRANCH   6   9
ENDBRANCH   2   3
TORSDOF 2
ENDMDL
MODEL       59
REMARK 921   NORMALIZED FREE ENERGY PREDICTED BY IDOCK:   -2.94 KCAL/MOL
REMARK 922        TOTAL FREE ENERGY PREDICTED BY IDOCK:   -3.63 KCAL/MOL
REMARK 923 INTER-LIGAND FREE ENERGY PREDICTED BY IDOCK:   -3.42 KCAL/MOL
REMARK 924 INTRA-LIGAND FREE ENERGY PREDICTED BY IDOCK:   -0.21 KCAL/MOL
REMARK 927      BINDING AFFINITY PREDICTED BY RF-SCORE:    0.00 PKD
ROOT
HETATM    1  C   UNL     1      -5.816  19.987  70.351  1.00  0.00    -0.367 C  
HETATM    2  C   UNL     1      -6.396  20.076  68.947  1.00  0.00    -0.346 C  
ENDROOT
BRANCH   2   3
HETATM    3  C   UNL     1      -7.733  19.335  68.850  1.00  0.00    -0.376 C  
HETATM    4  C   UNL     1      -8.623  19.787  67.670  1.00  0.00    -0.376 C  
HETATM    5  C   UNL     1      -9.967  19.066  67.738  1.00  0.00    -0.357 C  
HETATM    6  C   UNL     1      -7.963  19.622  66.285  1.00  0.00    -0.339 C  
HETATM    7  O   UNL     1     -10.863  19.487  66.817  1.00  0.00    -0.460 OA 
HETATM    8  O   UNL     1     -10.258  18.209  68.559  1.00  0.00    -0.376 OA 
BRANCH   6   9
HETATM    9  C   UNL     1      -7.626  18.175  65.913  1.00  0.00    -0.166 C  
HETATM   10  C   UNL     1      -6.125  17.987  65.753  1.00  0.00    -0.260 C  
ENDBRANCH   6   9
ENDBRANCH   2   3
TORSDOF 2
ENDMDL
MODEL       60
REMARK 921   NORMALIZED FREE ENERGY PREDICTED BY IDOCK:   -2.93 KCAL/MOL
REMARK 922        TOTAL FREE ENERGY PREDICTED BY IDOCK:   -3.63 KCAL/MOL
REMARK 923 INTER-LIGAND FREE ENERGY PREDICTED BY IDOCK:   -3.39 KCAL/MOL
REMARK 924 INTRA-LIGAND FREE ENERGY PREDICTED BY IDOCK:   -0.24 KCAL/MOL
REMARK 927      BINDING AFFINITY PREDICTED BY RF-SCORE:    0.00 PKD
ROOT
HETATM    1  C   UNL     1     -11.299  14.637  66.488  1.00  0.00    -0.353 C  
HETATM    2  C   UNL     1     -10.068  15.347  65.943  1.00  0.00    -0.370 C  
ENDROOT
BRANCH   2   3
HETATM    3  C   UNL     1     -10.260  16.866  65.937  1.00  0.00    -0.330 C  
HETATM    4  C   UNL     1     -10.149  17.524  67.331  1.00  0.00    -0.325 C  
HETATM    5  C   UNL     1     -10.467  19.013  67.221  1.00  0.00    -0.451 C  
HETATM    6  C   UNL     1      -8.797  17.285  68.034  1.00  0.00    -0.238 C  
HETATM    7  O   UNL     1     -10.518  19.653  68.410  1.00  0.00    -0.419 OA 
HETATM    8  O   UNL     1     -10.697  19.602  66.175  1.00  0.00    -0.464 OA 
BRANCH   6   9
HETATM    9  C   UNL     1      -7.589  17.867  67.295  1.00  0.00    -0.217 C  
HETATM   10  C   UNL     1      -6.490  16.826  67.137  1.00  0.00    -0.225 C  
ENDBRANCH   6   9
ENDBRANCH   2   3
TORSDOF 2
ENDMDL
MODEL       61
REMARK 921   NORMALIZED FREE ENERGY PREDICTED BY IDOCK:   -2.93 KCAL/MOL
REMARK 922        TOTAL FREE ENERGY PREDICTED BY IDOCK:   -3.62 KCAL/MOL
REMARK 923 INTER-LIGAND FREE ENERGY PREDICTED BY IDOCK:   -3.27 KCAL/MOL
REMARK 924 INTRA-LIGAND FREE ENERGY PREDICTED BY IDOCK:   -0.35 KCAL/MOL
REMARK 927      BINDING AFFINITY PREDICTED BY RF-SCORE:    0.00 PKD
ROOT
HETATM    1  C   UNL     1     -12.029  12.667  63.370  1.00  0.00    -0.613 C  
HETATM    2  C   UNL     1     -10.593  12.235  63.624  1.00  0.00    -0.501 C  
ENDROOT
BRANCH   2   3
HETATM    3  C   UNL     1     -10.538  10.973  64.490  1.00  0.00    -0.383 C  
HETATM    4  C   UNL     1      -9.559  11.064  65.683  1.00  0.00    -0.265 C  
HETATM    5  C   UNL     1      -9.503   9.720  66.404  1.00  0.00    -0.184 C  
HETATM    6  C   UNL     1      -9.865  12.218  66.660  1.00  0.00    -0.230 C  
HETATM    7  O   UNL     1      -8.580   9.663  67.389  1.00  0.00    -0.125 OA 
HETATM    8  O   UNL     1     -10.189   8.748  66.121  1.00  0.00    -0.233 OA 
BRANCH   6   9
HETATM    9  C   UNL     1     -11.226  12.114  67.354  1.00  0.00    -0.362 C  
HETATM   10  C   UNL     1     -12.114  13.297  66.997  1.00  0.00    -0.375 C  
ENDBRANCH   6   9
ENDBRANCH   2   3
TORSDOF 2
ENDMDL
MODEL       62
REMARK 921   NORMALIZED FREE ENERGY PREDICTED BY IDOCK:   -2.92 KCAL/MOL
REMARK 922        TOTAL FREE ENERGY PREDICTED BY IDOCK:   -3.62 KCAL/MOL
REMARK 923 INTER-LIGAND FREE ENERGY PREDICTED BY IDOCK:   -3.30 KCAL/MOL
REMARK 924 INTRA-LIGAND FREE ENERGY PREDICTED BY IDOCK:   -0.32 KCAL/MOL
REMARK 927      BINDING AFFINITY PREDICTED BY RF-SCORE:    0.00 PKD
ROOT
HETATM    1  C   UNL     1     -10.736  14.660  65.005  1.00  0.00    -0.448 C  
HETATM    2  C   UNL     1     -11.863  14.325  65.972  1.00  0.00    -0.399 C  
ENDROOT
BRANCH   2   3
HETATM    3  C   UNL     1     -11.455  14.612  67.420  1.00  0.00    -0.384 C  
HETATM    4  C   UNL     1     -12.084  13.655  68.458  1.00  0.00    -0.321 C  
HETATM    5  C   UNL     1     -11.701  14.102  69.866  1.00  0.00    -0.309 C  
HETATM    6  C   UNL     1     -11.749  12.167  68.225  1.00  0.00    -0.401 C  
HETATM    7  O   UNL     1     -12.305  13.399  70.849  1.00  0.00    -0.366 OA 
HETATM    8  O   UNL     1     -10.948  15.030  70.122  1.00  0.00    -0.249 OA 
BRANCH   6   9
HETATM    9  C   UNL     1     -10.258  11.832  68.326  1.00  0.00    -0.209 C  
HETATM   10  C   UNL     1      -9.713  11.351  66.989  1.00  0.00    -0.210 C  
ENDBRANCH   6   9
ENDBRANCH   2   3
TORSDOF 2
ENDMDL
MODEL       63
REMARK 921   NORMALIZED FREE ENERGY PREDICTED BY IDOCK:   -2.92 KCAL/MOL
REMARK 922        TOTAL FREE ENERGY PREDICTED BY IDOCK:   -3.61 KCAL/MOL
REMARK 923 INTER-LIGAND FREE ENERGY PREDICTED BY IDOCK:   -3.41 KCAL/MOL
REMARK 924 INTRA-LIGAND FREE ENERGY PREDICTED BY IDOCK:   -0.20 KCAL/MOL
REMARK 927      BINDING AFFINITY PREDICTED BY RF-SCORE:    0.00 PKD
ROOT
HETATM    1  C   UNL     1     -12.141  11.277  70.283  1.00  0.00    -0.459 C  
HETATM    2  C   UNL     1     -11.886  12.430  69.324  1.00  0.00    -0.361 C  
ENDROOT
BRANCH   2   3
HETATM    3  C   UNL     1     -11.368  11.926  67.974  1.00  0.00    -0.352 C  
HETATM    4  C   UNL     1     -11.867  12.741  66.759  1.00  0.00    -0.452 C  
HETATM    5  C   UNL     1     -11.382  12.084  65.469  1.00  0.00    -0.328 C  
HETATM    6  C   UNL     1     -11.493  14.236  66.808  1.00  0.00    -0.380 C  
HETATM    7  O   UNL     1     -11.872  12.654  64.345  1.00  0.00    -0.344 OA 
HETATM    8  O   UNL     1     -10.648  11.108  65.416  1.00  0.00    -0.265 OA 
BRANCH   6   9
HETATM    9  C   UNL     1      -9.987  14.512  66.797  1.00  0.00    -0.267 C  
HETATM   10  C   UNL     1      -9.551  15.221  68.070  1.00  0.00    -0.203 C  
ENDBRANCH   6   9
ENDBRANCH   2   3
TORSDOF 2
ENDMDL
MODEL       64
REMARK 921   NORMALIZED FREE ENERGY PREDICTED BY IDOCK:   -2.90 KCAL/MOL
REMARK 922        TOTAL FREE ENERGY PREDICTED BY IDOCK:   -3.60 KCAL/MOL
REMARK 923 INTER-LIGAND FREE ENERGY PREDICTED BY IDOCK:   -3.26 KCAL/MOL
REMARK 924 INTRA-LIGAND FREE ENERGY PREDICTED BY IDOCK:   -0.34 KCAL/MOL
REMARK 927      BINDING AFFINITY PREDICTED BY RF-SCORE:    0.00 PKD
ROOT
HETATM    1  C   UNL     1     -12.171   8.548  72.284  1.00  0.00    -0.454 C  
HETATM    2  C   UNL     1     -11.000   9.290  71.656  1.00  0.00    -0.433 C  
ENDROOT
BRANCH   2   3
HETATM    3  C   UNL     1     -11.371   9.850  70.280  1.00  0.00    -0.357 C  
HETATM    4  C   UNL     1     -10.230   9.781  69.239  1.00  0.00    -0.216 C  
HETATM    5  C   UNL     1     -10.673  10.466  67.948  1.00  0.00    -0.261 C  
HETATM    6  C   UNL     1      -9.707   8.355  68.973  1.00  0.00    -0.171 C  
HETATM    7  O   UNL     1      -9.699  10.566  67.018  1.00  0.00    -0.170 OA 
HETATM    8  O   UNL     1     -11.788  10.926  67.750  1.00  0.00    -0.579 OA 
BRANCH   6   9
HETATM    9  C   UNL     1     -10.750   7.398  68.387  1.00  0.00    -0.142 C  
HETATM   10  C   UNL     1     -11.074   6.277  69.362  1.00  0.00    -0.477 C  
ENDBRANCH   6   9
ENDBRANCH   2   3
TORSDOF 2
ENDMDL
MODEL       65
REMARK 921   NORMALIZED FREE ENERGY PREDICTED BY IDOCK:   -2.88 KCAL/MOL
REMARK 922        TOTAL FREE ENERGY PREDICTED BY IDOCK:   -3.57 KCAL/MOL
REMARK 923 INTER-LIGAND FREE ENERGY PREDICTED BY IDOCK:   -3.43 KCAL/MOL
REMARK 924 INTRA-LIGAND FREE ENERGY PREDICTED BY IDOCK:   -0.15 KCAL/MOL
REMARK 927      BINDING AFFINITY PREDICTED BY RF-SCORE:    0.00 PKD
ROOT
HETATM    1  C   UNL     1     -11.611  15.993  70.926  1.00  0.00    -0.453 C  
HETATM    2  C   UNL     1     -11.821  14.870  69.921  1.00  0.00    -0.355 C  
ENDROOT
BRANCH   2   3
HETATM    3  C   UNL     1     -10.722  14.864  68.855  1.00  0.00    -0.245 C  
HETATM    4  C   UNL     1     -10.498  13.491  68.182  1.00  0.00    -0.249 C  
HETATM    5  C   UNL     1      -9.312  13.577  67.225  1.00  0.00    -0.233 C  
HETATM    6  C   UNL     1     -11.750  12.923  67.482  1.00  0.00    -0.422 C  
HETATM    7  O   UNL     1      -8.959  12.392  66.679  1.00  0.00    -0.212 OA 
HETATM    8  O   UNL     1      -8.688  14.598  66.978  1.00  0.00    -0.215 OA 
BRANCH   6   9
HETATM    9  C   UNL     1     -12.270  13.780  66.324  1.00  0.00    -0.489 C  
HETATM   10  C   UNL     1     -12.452  12.946  65.064  1.00  0.00    -0.553 C  
ENDBRANCH   6   9
ENDBRANCH   2   3
TORSDOF 2
ENDMDL
MODEL       66
REMARK 921   NORMALIZED FREE ENERGY PREDICTED BY IDOCK:   -2.87 KCAL/MOL
REMARK 922        TOTAL FREE ENERGY PREDICTED BY IDOCK:   -3.56 KCAL/MOL
REMARK 923 INTER-LIGAND FREE ENERGY PREDICTED BY IDOCK:   -3.33 KCAL/MOL
REMARK 924 INTRA-LIGAND FREE ENERGY PREDICTED BY IDOCK:   -0.23 KCAL/MOL
REMARK 927      BINDING AFFINITY PREDICTED BY RF-SCORE:    0.00 PKD
ROOT
HETATM    1  C   UNL     1     -12.250  15.723  71.975  1.00  0.00    -0.548 C  
HETATM    2  C   UNL     1     -11.096  15.399  71.037  1.00  0.00    -0.377 C  
ENDROOT
BRANCH   2   3
HETATM    3  C   UNL     1     -11.089  16.332  69.822  1.00  0.00    -0.337 C  
HETATM    4  C   UNL     1      -9.905  16.106  68.855  1.00  0.00    -0.239 C  
HETATM    5  C   UNL     1      -9.937  17.159  67.750  1.00  0.00    -0.290 C  
HETATM    6  C   UNL     1      -9.831  14.679  68.275  1.00  0.00    -0.222 C  
HETATM    7  O   UNL     1      -8.869  17.119  66.923  1.00  0.00    -0.218 OA 
HETATM    8  O   UNL     1     -10.813  18.000  67.614  1.00  0.00    -0.390 OA 
BRANCH   6   9
HETATM    9  C   UNL     1     -11.038  14.280  67.421  1.00  0.00    -0.314 C  
HETATM   10  C   UNL     1     -11.803  13.129  68.058  1.00  0.00    -0.398 C  
ENDBRANCH   6   9
ENDBRANCH   2   3
TORSDOF 2
ENDMDL
MODEL       67
REMARK 921   NORMALIZED FREE ENERGY PREDICTED BY IDOCK:   -2.87 KCAL/MOL
REMARK 922        TOTAL FREE ENERGY PREDICTED BY IDOCK:   -3.55 KCAL/MOL
REMARK 923 INTER-LIGAND FREE ENERGY PREDICTED BY IDOCK:   -3.34 KCAL/MOL
REMARK 924 INTRA-LIGAND FREE ENERGY PREDICTED BY IDOCK:   -0.22 KCAL/MOL
REMARK 927      BINDING AFFINITY PREDICTED BY RF-SCORE:    0.00 PKD
ROOT
HETATM    1  C   UNL     1     -11.593  10.664  70.520  1.00  0.00    -0.444 C  
HETATM    2  C   UNL     1     -12.157  11.371  69.296  1.00  0.00    -0.356 C  
ENDROOT
BRANCH   2   3
HETATM    3  C   UNL     1     -12.409  12.855  69.579  1.00  0.00    -0.040 C  
HETATM    4  C   UNL     1     -11.243  13.785  69.174  1.00  0.00    -0.307 C  
HETATM    5  C   UNL     1     -11.557  15.216  69.603  1.00  0.00    -0.311 C  
HETATM    6  C   UNL     1     -10.870  13.711  67.680  1.00  0.00    -0.268 C  
HETATM    7  O   UNL     1     -10.541  16.085  69.403  1.00  0.00    -0.232 OA 
HETATM    8  O   UNL     1     -12.605  15.576  70.118  1.00  0.00    -0.380 OA 
BRANCH   6   9
HETATM    9  C   UNL     1     -11.987  14.146  66.727  1.00  0.00    -0.475 C  
HETATM   10  C   UNL     1     -12.234  13.092  65.657  1.00  0.00    -0.521 C  
ENDBRANCH   6   9
ENDBRANCH   2   3
TORSDOF 2
ENDMDL
MODEL       68
REMARK 921   NORMALIZED FREE ENERGY PREDICTED BY IDOCK:   -2.85 KCAL/MOL
REMARK 922        TOTAL FREE ENERGY PREDICTED BY IDOCK:   -3.53 KCAL/MOL
REMARK 923 INTER-LIGAND FREE ENERGY PREDICTED BY IDOCK:   -3.30 KCAL/MOL
REMARK 924 INTRA-LIGAND FREE ENERGY PREDICTED BY IDOCK:   -0.23 KCAL/MOL
REMARK 927      BINDING AFFINITY PREDICTED BY RF-SCORE:    0.00 PKD
ROOT
HETATM    1  C   UNL     1     -11.357  15.905  70.731  1.00  0.00    -0.424 C  
HETATM    2  C   UNL     1     -11.116  15.207  69.401  1.00  0.00    -0.283 C  
ENDROOT
BRANCH   2   3
HETATM    3  C   UNL     1      -9.731  15.545  68.840  1.00  0.00    -0.223 C  
HETATM    4  C   UNL     1      -9.760  16.366  67.531  1.00  0.00    -0.231 C  
HETATM    5  C   UNL     1      -8.338  16.546  67.008  1.00  0.00    -0.190 C  
HETATM    6  C   UNL     1     -10.493  17.718  67.653  1.00  0.00    -0.393 C  
HETATM    7  O   UNL     1      -8.269  17.147  65.799  1.00  0.00    -0.515 OA 
HETATM    8  O   UNL     1      -7.330  16.162  67.582  1.00  0.00    -0.123 OA 
BRANCH   6   9
HETATM    9  C   UNL     1      -9.856  18.696  68.645  1.00  0.00    -0.427 C  
HETATM   10  C   UNL     1      -9.724  20.084  68.036  1.00  0.00    -0.492 C  
ENDBRANCH   6   9
ENDBRANCH   2   3
TORSDOF 2
ENDMDL
MODEL       69
REMARK 921   NORMALIZED FREE ENERGY PREDICTED BY IDOCK:   -2.84 KCAL/MOL
REMARK 922        TOTAL FREE ENERGY PREDICTED BY IDOCK:   -3.53 KCAL/MOL
REMARK 923 INTER-LIGAND FREE ENERGY PREDICTED BY IDOCK:   -3.30 KCAL/MOL
REMARK 924 INTRA-LIGAND FREE ENERGY PREDICTED BY IDOCK:   -0.23 KCAL/MOL
REMARK 927      BINDING AFFINITY PREDICTED BY RF-SCORE:    0.00 PKD
ROOT
HETATM    1  C   UNL     1      -7.354  14.814  68.259  1.00  0.00    -0.115 C  
HETATM    2  C   UNL     1      -8.546  15.653  68.699  1.00  0.00    -0.188 C  
ENDROOT
BRANCH   2   3
HETATM    3  C   UNL     1      -9.171  16.395  67.514  1.00  0.00    -0.199 C  
HETATM    4  C   UNL     1      -9.642  17.830  67.842  1.00  0.00    -0.280 C  
HETATM    5  C   UNL     1     -10.346  18.427  66.626  1.00  0.00    -0.396 C  
HETATM    6  C   UNL     1      -8.524  18.756  68.361  1.00  0.00    -0.374 C  
HETATM    7  O   UNL     1     -10.904  19.637  66.855  1.00  0.00    -0.483 OA 
HETATM    8  O   UNL     1     -10.448  17.878  65.539  1.00  0.00    -0.650 OA 
BRANCH   6   9
HETATM    9  C   UNL     1      -7.390  19.000  67.361  1.00  0.00    -0.245 C  
HETATM   10  C   UNL     1      -7.253  20.480  67.038  1.00  0.00    -0.368 C  
ENDBRANCH   6   9
ENDBRANCH   2   3
TORSDOF 2
ENDMDL
MODEL       70
REMARK 921   NORMALIZED FREE ENERGY PREDICTED BY IDOCK:   -2.83 KCAL/MOL
REMARK 922        TOTAL FREE ENERGY PREDICTED BY IDOCK:   -3.52 KCAL/MOL
REMARK 923 INTER-LIGAND FREE ENERGY PREDICTED BY IDOCK:   -3.34 KCAL/MOL
REMARK 924 INTRA-LIGAND FREE ENERGY PREDICTED BY IDOCK:   -0.17 KCAL/MOL
REMARK 927      BINDING AFFINITY PREDICTED BY RF-SCORE:    0.00 PKD
ROOT
HETATM    1  C   UNL     1      -8.184   9.857  69.767  1.00  0.00    -0.191 C  
HETATM    2  C   UNL     1      -9.683  10.109  69.700  1.00  0.00    -0.250 C  
ENDROOT
BRANCH   2   3
HETATM    3  C   UNL     1     -10.465   8.794  69.630  1.00  0.00    -0.220 C  
HETATM    4  C   UNL     1     -10.802   8.183  71.009  1.00  0.00    -0.265 C  
HETATM    5  C   UNL     1     -11.477   6.827  70.817  1.00  0.00    -0.342 C  
HETATM    6  C   UNL     1     -11.637   9.107  71.919  1.00  0.00    -0.430 C  
HETATM    7  O   UNL     1     -11.700   6.157  71.970  1.00  0.00    -0.312 OA 
HETATM    8  O   UNL     1     -11.772   6.342  69.735  1.00  0.00    -0.403 OA 
BRANCH   6   9
HETATM    9  C   UNL     1     -13.021   9.459  71.364  1.00  0.00    -0.421 C  
HETATM   10  C   UNL     1     -14.124   8.861  72.224  1.00  0.00    -0.512 C  
ENDBRANCH   6   9
ENDBRANCH   2   3
TORSDOF 2
ENDMDL
MODEL       71
REMARK 921   NORMALIZED FREE ENERGY PREDICTED BY IDOCK:   -2.83 KCAL/MOL
REMARK 922        TOTAL FREE ENERGY PREDICTED BY IDOCK:   -3.51 KCAL/MOL
REMARK 923 INTER-LIGAND FREE ENERGY PREDICTED BY IDOCK:   -3.18 KCAL/MOL
REMARK 924 INTRA-LIGAND FREE ENERGY PREDICTED BY IDOCK:   -0.33 KCAL/MOL
REMARK 927      BINDING AFFINITY PREDICTED BY RF-SCORE:    0.00 PKD
ROOT
HETATM    1  C   UNL     1     -11.935  12.946  66.100  1.00  0.00    -0.491 C  
HETATM    2  C   UNL     1     -11.681  14.412  65.780  1.00  0.00    -0.362 C  
ENDROOT
BRANCH   2   3
HETATM    3  C   UNL     1     -10.394  14.910  66.445  1.00  0.00    -0.291 C  
HETATM    4  C   UNL     1     -10.604  16.075  67.439  1.00  0.00    -0.316 C  
HETATM    5  C   UNL     1      -9.250  16.561  67.950  1.00  0.00    -0.211 C  
HETATM    6  C   UNL     1     -11.563  15.745  68.601  1.00  0.00    -0.392 C  
HETATM    7  O   UNL     1      -9.321  17.661  68.733  1.00  0.00    -0.276 OA 
HETATM    8  O   UNL     1      -8.175  16.051  67.671  1.00  0.00    -0.143 OA 
BRANCH   6   9
HETATM    9  C   UNL     1     -11.084  14.612  69.513  1.00  0.00    -0.294 C  
HETATM   10  C   UNL     1     -12.256  13.777  70.009  1.00  0.00    -0.407 C  
ENDBRANCH   6   9
ENDBRANCH   2   3
TORSDOF 2
ENDMDL
MODEL       72
REMARK 921   NORMALIZED FREE ENERGY PREDICTED BY IDOCK:   -2.81 KCAL/MOL
REMARK 922        TOTAL FREE ENERGY PREDICTED BY IDOCK:   -3.50 KCAL/MOL
REMARK 923 INTER-LIGAND FREE ENERGY PREDICTED BY IDOCK:   -3.35 KCAL/MOL
REMARK 924 INTRA-LIGAND FREE ENERGY PREDICTED BY IDOCK:   -0.15 KCAL/MOL
REMARK 927      BINDING AFFINITY PREDICTED BY RF-SCORE:    0.00 PKD
ROOT
HETATM    1  C   UNL     1     -10.634   4.099  73.434  1.00  0.00    -0.277 C  
HETATM    2  C   UNL     1     -11.401   5.331  72.976  1.00  0.00    -0.376 C  
ENDROOT
BRANCH   2   3
HETATM    3  C   UNL     1     -10.509   6.576  72.984  1.00  0.00    -0.258 C  
HETATM    4  C   UNL     1     -10.599   7.429  71.698  1.00  0.00    -0.229 C  
HETATM    5  C   UNL     1      -9.590   8.572  71.771  1.00  0.00    -0.267 C  
HETATM    6  C   UNL     1     -12.017   7.945  71.384  1.00  0.00    -0.331 C  
HETATM    7  O   UNL     1      -9.506   9.303  70.637  1.00  0.00    -0.235 OA 
HETATM    8  O   UNL     1      -8.879   8.815  72.735  1.00  0.00    -0.382 OA 
BRANCH   6   9
HETATM    9  C   UNL     1     -12.599   8.883  72.445  1.00  0.00    -0.423 C  
HETATM   10  C   UNL     1     -13.079  10.185  71.822  1.00  0.00    -0.568 C  
ENDBRANCH   6   9
ENDBRANCH   2   3
TORSDOF 2
ENDMDL
MODEL       73
REMARK 921   NORMALIZED FREE ENERGY PREDICTED BY IDOCK:   -2.80 KCAL/MOL
REMARK 922        TOTAL FREE ENERGY PREDICTED BY IDOCK:   -3.48 KCAL/MOL
REMARK 923 INTER-LIGAND FREE ENERGY PREDICTED BY IDOCK:   -3.12 KCAL/MOL
REMARK 924 INTRA-LIGAND FREE ENERGY PREDICTED BY IDOCK:   -0.36 KCAL/MOL
REMARK 927      BINDING AFFINITY PREDICTED BY RF-SCORE:    0.00 PKD
ROOT
HETATM    1  C   UNL     1     -10.434   8.841  67.026  1.00  0.00    -0.338 C  
HETATM    2  C   UNL     1      -9.740   8.138  68.184  1.00  0.00    -0.180 C  
ENDROOT
BRANCH   2   3
HETATM    3  C   UNL     1     -10.754   7.625  69.210  1.00  0.00    -0.169 C  
HETATM    4  C   UNL     1     -10.529   8.157  70.644  1.00  0.00    -0.224 C  
HETATM    5  C   UNL     1     -11.522   7.496  71.597  1.00  0.00    -0.261 C  
HETATM    6  C   UNL     1     -10.572   9.694  70.759  1.00  0.00    -0.392 C  
HETATM    7  O   UNL     1     -11.322   7.804  72.898  1.00  0.00    -0.387 OA 
HETATM    8  O   UNL     1     -12.406   6.724  71.257  1.00  0.00    -0.363 OA 
BRANCH   6   9
HETATM    9  C   UNL     1     -11.918  10.319  70.381  1.00  0.00    -0.391 C  
HETATM   10  C   UNL     1     -11.730  11.481  69.417  1.00  0.00    -0.413 C  
ENDBRANCH   6   9
ENDBRANCH   2   3
TORSDOF 2
ENDMDL
MODEL       74
REMARK 921   NORMALIZED FREE ENERGY PREDICTED BY IDOCK:   -2.79 KCAL/MOL
REMARK 922        TOTAL FREE ENERGY PREDICTED BY IDOCK:   -3.47 KCAL/MOL
REMARK 923 INTER-LIGAND FREE ENERGY PREDICTED BY IDOCK:   -3.31 KCAL/MOL
REMARK 924 INTRA-LIGAND FREE ENERGY PREDICTED BY IDOCK:   -0.16 KCAL/MOL
REMARK 927      BINDING AFFINITY PREDICTED BY RF-SCORE:    0.00 PKD
ROOT
HETATM    1  C   UNL     1     -12.936  15.216  70.819  1.00  0.00    -0.468 C  
HETATM    2  C   UNL     1     -11.991  14.836  69.688  1.00  0.00    -0.360 C  
ENDROOT
BRANCH   2   3
HETATM    3  C   UNL     1     -11.634  16.054  68.831  1.00  0.00    -0.354 C  
HETATM    4  C   UNL     1     -10.282  16.711  69.194  1.00  0.00    -0.309 C  
HETATM    5  C   UNL     1     -10.085  17.973  68.358  1.00  0.00    -0.387 C  
HETATM    6  C   UNL     1      -9.072  15.762  69.082  1.00  0.00    -0.262 C  
HETATM    7  O   UNL     1      -8.987  18.686  68.691  1.00  0.00    -0.324 OA 
HETATM    8  O   UNL     1     -10.847  18.355  67.482  1.00  0.00    -0.408 OA 
BRANCH   6   9
HETATM    9  C   UNL     1      -8.814  15.231  67.668  1.00  0.00    -0.180 C  
HETATM   10  C   UNL     1      -7.511  15.781  67.107  1.00  0.00    -0.259 C  
ENDBRANCH   6   9
ENDBRANCH   2   3
TORSDOF 2
ENDMDL
MODEL       75
REMARK 921   NORMALIZED FREE ENERGY PREDICTED BY IDOCK:   -2.78 KCAL/MOL
REMARK 922        TOTAL FREE ENERGY PREDICTED BY IDOCK:   -3.46 KCAL/MOL
REMARK 923 INTER-LIGAND FREE ENERGY PREDICTED BY IDOCK:   -3.20 KCAL/MOL
REMARK 924 INTRA-LIGAND FREE ENERGY PREDICTED BY IDOCK:   -0.27 KCAL/MOL
REMARK 927      BINDING AFFINITY PREDICTED BY RF-SCORE:    0.00 PKD
ROOT
HETATM    1  C   UNL     1      -7.327  16.757  66.336  1.00  0.00    -0.261 C  
HETATM    2  C   UNL     1      -7.655  15.935  67.575  1.00  0.00    -0.186 C  
ENDROOT
BRANCH   2   3
HETATM    3  C   UNL     1      -9.101  15.431  67.540  1.00  0.00    -0.199 C  
HETATM    4  C   UNL     1      -9.983  15.957  68.695  1.00  0.00    -0.214 C  
HETATM    5  C   UNL     1     -11.362  15.305  68.624  1.00  0.00    -0.317 C  
HETATM    6  C   UNL     1     -10.087  17.495  68.757  1.00  0.00    -0.363 C  
HETATM    7  O   UNL     1     -12.167  15.608  69.666  1.00  0.00    -0.352 OA 
HETATM    8  O   UNL     1     -11.728  14.543  67.741  1.00  0.00    -0.349 OA 
BRANCH   6   9
HETATM    9  C   UNL     1     -10.736  18.135  67.526  1.00  0.00    -0.365 C  
HETATM   10  C   UNL     1     -10.464  19.631  67.480  1.00  0.00    -0.589 C  
ENDBRANCH   6   9
ENDBRANCH   2   3
TORSDOF 2
ENDMDL
MODEL       76
REMARK 921   NORMALIZED FREE ENERGY PREDICTED BY IDOCK:   -2.78 KCAL/MOL
REMARK 922        TOTAL FREE ENERGY PREDICTED BY IDOCK:   -3.46 KCAL/MOL
REMARK 923 INTER-LIGAND FREE ENERGY PREDICTED BY IDOCK:   -3.31 KCAL/MOL
REMARK 924 INTRA-LIGAND FREE ENERGY PREDICTED BY IDOCK:   -0.16 KCAL/MOL
REMARK 927      BINDING AFFINITY PREDICTED BY RF-SCORE:    0.00 PKD
ROOT
HETATM    1  C   UNL     1     -10.316   5.974  71.086  1.00  0.00    -0.267 C  
HETATM    2  C   UNL     1     -10.305   7.416  70.600  1.00  0.00    -0.217 C  
ENDROOT
BRANCH   2   3
HETATM    3  C   UNL     1     -11.672   8.078  70.795  1.00  0.00    -0.215 C  
HETATM    4  C   UNL     1     -11.603   9.577  71.165  1.00  0.00    -0.439 C  
HETATM    5  C   UNL     1     -13.010  10.100  71.444  1.00  0.00    -0.429 C  
HETATM    6  C   UNL     1     -10.871  10.449  70.125  1.00  0.00    -0.333 C  
HETATM    7  O   UNL     1     -13.043  11.373  71.897  1.00  0.00    -0.492 OA 
HETATM    8  O   UNL     1     -14.035   9.447  71.316  1.00  0.00    -0.272 OA 
BRANCH   6   9
HETATM    9  C   UNL     1     -11.534  10.478  68.745  1.00  0.00    -0.291 C  
HETATM   10  C   UNL     1     -11.897  11.900  68.342  1.00  0.00    -0.352 C  
ENDBRANCH   6   9
ENDBRANCH   2   3
TORSDOF 2
ENDMDL
MODEL       77
REMARK 921   NORMALIZED FREE ENERGY PREDICTED BY IDOCK:   -2.76 KCAL/MOL
REMARK 922        TOTAL FREE ENERGY PREDICTED BY IDOCK:   -3.44 KCAL/MOL
REMARK 923 INTER-LIGAND FREE ENERGY PREDICTED BY IDOCK:   -3.17 KCAL/MOL
REMARK 924 INTRA-LIGAND FREE ENERGY PREDICTED BY IDOCK:   -0.27 KCAL/MOL
REMARK 927      BINDING AFFINITY PREDICTED BY RF-SCORE:    0.00 PKD
ROOT
HETATM    1  C   UNL     1     -10.158   9.213  66.510  1.00  0.00    -0.357 C  
HETATM    2  C   UNL     1      -9.519  10.324  67.330  1.00  0.00    -0.174 C  
ENDROOT
BRANCH   2   3
HETATM    3  C   UNL     1     -10.558  11.362  67.764  1.00  0.00    -0.231 C  
HETATM    4  C   UNL     1     -10.372  12.753  67.117  1.00  0.00    -0.237 C  
HETATM    5  C   UNL     1     -11.387  13.730  67.705  1.00  0.00    -0.304 C  
HETATM    6  C   UNL     1     -10.423  12.742  65.576  1.00  0.00    -0.306 C  
HETATM    7  O   UNL     1     -11.223  15.007  67.291  1.00  0.00    -0.327 OA 
HETATM    8  O   UNL     1     -12.260  13.432  68.506  1.00  0.00    -0.295 OA 
BRANCH   6   9
HETATM    9  C   UNL     1     -11.761  12.280  64.991  1.00  0.00    -0.405 C  
HETATM   10  C   UNL     1     -11.611  11.881  63.530  1.00  0.00    -0.537 C  
ENDBRANCH   6   9
ENDBRANCH   2   3
TORSDOF 2
ENDMDL
MODEL       78
REMARK 921   NORMALIZED FREE ENERGY PREDICTED BY IDOCK:   -2.76 KCAL/MOL
REMARK 922        TOTAL FREE ENERGY PREDICTED BY IDOCK:   -3.43 KCAL/MOL
REMARK 923 INTER-LIGAND FREE ENERGY PREDICTED BY IDOCK:   -3.18 KCAL/MOL
REMARK 924 INTRA-LIGAND FREE ENERGY PREDICTED BY IDOCK:   -0.25 KCAL/MOL
REMARK 927      BINDING AFFINITY PREDICTED BY RF-SCORE:    0.00 PKD
ROOT
HETATM    1  C   UNL     1     -10.326  15.859  67.367  1.00  0.00    -0.288 C  
HETATM    2  C   UNL     1     -10.620  17.343  67.203  1.00  0.00    -0.264 C  
ENDROOT
BRANCH   2   3
HETATM    3  C   UNL     1      -9.460  18.065  66.510  1.00  0.00    -0.306 C  
HETATM    4  C   UNL     1      -8.935  19.301  67.275  1.00  0.00    -0.338 C  
HETATM    5  C   UNL     1      -7.865  20.002  66.442  1.00  0.00    -0.300 C  
HETATM    6  C   UNL     1      -8.431  18.992  68.699  1.00  0.00    -0.394 C  
HETATM    7  O   UNL     1      -7.431  21.166  66.973  1.00  0.00    -0.323 OA 
HETATM    8  O   UNL     1      -7.439  19.597  65.370  1.00  0.00    -0.407 OA 
BRANCH   6   9
HETATM    9  C   UNL     1      -7.237  18.035  68.754  1.00  0.00    -0.283 C  
HETATM   10  C   UNL     1      -6.093  18.633  69.559  1.00  0.00    -0.280 C  
ENDBRANCH   6   9
ENDBRANCH   2   3
TORSDOF 2
ENDMDL
MODEL       79
REMARK 921   NORMALIZED FREE ENERGY PREDICTED BY IDOCK:   -2.76 KCAL/MOL
REMARK 922        TOTAL FREE ENERGY PREDICTED BY IDOCK:   -3.43 KCAL/MOL
REMARK 923 INTER-LIGAND FREE ENERGY PREDICTED BY IDOCK:   -3.25 KCAL/MOL
REMARK 924 INTRA-LIGAND FREE ENERGY PREDICTED BY IDOCK:   -0.18 KCAL/MOL
REMARK 927      BINDING AFFINITY PREDICTED BY RF-SCORE:    0.00 PKD
ROOT
HETATM    1  C   UNL     1      -5.941  19.753  68.767  1.00  0.00    -0.280 C  
HETATM    2  C   UNL     1      -7.355  19.247  69.010  1.00  0.00    -0.380 C  
ENDROOT
BRANCH   2   3
HETATM    3  C   UNL     1      -7.638  17.978  68.199  1.00  0.00    -0.260 C  
HETATM    4  C   UNL     1      -8.936  17.244  68.603  1.00  0.00    -0.265 C  
HETATM    5  C   UNL     1      -9.056  15.944  67.813  1.00  0.00    -0.196 C  
HETATM    6  C   UNL     1     -10.211  18.104  68.476  1.00  0.00    -0.399 C  
HETATM    7  O   UNL     1     -10.099  15.169  68.186  1.00  0.00    -0.219 OA 
HETATM    8  O   UNL     1      -8.280  15.584  66.940  1.00  0.00    -0.215 OA 
BRANCH   6   9
HETATM    9  C   UNL     1     -10.521  18.566  67.049  1.00  0.00    -0.440 C  
HETATM   10  C   UNL     1     -10.274  20.059  66.892  1.00  0.00    -0.595 C  
ENDBRANCH   6   9
ENDBRANCH   2   3
TORSDOF 2
ENDMDL
MODEL       80
REMARK 921   NORMALIZED FREE ENERGY PREDICTED BY IDOCK:   -2.76 KCAL/MOL
REMARK 922        TOTAL FREE ENERGY PREDICTED BY IDOCK:   -3.43 KCAL/MOL
REMARK 923 INTER-LIGAND FREE ENERGY PREDICTED BY IDOCK:   -3.22 KCAL/MOL
REMARK 924 INTRA-LIGAND FREE ENERGY PREDICTED BY IDOCK:   -0.21 KCAL/MOL
REMARK 927      BINDING AFFINITY PREDICTED BY RF-SCORE:    0.00 PKD
ROOT
HETATM    1  C   UNL     1     -10.751   4.563  73.832  1.00  0.00    -0.349 C  
HETATM    2  C   UNL     1     -10.619   6.070  73.670  1.00  0.00    -0.281 C  
ENDROOT
BRANCH   2   3
HETATM    3  C   UNL     1     -10.135   6.438  72.264  1.00  0.00    -0.193 C  
HETATM    4  C   UNL     1     -11.190   6.228  71.155  1.00  0.00    -0.365 C  
HETATM    5  C   UNL     1     -10.565   6.517  69.793  1.00  0.00    -0.235 C  
HETATM    6  C   UNL     1     -12.490   7.032  71.363  1.00  0.00    -0.426 C  
HETATM    7  O   UNL     1     -11.376   6.241  68.747  1.00  0.00    -0.356 OA 
HETATM    8  O   UNL     1      -9.426   6.925  69.620  1.00  0.00    -0.148 OA 
BRANCH   6   9
HETATM    9  C   UNL     1     -12.300   8.552  71.358  1.00  0.00    -0.332 C  
HETATM   10  C   UNL     1     -13.285   9.229  72.300  1.00  0.00    -0.535 C  
ENDBRANCH   6   9
ENDBRANCH   2   3
TORSDOF 2
ENDMDL
MODEL       81
REMARK 921   NORMALIZED FREE ENERGY PREDICTED BY IDOCK:   -2.73 KCAL/MOL
REMARK 922        TOTAL FREE ENERGY PREDICTED BY IDOCK:   -3.40 KCAL/MOL
REMARK 923 INTER-LIGAND FREE ENERGY PREDICTED BY IDOCK:   -3.09 KCAL/MOL
REMARK 924 INTRA-LIGAND FREE ENERGY PREDICTED BY IDOCK:   -0.31 KCAL/MOL
REMARK 927      BINDING AFFINITY PREDICTED BY RF-SCORE:    0.00 PKD
ROOT
HETATM    1  C   UNL     1      -9.246   9.518  70.274  1.00  0.00    -0.303 C  
HETATM    2  C   UNL     1     -10.206   9.190  71.408  1.00  0.00    -0.402 C  
ENDROOT
BRANCH   2   3
HETATM    3  C   UNL     1      -9.894   7.823  72.022  1.00  0.00    -0.226 C  
HETATM    4  C   UNL     1     -11.132   6.919  72.219  1.00  0.00    -0.284 C  
HETATM    5  C   UNL     1     -10.720   5.636  72.938  1.00  0.00    -0.248 C  
HETATM    6  C   UNL     1     -11.903   6.616  70.919  1.00  0.00    -0.434 C  
HETATM    7  O   UNL     1     -11.757   4.834  73.267  1.00  0.00    -0.312 OA 
HETATM    8  O   UNL     1      -9.573   5.343  73.238  1.00  0.00    -0.141 OA 
BRANCH   6   9
HETATM    9  C   UNL     1     -11.095   5.848  69.868  1.00  0.00    -0.417 C  
HETATM   10  C   UNL     1     -10.826   6.712  68.645  1.00  0.00    -0.319 C  
ENDBRANCH   6   9
ENDBRANCH   2   3
TORSDOF 2
ENDMDL
MODEL       82
REMARK 921   NORMALIZED FREE ENERGY PREDICTED BY IDOCK:   -2.72 KCAL/MOL
REMARK 922        TOTAL FREE ENERGY PREDICTED BY IDOCK:   -3.39 KCAL/MOL
REMARK 923 INTER-LIGAND FREE ENERGY PREDICTED BY IDOCK:   -3.17 KCAL/MOL
REMARK 924 INTRA-LIGAND FREE ENERGY PREDICTED BY IDOCK:   -0.22 KCAL/MOL
REMARK 927      BINDING AFFINITY PREDICTED BY RF-SCORE:    0.00 PKD
ROOT
HETATM    1  C   UNL     1     -13.410   9.673  72.159  1.00  0.00    -0.545 C  
HETATM    2  C   UNL     1     -12.776   8.292  72.233  1.00  0.00    -0.338 C  
ENDROOT
BRANCH   2   3
HETATM    3  C   UNL     1     -11.451   8.247  71.466  1.00  0.00    -0.325 C  
HETATM    4  C   UNL     1     -10.196   8.366  72.361  1.00  0.00    -0.399 C  
HETATM    5  C   UNL     1      -8.947   8.423  71.485  1.00  0.00    -0.194 C  
HETATM    6  C   UNL     1     -10.084   7.266  73.436  1.00  0.00    -0.367 C  
HETATM    7  O   UNL     1      -7.806   8.652  72.171  1.00  0.00    -0.265 OA 
HETATM    8  O   UNL     1      -8.943   8.313  70.268  1.00  0.00    -0.139 OA 
BRANCH   6   9
HETATM    9  C   UNL     1      -9.959   5.846  72.877  1.00  0.00    -0.189 C  
HETATM   10  C   UNL     1     -11.158   4.996  73.271  1.00  0.00    -0.406 C  
ENDBRANCH   6   9
ENDBRANCH   2   3
TORSDOF 2
ENDMDL
MODEL       83
REMARK 921   NORMALIZED FREE ENERGY PREDICTED BY IDOCK:   -2.71 KCAL/MOL
REMARK 922        TOTAL FREE ENERGY PREDICTED BY IDOCK:   -3.38 KCAL/MOL
REMARK 923 INTER-LIGAND FREE ENERGY PREDICTED BY IDOCK:   -3.27 KCAL/MOL
REMARK 924 INTRA-LIGAND FREE ENERGY PREDICTED BY IDOCK:   -0.11 KCAL/MOL
REMARK 927      BINDING AFFINITY PREDICTED BY RF-SCORE:    0.00 PKD
ROOT
HETATM    1  C   UNL     1     -12.319  13.567  70.606  1.00  0.00    -0.432 C  
HETATM    2  C   UNL     1     -11.480  14.779  70.227  1.00  0.00    -0.309 C  
ENDROOT
BRANCH   2   3
HETATM    3  C   UNL     1     -10.782  14.571  68.879  1.00  0.00    -0.259 C  
HETATM    4  C   UNL     1     -11.110  15.650  67.822  1.00  0.00    -0.311 C  
HETATM    5  C   UNL     1     -10.453  15.282  66.494  1.00  0.00    -0.298 C  
HETATM    6  C   UNL     1     -10.745  17.085  68.255  1.00  0.00    -0.372 C  
HETATM    7  O   UNL     1     -10.784  16.102  65.472  1.00  0.00    -0.366 OA 
HETATM    8  O   UNL     1      -9.719  14.320  66.322  1.00  0.00    -0.284 OA 
BRANCH   6   9
HETATM    9  C   UNL     1      -9.251  17.310  68.507  1.00  0.00    -0.273 C  
HETATM   10  C   UNL     1      -8.940  18.790  68.668  1.00  0.00    -0.368 C  
ENDBRANCH   6   9
ENDBRANCH   2   3
TORSDOF 2
ENDMDL
MODEL       84
REMARK 921   NORMALIZED FREE ENERGY PREDICTED BY IDOCK:   -2.70 KCAL/MOL
REMARK 922        TOTAL FREE ENERGY PREDICTED BY IDOCK:   -3.36 KCAL/MOL
REMARK 923 INTER-LIGAND FREE ENERGY PREDICTED BY IDOCK:   -3.14 KCAL/MOL
REMARK 924 INTRA-LIGAND FREE ENERGY PREDICTED BY IDOCK:   -0.23 KCAL/MOL
REMARK 927      BINDING AFFINITY PREDICTED BY RF-SCORE:    0.00 PKD
ROOT
HETATM    1  C   UNL     1      -9.275  15.831  65.976  1.00  0.00    -0.379 C  
HETATM    2  C   UNL     1      -9.112  16.651  67.247  1.00  0.00    -0.225 C  
ENDROOT
BRANCH   2   3
HETATM    3  C   UNL     1      -7.916  17.602  67.144  1.00  0.00    -0.229 C  
HETATM    4  C   UNL     1      -8.025  18.636  66.000  1.00  0.00    -0.157 C  
HETATM    5  C   UNL     1      -6.736  19.451  65.922  1.00  0.00    -0.246 C  
HETATM    6  C   UNL     1      -9.266  19.548  66.092  1.00  0.00    -0.363 C  
HETATM    7  O   UNL     1      -6.686  20.300  64.872  1.00  0.00    -0.309 OA 
HETATM    8  O   UNL     1      -5.798  19.348  66.698  1.00  0.00    -0.166 OA 
BRANCH   6   9
HETATM    9  C   UNL     1      -9.311  20.430  67.343  1.00  0.00    -0.536 C  
HETATM   10  C   UNL     1     -10.388  19.957  68.309  1.00  0.00    -0.526 C  
ENDBRANCH   6   9
ENDBRANCH   2   3
TORSDOF 2
ENDMDL
MODEL       85
REMARK 921   NORMALIZED FREE ENERGY PREDICTED BY IDOCK:   -2.69 KCAL/MOL
REMARK 922        TOTAL FREE ENERGY PREDICTED BY IDOCK:   -3.36 KCAL/MOL
REMARK 923 INTER-LIGAND FREE ENERGY PREDICTED BY IDOCK:   -3.06 KCAL/MOL
REMARK 924 INTRA-LIGAND FREE ENERGY PREDICTED BY IDOCK:   -0.31 KCAL/MOL
REMARK 927      BINDING AFFINITY PREDICTED BY RF-SCORE:    0.00 PKD
ROOT
HETATM    1  C   UNL     1     -11.193  11.590  66.801  1.00  0.00    -0.350 C  
HETATM    2  C   UNL     1     -10.728  11.903  68.215  1.00  0.00    -0.253 C  
ENDROOT
BRANCH   2   3
HETATM    3  C   UNL     1     -11.574  13.014  68.845  1.00  0.00    -0.355 C  
HETATM    4  C   UNL     1     -10.790  14.308  69.158  1.00  0.00    -0.264 C  
HETATM    5  C   UNL     1     -11.701  15.297  69.881  1.00  0.00    -0.323 C  
HETATM    6  C   UNL     1     -10.120  14.952  67.927  1.00  0.00    -0.227 C  
HETATM    7  O   UNL     1     -11.071  16.414  70.308  1.00  0.00    -0.359 OA 
HETATM    8  O   UNL     1     -12.889  15.116  70.104  1.00  0.00    -0.268 OA 
BRANCH   6   9
HETATM    9  C   UNL     1     -11.099  15.412  66.843  1.00  0.00    -0.256 C  
HETATM   10  C   UNL     1     -10.456  15.358  65.465  1.00  0.00    -0.402 C  
ENDBRANCH   6   9
ENDBRANCH   2   3
TORSDOF 2
ENDMDL
MODEL       86
REMARK 921   NORMALIZED FREE ENERGY PREDICTED BY IDOCK:   -2.69 KCAL/MOL
REMARK 922        TOTAL FREE ENERGY PREDICTED BY IDOCK:   -3.35 KCAL/MOL
REMARK 923 INTER-LIGAND FREE ENERGY PREDICTED BY IDOCK:   -3.11 KCAL/MOL
REMARK 924 INTRA-LIGAND FREE ENERGY PREDICTED BY IDOCK:   -0.25 KCAL/MOL
REMARK 927      BINDING AFFINITY PREDICTED BY RF-SCORE:    0.00 PKD
ROOT
HETATM    1  C   UNL     1     -12.531  13.411  65.222  1.00  0.00    -0.532 C  
HETATM    2  C   UNL     1     -11.318  14.091  64.605  1.00  0.00    -0.378 C  
ENDROOT
BRANCH   2   3
HETATM    3  C   UNL     1     -10.110  14.033  65.546  1.00  0.00    -0.343 C  
HETATM    4  C   UNL     1      -9.653  15.411  66.076  1.00  0.00    -0.382 C  
HETATM    5  C   UNL     1      -8.383  15.244  66.906  1.00  0.00    -0.243 C  
HETATM    6  C   UNL     1     -10.741  16.179  66.854  1.00  0.00    -0.247 C  
HETATM    7  O   UNL     1      -7.835  16.411  67.312  1.00  0.00    -0.144 OA 
HETATM    8  O   UNL     1      -7.859  14.172  67.171  1.00  0.00    -0.158 OA 
BRANCH   6   9
HETATM    9  C   UNL     1     -11.223  15.477  68.127  1.00  0.00    -0.343 C  
HETATM   10  C   UNL     1     -10.969  16.337  69.356  1.00  0.00    -0.337 C  
ENDBRANCH   6   9
ENDBRANCH   2   3
TORSDOF 2
ENDMDL
MODEL       87
REMARK 921   NORMALIZED FREE ENERGY PREDICTED BY IDOCK:   -2.68 KCAL/MOL
REMARK 922        TOTAL FREE ENERGY PREDICTED BY IDOCK:   -3.34 KCAL/MOL
REMARK 923 INTER-LIGAND FREE ENERGY PREDICTED BY IDOCK:   -3.14 KCAL/MOL
REMARK 924 INTRA-LIGAND FREE ENERGY PREDICTED BY IDOCK:   -0.20 KCAL/MOL
REMARK 927      BINDING AFFINITY PREDICTED BY RF-SCORE:    0.00 PKD
ROOT
HETATM    1  C   UNL     1      -9.604  10.578  64.064  1.00  0.00    -0.367 C  
HETATM    2  C   UNL     1     -10.210  10.601  65.460  1.00  0.00    -0.329 C  
ENDROOT
BRANCH   2   3
HETATM    3  C   UNL     1     -10.976  11.903  65.712  1.00  0.00    -0.359 C  
HETATM    4  C   UNL     1     -11.103  12.285  67.205  1.00  0.00    -0.330 C  
HETATM    5  C   UNL     1     -11.975  13.530  67.342  1.00  0.00    -0.357 C  
HETATM    6  C   UNL     1      -9.752  12.458  67.927  1.00  0.00    -0.204 C  
HETATM    7  O   UNL     1     -12.248  13.871  68.621  1.00  0.00    -0.345 OA 
HETATM    8  O   UNL     1     -12.435  14.167  66.405  1.00  0.00    -0.461 OA 
BRANCH   6   9
HETATM    9  C   UNL     1      -8.877  13.585  67.370  1.00  0.00    -0.221 C  
HETATM   10  C   UNL     1      -8.553  14.610  68.446  1.00  0.00    -0.169 C  
ENDBRANCH   6   9
ENDBRANCH   2   3
TORSDOF 2
ENDMDL
MODEL       88
REMARK 921   NORMALIZED FREE ENERGY PREDICTED BY IDOCK:   -2.68 KCAL/MOL
REMARK 922        TOTAL FREE ENERGY PREDICTED BY IDOCK:   -3.34 KCAL/MOL
REMARK 923 INTER-LIGAND FREE ENERGY PREDICTED BY IDOCK:   -3.22 KCAL/MOL
REMARK 924 INTRA-LIGAND FREE ENERGY PREDICTED BY IDOCK:   -0.12 KCAL/MOL
REMARK 927      BINDING AFFINITY PREDICTED BY RF-SCORE:    0.00 PKD
ROOT
HETATM    1  C   UNL     1     -12.202  13.010  70.531  1.00  0.00    -0.392 C  
HETATM    2  C   UNL     1     -11.541  11.883  69.750  1.00  0.00    -0.359 C  
ENDROOT
BRANCH   2   3
HETATM    3  C   UNL     1     -11.884  11.965  68.259  1.00  0.00    -0.343 C  
HETATM    4  C   UNL     1     -10.659  11.876  67.321  1.00  0.00    -0.261 C  
HETATM    5  C   UNL     1     -11.106  12.082  65.876  1.00  0.00    -0.324 C  
HETATM    6  C   UNL     1      -9.838  10.581  67.481  1.00  0.00    -0.196 C  
HETATM    7  O   UNL     1     -10.087  12.144  64.990  1.00  0.00    -0.269 OA 
HETATM    8  O   UNL     1     -12.266  12.218  65.517  1.00  0.00    -0.577 OA 
BRANCH   6   9
HETATM    9  C   UNL     1     -10.607   9.299  67.146  1.00  0.00    -0.286 C  
HETATM   10  C   UNL     1      -9.851   8.067  67.623  1.00  0.00    -0.214 C  
ENDBRANCH   6   9
ENDBRANCH   2   3
TORSDOF 2
ENDMDL
MODEL       89
REMARK 921   NORMALIZED FREE ENERGY PREDICTED BY IDOCK:   -2.68 KCAL/MOL
REMARK 922        TOTAL FREE ENERGY PREDICTED BY IDOCK:   -3.34 KCAL/MOL
REMARK 923 INTER-LIGAND FREE ENERGY PREDICTED BY IDOCK:   -3.14 KCAL/MOL
REMARK 924 INTRA-LIGAND FREE ENERGY PREDICTED BY IDOCK:   -0.20 KCAL/MOL
REMARK 927      BINDING AFFINITY PREDICTED BY RF-SCORE:    0.00 PKD
ROOT
HETATM    1  C   UNL     1     -11.714  12.222  67.967  1.00  0.00    -0.417 C  
HETATM    2  C   UNL     1     -11.234  11.503  69.219  1.00  0.00    -0.336 C  
ENDROOT
BRANCH   2   3
HETATM    3  C   UNL     1     -11.151   9.990  68.993  1.00  0.00    -0.221 C  
HETATM    4  C   UNL     1     -10.357   9.230  70.080  1.00  0.00    -0.245 C  
HETATM    5  C   UNL     1     -10.245   7.757  69.694  1.00  0.00    -0.206 C  
HETATM    6  C   UNL     1     -10.920   9.400  71.505  1.00  0.00    -0.429 C  
HETATM    7  O   UNL     1      -9.460   7.031  70.522  1.00  0.00    -0.165 OA 
HETATM    8  O   UNL     1     -10.771   7.250  68.715  1.00  0.00    -0.200 OA 
BRANCH   6   9
HETATM    9  C   UNL     1     -12.341   8.860  71.693  1.00  0.00    -0.405 C  
HETATM   10  C   UNL     1     -13.331   9.992  71.924  1.00  0.00    -0.516 C  
ENDBRANCH   6   9
ENDBRANCH   2   3
TORSDOF 2
ENDMDL
MODEL       90
REMARK 921   NORMALIZED FREE ENERGY PREDICTED BY IDOCK:   -2.67 KCAL/MOL
REMARK 922        TOTAL FREE ENERGY PREDICTED BY IDOCK:   -3.34 KCAL/MOL
REMARK 923 INTER-LIGAND FREE ENERGY PREDICTED BY IDOCK:   -3.14 KCAL/MOL
REMARK 924 INTRA-LIGAND FREE ENERGY PREDICTED BY IDOCK:   -0.20 KCAL/MOL
REMARK 927      BINDING AFFINITY PREDICTED BY RF-SCORE:    0.00 PKD
ROOT
HETATM    1  C   UNL     1      -9.358   7.327  74.033  1.00  0.00    -0.301 C  
HETATM    2  C   UNL     1      -9.495   7.834  72.605  1.00  0.00    -0.251 C  
ENDROOT
BRANCH   2   3
HETATM    3  C   UNL     1     -10.958   8.118  72.254  1.00  0.00    -0.399 C  
HETATM    4  C   UNL     1     -11.209   9.530  71.677  1.00  0.00    -0.378 C  
HETATM    5  C   UNL     1     -12.707   9.741  71.472  1.00  0.00    -0.406 C  
HETATM    6  C   UNL     1     -10.413   9.834  70.391  1.00  0.00    -0.358 C  
HETATM    7  O   UNL     1     -13.037  10.993  71.085  1.00  0.00    -0.352 OA 
HETATM    8  O   UNL     1     -13.563   8.891  71.664  1.00  0.00    -0.365 OA 
BRANCH   6   9
HETATM    9  C   UNL     1     -10.754   8.926  69.206  1.00  0.00    -0.177 C  
HETATM   10  C   UNL     1      -9.535   8.139  68.751  1.00  0.00    -0.148 C  
ENDBRANCH   6   9
ENDBRANCH   2   3
TORSDOF 2
ENDMDL
MODEL       91
REMARK 921   NORMALIZED FREE ENERGY PREDICTED BY IDOCK:   -2.66 KCAL/MOL
REMARK 922        TOTAL FREE ENERGY PREDICTED BY IDOCK:   -3.32 KCAL/MOL
REMARK 923 INTER-LIGAND FREE ENERGY PREDICTED BY IDOCK:   -2.96 KCAL/MOL
REMARK 924 INTRA-LIGAND FREE ENERGY PREDICTED BY IDOCK:   -0.36 KCAL/MOL
REMARK 927      BINDING AFFINITY PREDICTED BY RF-SCORE:    0.00 PKD
ROOT
HETATM    1  C   UNL     1      -6.750  15.839  68.720  1.00  0.00    -0.119 C  
HETATM    2  C   UNL     1      -6.959  16.508  67.369  1.00  0.00    -0.186 C  
ENDROOT
BRANCH   2   3
HETATM    3  C   UNL     1      -8.047  17.583  67.444  1.00  0.00    -0.213 C  
HETATM    4  C   UNL     1      -9.080  17.520  66.296  1.00  0.00    -0.221 C  
HETATM    5  C   UNL     1     -10.043  18.700  66.410  1.00  0.00    -0.403 C  
HETATM    6  C   UNL     1      -9.836  16.179  66.204  1.00  0.00    -0.358 C  
HETATM    7  O   UNL     1     -10.911  18.801  65.378  1.00  0.00    -0.563 OA 
HETATM    8  O   UNL     1     -10.038  19.519  67.316  1.00  0.00    -0.355 OA 
BRANCH   6   9
HETATM    9  C   UNL     1     -10.685  15.846  67.434  1.00  0.00    -0.313 C  
HETATM   10  C   UNL     1     -10.231  14.543  68.076  1.00  0.00    -0.233 C  
ENDBRANCH   6   9
ENDBRANCH   2   3
TORSDOF 2
ENDMDL
MODEL       92
REMARK 921   NORMALIZED FREE ENERGY PREDICTED BY IDOCK:   -2.65 KCAL/MOL
REMARK 922        TOTAL FREE ENERGY PREDICTED BY IDOCK:   -3.31 KCAL/MOL
REMARK 923 INTER-LIGAND FREE ENERGY PREDICTED BY IDOCK:   -3.06 KCAL/MOL
REMARK 924 INTRA-LIGAND FREE ENERGY PREDICTED BY IDOCK:   -0.25 KCAL/MOL
REMARK 927      BINDING AFFINITY PREDICTED BY RF-SCORE:    0.00 PKD
ROOT
HETATM    1  C   UNL     1      -9.660   9.008  66.143  1.00  0.00    -0.341 C  
HETATM    2  C   UNL     1      -9.918  10.218  65.257  1.00  0.00    -0.387 C  
ENDROOT
BRANCH   2   3
HETATM    3  C   UNL     1      -9.426  11.508  65.921  1.00  0.00    -0.251 C  
HETATM    4  C   UNL     1     -10.547  12.522  66.244  1.00  0.00    -0.273 C  
HETATM    5  C   UNL     1      -9.931  13.806  66.794  1.00  0.00    -0.270 C  
HETATM    6  C   UNL     1     -11.641  11.972  67.180  1.00  0.00    -0.387 C  
HETATM    7  O   UNL     1     -10.824  14.802  66.992  1.00  0.00    -0.301 OA 
HETATM    8  O   UNL     1      -8.741  13.970  67.015  1.00  0.00    -0.219 OA 
BRANCH   6   9
HETATM    9  C   UNL     1     -11.142  11.574  68.573  1.00  0.00    -0.287 C  
HETATM   10  C   UNL     1     -11.949  12.265  69.662  1.00  0.00    -0.347 C  
ENDBRANCH   6   9
ENDBRANCH   2   3
TORSDOF 2
ENDMDL
MODEL       93
REMARK 921   NORMALIZED FREE ENERGY PREDICTED BY IDOCK:   -2.62 KCAL/MOL
REMARK 922        TOTAL FREE ENERGY PREDICTED BY IDOCK:   -3.28 KCAL/MOL
REMARK 923 INTER-LIGAND FREE ENERGY PREDICTED BY IDOCK:   -3.06 KCAL/MOL
REMARK 924 INTRA-LIGAND FREE ENERGY PREDICTED BY IDOCK:   -0.22 KCAL/MOL
REMARK 927      BINDING AFFINITY PREDICTED BY RF-SCORE:    0.00 PKD
ROOT
HETATM    1  C   UNL     1      -7.343  13.072  68.067  1.00  0.00    -0.123 C  
HETATM    2  C   UNL     1      -8.000  12.115  67.082  1.00  0.00    -0.170 C  
ENDROOT
BRANCH   2   3
HETATM    3  C   UNL     1      -9.509  12.019  67.323  1.00  0.00    -0.181 C  
HETATM    4  C   UNL     1     -10.357  12.928  66.405  1.00  0.00    -0.277 C  
HETATM    5  C   UNL     1     -11.827  12.836  66.808  1.00  0.00    -0.382 C  
HETATM    6  C   UNL     1     -10.165  12.655  64.899  1.00  0.00    -0.295 C  
HETATM    7  O   UNL     1     -12.634  13.691  66.142  1.00  0.00    -0.412 OA 
HETATM    8  O   UNL     1     -12.267  12.095  67.675  1.00  0.00    -0.462 OA 
BRANCH   6   9
HETATM    9  C   UNL     1     -10.583  11.251  64.453  1.00  0.00    -0.410 C  
HETATM   10  C   UNL     1      -9.468  10.571  63.672  1.00  0.00    -0.347 C  
ENDBRANCH   6   9
ENDBRANCH   2   3
TORSDOF 2
ENDMDL
MODEL       94
REMARK 921   NORMALIZED FREE ENERGY PREDICTED BY IDOCK:   -2.61 KCAL/MOL
REMARK 922        TOTAL FREE ENERGY PREDICTED BY IDOCK:   -3.26 KCAL/MOL
REMARK 923 INTER-LIGAND FREE ENERGY PREDICTED BY IDOCK:   -3.04 KCAL/MOL
REMARK 924 INTRA-LIGAND FREE ENERGY PREDICTED BY IDOCK:   -0.23 KCAL/MOL
REMARK 927      BINDING AFFINITY PREDICTED BY RF-SCORE:    0.00 PKD
ROOT
HETATM    1  C   UNL     1      -8.757   3.206  72.780  1.00  0.00    -0.091 C  
HETATM    2  C   UNL     1      -9.634   4.369  73.218  1.00  0.00    -0.142 C  
ENDROOT
BRANCH   2   3
HETATM    3  C   UNL     1     -10.279   5.063  72.014  1.00  0.00    -0.262 C  
HETATM    4  C   UNL     1     -11.328   6.135  72.387  1.00  0.00    -0.340 C  
HETATM    5  C   UNL     1     -11.981   6.675  71.117  1.00  0.00    -0.357 C  
HETATM    6  C   UNL     1     -10.778   7.274  73.269  1.00  0.00    -0.428 C  
HETATM    7  O   UNL     1     -13.002   7.531  71.346  1.00  0.00    -0.351 OA 
HETATM    8  O   UNL     1     -11.662   6.360  69.980  1.00  0.00    -0.429 OA 
BRANCH   6   9
HETATM    9  C   UNL     1      -9.673   8.106  72.611  1.00  0.00    -0.360 C  
HETATM   10  C   UNL     1      -8.364   7.981  73.378  1.00  0.00    -0.278 C  
ENDBRANCH   6   9
ENDBRANCH   2   3
TORSDOF 2
ENDMDL
MODEL       95
REMARK 921   NORMALIZED FREE ENERGY PREDICTED BY IDOCK:   -2.56 KCAL/MOL
REMARK 922        TOTAL FREE ENERGY PREDICTED BY IDOCK:   -3.21 KCAL/MOL
REMARK 923 INTER-LIGAND FREE ENERGY PREDICTED BY IDOCK:   -2.87 KCAL/MOL
REMARK 924 INTRA-LIGAND FREE ENERGY PREDICTED BY IDOCK:   -0.34 KCAL/MOL
REMARK 927      BINDING AFFINITY PREDICTED BY RF-SCORE:    0.00 PKD
ROOT
HETATM    1  C   UNL     1      -9.664   8.172  66.924  1.00  0.00    -0.291 C  
HETATM    2  C   UNL     1     -10.344   9.093  67.926  1.00  0.00    -0.285 C  
ENDROOT
BRANCH   2   3
HETATM    3  C   UNL     1     -11.038  10.263  67.222  1.00  0.00    -0.215 C  
HETATM    4  C   UNL     1     -10.903  11.616  67.958  1.00  0.00    -0.259 C  
HETATM    5  C   UNL     1     -11.722  12.678  67.230  1.00  0.00    -0.370 C  
HETATM    6  C   UNL     1      -9.446  12.072  68.172  1.00  0.00    -0.200 C  
HETATM    7  O   UNL     1     -11.767  13.869  67.868  1.00  0.00    -0.321 OA 
HETATM    8  O   UNL     1     -12.326  12.498  66.183  1.00  0.00    -0.596 OA 
BRANCH   6   9
HETATM    9  C   UNL     1      -8.664  12.319  66.878  1.00  0.00    -0.197 C  
HETATM   10  C   UNL     1      -7.431  11.430  66.806  1.00  0.00    -0.137 C  
ENDBRANCH   6   9
ENDBRANCH   2   3
TORSDOF 2
ENDMDL
MODEL       96
REMARK 921   NORMALIZED FREE ENERGY PREDICTED BY IDOCK:   -2.56 KCAL/MOL
REMARK 922        TOTAL FREE ENERGY PREDICTED BY IDOCK:   -3.21 KCAL/MOL
REMARK 923 INTER-LIGAND FREE ENERGY PREDICTED BY IDOCK:   -2.98 KCAL/MOL
REMARK 924 INTRA-LIGAND FREE ENERGY PREDICTED BY IDOCK:   -0.23 KCAL/MOL
REMARK 927      BINDING AFFINITY PREDICTED BY RF-SCORE:    0.00 PKD
ROOT
HETATM    1  C   UNL     1      -8.593  16.202  66.932  1.00  0.00    -0.253 C  
HETATM    2  C   UNL     1      -8.992  15.262  68.061  1.00  0.00    -0.171 C  
ENDROOT
BRANCH   2   3
HETATM    3  C   UNL     1      -9.293  13.856  67.532  1.00  0.00    -0.217 C  
HETATM    4  C   UNL     1     -10.734  13.371  67.807  1.00  0.00    -0.259 C  
HETATM    5  C   UNL     1     -10.885  11.925  67.340  1.00  0.00    -0.243 C  
HETATM    6  C   UNL     1     -11.828  14.276  67.205  1.00  0.00    -0.444 C  
HETATM    7  O   UNL     1     -12.077  11.369  67.650  1.00  0.00    -0.630 OA 
HETATM    8  O   UNL     1     -10.017  11.283  66.768  1.00  0.00    -0.199 OA 
BRANCH   6   9
HETATM    9  C   UNL     1     -11.797  14.376  65.677  1.00  0.00    -0.355 C  
HETATM   10  C   UNL     1     -13.001  13.682  65.058  1.00  0.00    -0.214 C  
ENDBRANCH   6   9
ENDBRANCH   2   3
TORSDOF 2
ENDMDL
MODEL       97
REMARK 921   NORMALIZED FREE ENERGY PREDICTED BY IDOCK:   -2.53 KCAL/MOL
REMARK 922        TOTAL FREE ENERGY PREDICTED BY IDOCK:   -3.18 KCAL/MOL
REMARK 923 INTER-LIGAND FREE ENERGY PREDICTED BY IDOCK:   -2.83 KCAL/MOL
REMARK 924 INTRA-LIGAND FREE ENERGY PREDICTED BY IDOCK:   -0.35 KCAL/MOL
REMARK 927      BINDING AFFINITY PREDICTED BY RF-SCORE:    0.00 PKD
ROOT
HETATM    1  C   UNL     1     -10.932   3.348  73.628  1.00  0.00    -0.329 C  
HETATM    2  C   UNL     1     -10.697   4.840  73.813  1.00  0.00    -0.359 C  
ENDROOT
BRANCH   2   3
HETATM    3  C   UNL     1     -11.591   5.663  72.880  1.00  0.00    -0.252 C  
HETATM    4  C   UNL     1     -10.854   6.795  72.130  1.00  0.00    -0.257 C  
HETATM    5  C   UNL     1     -11.859   7.614  71.324  1.00  0.00    -0.292 C  
HETATM    6  C   UNL     1      -9.684   6.309  71.251  1.00  0.00    -0.193 C  
HETATM    7  O   UNL     1     -11.327   8.705  70.729  1.00  0.00    -0.261 OA 
HETATM    8  O   UNL     1     -13.050   7.359  71.230  1.00  0.00    -0.349 OA 
BRANCH   6   9
HETATM    9  C   UNL     1     -10.096   5.371  70.113  1.00  0.00    -0.322 C  
HETATM   10  C   UNL     1      -9.280   4.087  70.139  1.00  0.00    -0.212 C  
ENDBRANCH   6   9
ENDBRANCH   2   3
TORSDOF 2
ENDMDL
MODEL       98
REMARK 921   NORMALIZED FREE ENERGY PREDICTED BY IDOCK:   -2.52 KCAL/MOL
REMARK 922        TOTAL FREE ENERGY PREDICTED BY IDOCK:   -3.16 KCAL/MOL
REMARK 923 INTER-LIGAND FREE ENERGY PREDICTED BY IDOCK:   -2.83 KCAL/MOL
REMARK 924 INTRA-LIGAND FREE ENERGY PREDICTED BY IDOCK:   -0.33 KCAL/MOL
REMARK 927      BINDING AFFINITY PREDICTED BY RF-SCORE:    0.00 PKD
ROOT
HETATM    1  C   UNL     1     -13.609   9.737  71.942  1.00  0.00    -0.421 C  
HETATM    2  C   UNL     1     -13.010   8.357  72.173  1.00  0.00    -0.370 C  
ENDROOT
BRANCH   2   3
HETATM    3  C   UNL     1     -11.549   8.454  72.622  1.00  0.00    -0.367 C  
HETATM    4  C   UNL     1     -10.538   7.835  71.630  1.00  0.00    -0.252 C  
HETATM    5  C   UNL     1      -9.135   7.887  72.229  1.00  0.00    -0.161 C  
HETATM    6  C   UNL     1     -10.576   8.460  70.221  1.00  0.00    -0.234 C  
HETATM    7  O   UNL     1      -8.198   7.256  71.488  1.00  0.00    -0.104 OA 
HETATM    8  O   UNL     1      -8.852   8.411  73.296  1.00  0.00    -0.260 OA 
BRANCH   6   9
HETATM    9  C   UNL     1     -10.212   9.947  70.179  1.00  0.00    -0.326 C  
HETATM   10  C   UNL     1     -11.229  10.737  69.368  1.00  0.00    -0.337 C  
ENDBRANCH   6   9
ENDBRANCH   2   3
TORSDOF 2
ENDMDL
MODEL       99
REMARK 921   NORMALIZED FREE ENERGY PREDICTED BY IDOCK:   -2.51 KCAL/MOL
REMARK 922        TOTAL FREE ENERGY PREDICTED BY IDOCK:   -3.15 KCAL/MOL
REMARK 923 INTER-LIGAND FREE ENERGY PREDICTED BY IDOCK:   -2.90 KCAL/MOL
REMARK 924 INTRA-LIGAND FREE ENERGY PREDICTED BY IDOCK:   -0.25 KCAL/MOL
REMARK 927      BINDING AFFINITY PREDICTED BY RF-SCORE:    0.00 PKD
ROOT
HETATM    1  C   UNL     1      -8.377   7.036  69.650  1.00  0.00    -0.133 C  
HETATM    2  C   UNL     1      -9.880   7.048  69.408  1.00  0.00    -0.160 C  
ENDROOT
BRANCH   2   3
HETATM    3  C   UNL     1     -10.531   8.294  70.017  1.00  0.00    -0.231 C  
HETATM    4  C   UNL     1     -11.537   7.993  71.151  1.00  0.00    -0.307 C  
HETATM    5  C   UNL     1     -12.203   9.291  71.601  1.00  0.00    -0.370 C  
HETATM    6  C   UNL     1     -10.931   7.225  72.343  1.00  0.00    -0.306 C  
HETATM    7  O   UNL     1     -13.191   9.116  72.507  1.00  0.00    -0.444 OA 
HETATM    8  O   UNL     1     -11.921  10.403  71.179  1.00  0.00    -0.352 OA 
BRANCH   6   9
HETATM    9  C   UNL     1      -9.816   7.975  73.078  1.00  0.00    -0.352 C  
HETATM   10  C   UNL     1      -9.137   7.079  74.103  1.00  0.00    -0.250 C  
ENDBRANCH   6   9
ENDBRANCH   2   3
TORSDOF 2
ENDMDL
MODEL      100
REMARK 921   NORMALIZED FREE ENERGY PREDICTED BY IDOCK:   -2.50 KCAL/MOL
REMARK 922        TOTAL FREE ENERGY PREDICTED BY IDOCK:   -3.14 KCAL/MOL
REMARK 923 INTER-LIGAND FREE ENERGY PREDICTED BY IDOCK:   -2.97 KCAL/MOL
REMARK 924 INTRA-LIGAND FREE ENERGY PREDICTED BY IDOCK:   -0.17 KCAL/MOL
REMARK 927      BINDING AFFINITY PREDICTED BY RF-SCORE:    0.00 PKD
ROOT
HETATM    1  C   UNL     1     -10.651  19.740  65.988  1.00  0.00    -0.573 C  
HETATM    2  C   UNL     1      -9.205  19.354  66.262  1.00  0.00    -0.388 C  
ENDROOT
BRANCH   2   3
HETATM    3  C   UNL     1      -9.114  17.969  66.910  1.00  0.00    -0.273 C  
HETATM    4  C   UNL     1      -7.720  17.309  66.802  1.00  0.00    -0.279 C  
HETATM    5  C   UNL     1      -7.776  15.896  67.377  1.00  0.00    -0.175 C  
HETATM    6  C   UNL     1      -6.583  18.135  67.439  1.00  0.00    -0.196 C  
HETATM    7  O   UNL     1      -6.634  15.192  67.216  1.00  0.00    -0.293 OA 
HETATM    8  O   UNL     1      -8.758  15.398  67.909  1.00  0.00    -0.157 OA 
BRANCH   6   9
HETATM    9  C   UNL     1      -6.731  18.355  68.948  1.00  0.00    -0.270 C  
HETATM   10  C   UNL     1      -6.322  19.768  69.337  1.00  0.00    -0.365 C  
ENDBRANCH   6   9
ENDBRANCH   2   3
TORSDOF 2
ENDMDL
MODEL      101
REMARK 921   NORMALIZED FREE ENERGY PREDICTED BY IDOCK:   -2.48 KCAL/MOL
REMARK 922        TOTAL FREE ENERGY PREDICTED BY IDOCK:   -3.12 KCAL/MOL
REMARK 923 INTER-LIGAND FREE ENERGY PREDICTED BY IDOCK:   -2.76 KCAL/MOL
REMARK 924 INTRA-LIGAND FREE ENERGY PREDICTED BY IDOCK:   -0.36 KCAL/MOL
REMARK 927      BINDING AFFINITY PREDICTED BY RF-SCORE:    0.00 PKD
ROOT
HETATM    1  C   UNL     1      -7.311  11.345  68.309  1.00  0.00    -0.089 C  
HETATM    2  C   UNL     1      -7.764  12.436  67.349  1.00  0.00    -0.170 C  
ENDROOT
BRANCH   2   3
HETATM    3  C   UNL     1      -9.022  13.142  67.864  1.00  0.00    -0.200 C  
HETATM    4  C   UNL     1     -10.193  13.166  66.855  1.00  0.00    -0.245 C  
HETATM    5  C   UNL     1     -11.345  13.987  67.428  1.00  0.00    -0.329 C  
HETATM    6  C   UNL     1     -10.663  11.768  66.403  1.00  0.00    -0.306 C  
HETATM    7  O   UNL     1     -12.370  14.170  66.566  1.00  0.00    -0.460 OA 
HETATM    8  O   UNL     1     -11.362  14.480  68.545  1.00  0.00    -0.260 OA 
BRANCH   6   9
HETATM    9  C   UNL     1     -11.215  10.892  67.531  1.00  0.00    -0.364 C  
HETATM   10  C   UNL     1     -10.515   9.541  67.568  1.00  0.00    -0.336 C  
ENDBRANCH   6   9
ENDBRANCH   2   3
TORSDOF 2
ENDMDL
MODEL      102
REMARK 921   NORMALIZED FREE ENERGY PREDICTED BY IDOCK:   -2.44 KCAL/MOL
REMARK 922        TOTAL FREE ENERGY PREDICTED BY IDOCK:   -3.08 KCAL/MOL
REMARK 923 INTER-LIGAND FREE ENERGY PREDICTED BY IDOCK:   -2.85 KCAL/MOL
REMARK 924 INTRA-LIGAND FREE ENERGY PREDICTED BY IDOCK:   -0.23 KCAL/MOL
REMARK 927      BINDING AFFINITY PREDICTED BY RF-SCORE:    0.00 PKD
ROOT
HETATM    1  C   UNL     1      -7.919   7.984  74.459  1.00  0.00    -0.291 C  
HETATM    2  C   UNL     1      -8.063   8.246  72.966  1.00  0.00    -0.210 C  
ENDROOT
BRANCH   2   3
HETATM    3  C   UNL     1      -9.537   8.303  72.553  1.00  0.00    -0.365 C  
HETATM    4  C   UNL     1      -9.975   7.159  71.610  1.00  0.00    -0.186 C  
HETATM    5  C   UNL     1     -11.422   7.379  71.176  1.00  0.00    -0.279 C  
HETATM    6  C   UNL     1      -9.769   5.747  72.196  1.00  0.00    -0.174 C  
HETATM    7  O   UNL     1     -11.858   6.496  70.251  1.00  0.00    -0.413 OA 
HETATM    8  O   UNL     1     -12.141   8.282  71.578  1.00  0.00    -0.282 OA 
BRANCH   6   9
HETATM    9  C   UNL     1     -10.582   5.464  73.463  1.00  0.00    -0.310 C  
HETATM   10  C   UNL     1     -11.281   4.115  73.375  1.00  0.00    -0.339 C  
ENDBRANCH   6   9
ENDBRANCH   2   3
TORSDOF 2
ENDMDL
MODEL      103
REMARK 921   NORMALIZED FREE ENERGY PREDICTED BY IDOCK:   -2.44 KCAL/MOL
REMARK 922        TOTAL FREE ENERGY PREDICTED BY IDOCK:   -3.07 KCAL/MOL
REMARK 923 INTER-LIGAND FREE ENERGY PREDICTED BY IDOCK:   -2.88 KCAL/MOL
REMARK 924 INTRA-LIGAND FREE ENERGY PREDICTED BY IDOCK:   -0.19 KCAL/MOL
REMARK 927      BINDING AFFINITY PREDICTED BY RF-SCORE:    0.00 PKD
ROOT
HETATM    1  C   UNL     1      -9.221  15.148  67.187  1.00  0.00    -0.226 C  
HETATM    2  C   UNL     1     -10.059  13.955  67.623  1.00  0.00    -0.241 C  
ENDROOT
BRANCH   2   3
HETATM    3  C   UNL     1     -10.808  13.339  66.437  1.00  0.00    -0.296 C  
HETATM    4  C   UNL     1      -9.974  12.329  65.616  1.00  0.00    -0.271 C  
HETATM    5  C   UNL     1     -10.777  11.869  64.402  1.00  0.00    -0.323 C  
HETATM    6  C   UNL     1      -9.450  11.132  66.435  1.00  0.00    -0.216 C  
HETATM    7  O   UNL     1     -10.085  11.077  63.553  1.00  0.00    -0.319 OA 
HETATM    8  O   UNL     1     -11.931  12.194  64.165  1.00  0.00    -0.388 OA 
BRANCH   6   9
HETATM    9  C   UNL     1     -10.548  10.247  67.034  1.00  0.00    -0.302 C  
HETATM   10  C   UNL     1     -10.372   8.796  66.612  1.00  0.00    -0.298 C  
ENDBRANCH   6   9
ENDBRANCH   2   3
TORSDOF 2
ENDMDL
MODEL      104
REMARK 921   NORMALIZED FREE ENERGY PREDICTED BY IDOCK:   -2.43 KCAL/MOL
REMARK 922        TOTAL FREE ENERGY PREDICTED BY IDOCK:   -3.07 KCAL/MOL
REMARK 923 INTER-LIGAND FREE ENERGY PREDICTED BY IDOCK:   -2.93 KCAL/MOL
REMARK 924 INTRA-LIGAND FREE ENERGY PREDICTED BY IDOCK:   -0.14 KCAL/MOL
REMARK 927      BINDING AFFINITY PREDICTED BY RF-SCORE:    0.00 PKD
ROOT
HETATM    1  C   UNL     1      -7.851  12.231  68.255  1.00  0.00    -0.153 C  
HETATM    2  C   UNL     1      -8.499  13.256  67.335  1.00  0.00    -0.206 C  
ENDROOT
BRANCH   2   3
HETATM    3  C   UNL     1      -9.371  14.237  68.123  1.00  0.00    -0.206 C  
HETATM    4  C   UNL     1      -9.865  15.448  67.300  1.00  0.00    -0.217 C  
HETATM    5  C   UNL     1     -10.625  16.410  68.210  1.00  0.00    -0.318 C  
HETATM    6  C   UNL     1     -10.697  15.067  66.059  1.00  0.00    -0.329 C  
HETATM    7  O   UNL     1     -10.992  17.563  67.607  1.00  0.00    -0.294 OA 
HETATM    8  O   UNL     1     -10.868  16.208  69.391  1.00  0.00    -0.272 OA 
BRANCH   6   9
HETATM    9  C   UNL     1     -12.000  14.326  66.374  1.00  0.00    -0.438 C  
HETATM   10  C   UNL     1     -12.519  13.587  65.149  1.00  0.00    -0.495 C  
ENDBRANCH   6   9
ENDBRANCH   2   3
TORSDOF 2
ENDMDL
MODEL      105
REMARK 921   NORMALIZED FREE ENERGY PREDICTED BY IDOCK:   -2.43 KCAL/MOL
REMARK 922        TOTAL FREE ENERGY PREDICTED BY IDOCK:   -3.07 KCAL/MOL
REMARK 923 INTER-LIGAND FREE ENERGY PREDICTED BY IDOCK:   -2.73 KCAL/MOL
REMARK 924 INTRA-LIGAND FREE ENERGY PREDICTED BY IDOCK:   -0.34 KCAL/MOL
REMARK 927      BINDING AFFINITY PREDICTED BY RF-SCORE:    0.00 PKD
ROOT
HETATM    1  C   UNL     1      -9.541   7.811  71.342  1.00  0.00    -0.182 C  
HETATM    2  C   UNL     1      -9.211   9.207  70.835  1.00  0.00    -0.326 C  
ENDROOT
BRANCH   2   3
HETATM    3  C   UNL     1     -10.439   9.875  70.208  1.00  0.00    -0.348 C  
HETATM    4  C   UNL     1     -10.131  10.704  68.940  1.00  0.00    -0.215 C  
HETATM    5  C   UNL     1     -11.400  11.411  68.470  1.00  0.00    -0.271 C  
HETATM    6  C   UNL     1      -9.480   9.893  67.801  1.00  0.00    -0.158 C  
HETATM    7  O   UNL     1     -11.205  12.260  67.437  1.00  0.00    -0.265 OA 
HETATM    8  O   UNL     1     -12.503  11.275  68.979  1.00  0.00    -0.417 OA 
BRANCH   6   9
HETATM    9  C   UNL     1     -10.352   8.760  67.253  1.00  0.00    -0.360 C  
HETATM   10  C   UNL     1      -9.625   7.425  67.328  1.00  0.00    -0.191 C  
ENDBRANCH   6   9
ENDBRANCH   2   3
TORSDOF 2
ENDMDL
MODEL      106
REMARK 921   NORMALIZED FREE ENERGY PREDICTED BY IDOCK:   -2.43 KCAL/MOL
REMARK 922        TOTAL FREE ENERGY PREDICTED BY IDOCK:   -3.06 KCAL/MOL
REMARK 923 INTER-LIGAND FREE ENERGY PREDICTED BY IDOCK:   -2.93 KCAL/MOL
REMARK 924 INTRA-LIGAND FREE ENERGY PREDICTED BY IDOCK:   -0.13 KCAL/MOL
REMARK 927      BINDING AFFINITY PREDICTED BY RF-SCORE:    0.00 PKD
ROOT
HETATM    1  C   UNL     1     -12.522  12.861  64.742  1.00  0.00    -0.517 C  
HETATM    2  C   UNL     1     -11.908  12.551  66.099  1.00  0.00    -0.459 C  
ENDROOT
BRANCH   2   3
HETATM    3  C   UNL     1     -12.114  13.710  67.079  1.00  0.00    -0.423 C  
HETATM    4  C   UNL     1     -11.587  13.436  68.506  1.00  0.00    -0.368 C  
HETATM    5  C   UNL     1     -11.946  14.606  69.418  1.00  0.00    -0.313 C  
HETATM    6  C   UNL     1     -10.081  13.111  68.568  1.00  0.00    -0.203 C  
HETATM    7  O   UNL     1     -11.635  14.405  70.718  1.00  0.00    -0.264 OA 
HETATM    8  O   UNL     1     -12.497  15.633  69.051  1.00  0.00    -0.088 OA 
BRANCH   6   9
HETATM    9  C   UNL     1      -9.169  14.244  68.090  1.00  0.00    -0.202 C  
HETATM   10  C   UNL     1      -7.868  14.270  68.878  1.00  0.00    -0.097 C  
ENDBRANCH   6   9
ENDBRANCH   2   3
TORSDOF 2
ENDMDL
MODEL      107
REMARK 921   NORMALIZED FREE ENERGY PREDICTED BY IDOCK:   -2.43 KCAL/MOL
REMARK 922        TOTAL FREE ENERGY PREDICTED BY IDOCK:   -3.06 KCAL/MOL
REMARK 923 INTER-LIGAND FREE ENERGY PREDICTED BY IDOCK:   -2.86 KCAL/MOL
REMARK 924 INTRA-LIGAND FREE ENERGY PREDICTED BY IDOCK:   -0.20 KCAL/MOL
REMARK 927      BINDING AFFINITY PREDICTED BY RF-SCORE:    0.00 PKD
ROOT
HETATM    1  C   UNL     1      -7.119  11.227  68.457  1.00  0.00    -0.083 C  
HETATM    2  C   UNL     1      -7.720  11.534  67.093  1.00  0.00    -0.160 C  
ENDROOT
BRANCH   2   3
HETATM    3  C   UNL     1      -9.247  11.418  67.120  1.00  0.00    -0.170 C  
HETATM    4  C   UNL     1      -9.960  12.598  67.819  1.00  0.00    -0.218 C  
HETATM    5  C   UNL     1     -11.460  12.322  67.887  1.00  0.00    -0.330 C  
HETATM    6  C   UNL     1      -9.666  13.974  67.187  1.00  0.00    -0.242 C  
HETATM    7  O   UNL     1     -12.156  13.242  68.591  1.00  0.00    -0.337 OA 
HETATM    8  O   UNL     1     -12.014  11.351  67.393  1.00  0.00    -0.606 OA 
BRANCH   6   9
HETATM    9  C   UNL     1     -10.133  14.116  65.735  1.00  0.00    -0.352 C  
HETATM   10  C   UNL     1     -11.034  15.330  65.567  1.00  0.00    -0.365 C  
ENDBRANCH   6   9
ENDBRANCH   2   3
TORSDOF 2
ENDMDL
MODEL      108
REMARK 921   NORMALIZED FREE ENERGY PREDICTED BY IDOCK:   -2.42 KCAL/MOL
REMARK 922        TOTAL FREE ENERGY PREDICTED BY IDOCK:   -3.06 KCAL/MOL
REMARK 923 INTER-LIGAND FREE ENERGY PREDICTED BY IDOCK:   -2.90 KCAL/MOL
REMARK 924 INTRA-LIGAND FREE ENERGY PREDICTED BY IDOCK:   -0.16 KCAL/MOL
REMARK 927      BINDING AFFINITY PREDICTED BY RF-SCORE:    0.00 PKD
ROOT
HETATM    1  C   UNL     1     -10.776  14.088  67.552  1.00  0.00    -0.271 C  
HETATM    2  C   UNL     1     -11.743  12.937  67.311  1.00  0.00    -0.431 C  
ENDROOT
BRANCH   2   3
HETATM    3  C   UNL     1     -11.455  12.240  65.978  1.00  0.00    -0.434 C  
HETATM    4  C   UNL     1     -10.059  11.581  65.895  1.00  0.00    -0.271 C  
HETATM    5  C   UNL     1      -9.840  11.019  64.493  1.00  0.00    -0.290 C  
HETATM    6  C   UNL     1      -9.803  10.514  66.979  1.00  0.00    -0.223 C  
HETATM    7  O   UNL     1      -8.597  10.531  64.285  1.00  0.00    -0.179 OA 
HETATM    8  O   UNL     1     -10.676  11.025  63.601  1.00  0.00    -0.348 OA 
BRANCH   6   9
HETATM    9  C   UNL     1     -10.744   9.307  66.913  1.00  0.00    -0.164 C  
HETATM   10  C   UNL     1     -10.220   8.157  67.761  1.00  0.00    -0.288 C  
ENDBRANCH   6   9
ENDBRANCH   2   3
TORSDOF 2
ENDMDL
MODEL      109
REMARK 921   NORMALIZED FREE ENERGY PREDICTED BY IDOCK:   -2.42 KCAL/MOL
REMARK 922        TOTAL FREE ENERGY PREDICTED BY IDOCK:   -3.06 KCAL/MOL
REMARK 923 INTER-LIGAND FREE ENERGY PREDICTED BY IDOCK:   -2.91 KCAL/MOL
REMARK 924 INTRA-LIGAND FREE ENERGY PREDICTED BY IDOCK:   -0.14 KCAL/MOL
REMARK 927      BINDING AFFINITY PREDICTED BY RF-SCORE:    0.00 PKD
ROOT
HETATM    1  C   UNL     1     -10.962  10.596  67.982  1.00  0.00    -0.336 C  
HETATM    2  C   UNL     1     -10.585   9.164  68.331  1.00  0.00    -0.217 C  
ENDROOT
BRANCH   2   3
HETATM    3  C   UNL     1     -10.045   9.064  69.760  1.00  0.00    -0.209 C  
HETATM    4  C   UNL     1     -10.938   8.246  70.720  1.00  0.00    -0.266 C  
HETATM    5  C   UNL     1     -10.363   8.309  72.133  1.00  0.00    -0.300 C  
HETATM    6  C   UNL     1     -11.176   6.790  70.271  1.00  0.00    -0.385 C  
HETATM    7  O   UNL     1     -11.143   7.725  73.070  1.00  0.00    -0.398 OA 
HETATM    8  O   UNL     1      -9.315   8.860  72.436  1.00  0.00    -0.342 OA 
BRANCH   6   9
HETATM    9  C   UNL     1      -9.907   5.937  70.191  1.00  0.00    -0.226 C  
HETATM   10  C   UNL     1     -10.131   4.564  70.806  1.00  0.00    -0.233 C  
ENDBRANCH   6   9
ENDBRANCH   2   3
TORSDOF 2
ENDMDL
MODEL      110
REMARK 921   NORMALIZED FREE ENERGY PREDICTED BY IDOCK:   -2.42 KCAL/MOL
REMARK 922        TOTAL FREE ENERGY PREDICTED BY IDOCK:   -3.05 KCAL/MOL
REMARK 923 INTER-LIGAND FREE ENERGY PREDICTED BY IDOCK:   -2.85 KCAL/MOL
REMARK 924 INTRA-LIGAND FREE ENERGY PREDICTED BY IDOCK:   -0.20 KCAL/MOL
REMARK 927      BINDING AFFINITY PREDICTED BY RF-SCORE:    0.00 PKD
ROOT
HETATM    1  C   UNL     1     -10.738   9.929  67.586  1.00  0.00    -0.339 C  
HETATM    2  C   UNL     1     -11.116   9.612  69.026  1.00  0.00    -0.104 C  
ENDROOT
BRANCH   2   3
HETATM    3  C   UNL     1     -10.007   8.825  69.731  1.00  0.00    -0.193 C  
HETATM    4  C   UNL     1      -9.889   9.114  71.245  1.00  0.00    -0.363 C  
HETATM    5  C   UNL     1      -8.687   8.366  71.816  1.00  0.00    -0.180 C  
HETATM    6  C   UNL     1     -11.174   8.814  72.044  1.00  0.00    -0.443 C  
HETATM    7  O   UNL     1      -8.427   8.653  73.111  1.00  0.00    -0.398 OA 
HETATM    8  O   UNL     1      -7.978   7.598  71.183  1.00  0.00    -0.089 OA 
BRANCH   6   9
HETATM    9  C   UNL     1     -11.606   7.345  72.018  1.00  0.00    -0.321 C  
HETATM   10  C   UNL     1     -12.991   7.193  71.407  1.00  0.00    -0.419 C  
ENDBRANCH   6   9
ENDBRANCH   2   3
TORSDOF 2
ENDMDL
MODEL      111
REMARK 921   NORMALIZED FREE ENERGY PREDICTED BY IDOCK:   -2.41 KCAL/MOL
REMARK 922        TOTAL FREE ENERGY PREDICTED BY IDOCK:   -3.05 KCAL/MOL
REMARK 923 INTER-LIGAND FREE ENERGY PREDICTED BY IDOCK:   -2.88 KCAL/MOL
REMARK 924 INTRA-LIGAND FREE ENERGY PREDICTED BY IDOCK:   -0.17 KCAL/MOL
REMARK 927      BINDING AFFINITY PREDICTED BY RF-SCORE:    0.00 PKD
ROOT
HETATM    1  C   UNL     1      -9.465   9.732  67.082  1.00  0.00    -0.189 C  
HETATM    2  C   UNL     1     -10.607   9.004  67.775  1.00  0.00    -0.278 C  
ENDROOT
BRANCH   2   3
HETATM    3  C   UNL     1     -10.103   8.188  68.969  1.00  0.00    -0.211 C  
HETATM    4  C   UNL     1      -9.720   9.039  70.201  1.00  0.00    -0.213 C  
HETATM    5  C   UNL     1      -9.129   8.137  71.282  1.00  0.00    -0.150 C  
HETATM    6  C   UNL     1     -10.874   9.902  70.753  1.00  0.00    -0.387 C  
HETATM    7  O   UNL     1      -8.649   8.807  72.354  1.00  0.00    -0.395 OA 
HETATM    8  O   UNL     1      -9.046   6.920  71.207  1.00  0.00    -0.148 OA 
BRANCH   6   9
HETATM    9  C   UNL     1     -12.075   9.100  71.263  1.00  0.00    -0.392 C  
HETATM   10  C   UNL     1     -13.224  10.021  71.645  1.00  0.00    -0.518 C  
ENDBRANCH   6   9
ENDBRANCH   2   3
TORSDOF 2
ENDMDL
MODEL      112
REMARK 921   NORMALIZED FREE ENERGY PREDICTED BY IDOCK:   -2.41 KCAL/MOL
REMARK 922        TOTAL FREE ENERGY PREDICTED BY IDOCK:   -3.04 KCAL/MOL
REMARK 923 INTER-LIGAND FREE ENERGY PREDICTED BY IDOCK:   -2.89 KCAL/MOL
REMARK 924 INTRA-LIGAND FREE ENERGY PREDICTED BY IDOCK:   -0.15 KCAL/MOL
REMARK 927      BINDING AFFINITY PREDICTED BY RF-SCORE:    0.00 PKD
ROOT
HETATM    1  C   UNL     1      -5.283  20.755  70.097  1.00  0.00    -0.371 C  
HETATM    2  C   UNL     1      -5.859  20.735  68.689  1.00  0.00    -0.391 C  
ENDROOT
BRANCH   2   3
HETATM    3  C   UNL     1      -5.890  19.313  68.121  1.00  0.00    -0.221 C  
HETATM    4  C   UNL     1      -6.952  19.092  67.020  1.00  0.00    -0.208 C  
HETATM    5  C   UNL     1      -6.968  17.622  66.612  1.00  0.00    -0.222 C  
HETATM    6  C   UNL     1      -6.791  20.018  65.797  1.00  0.00    -0.304 C  
HETATM    7  O   UNL     1      -7.951  17.305  65.740  1.00  0.00    -0.511 OA 
HETATM    8  O   UNL     1      -6.202  16.771  67.040  1.00  0.00    -0.158 OA 
BRANCH   6   9
HETATM    9  C   UNL     1      -5.476  19.832  65.033  1.00  0.00    -0.200 C  
HETATM   10  C   UNL     1      -5.733  19.369  63.606  1.00  0.00    -0.305 C  
ENDBRANCH   6   9
ENDBRANCH   2   3
TORSDOF 2
ENDMDL
MODEL      113
REMARK 921   NORMALIZED FREE ENERGY PREDICTED BY IDOCK:   -2.41 KCAL/MOL
REMARK 922        TOTAL FREE ENERGY PREDICTED BY IDOCK:   -3.04 KCAL/MOL
REMARK 923 INTER-LIGAND FREE ENERGY PREDICTED BY IDOCK:   -2.77 KCAL/MOL
REMARK 924 INTRA-LIGAND FREE ENERGY PREDICTED BY IDOCK:   -0.27 KCAL/MOL
REMARK 927      BINDING AFFINITY PREDICTED BY RF-SCORE:    0.00 PKD
ROOT
HETATM    1  C   UNL     1     -11.039  15.439  64.607  1.00  0.00    -0.361 C  
HETATM    2  C   UNL     1     -11.031  16.798  65.291  1.00  0.00    -0.084 C  
ENDROOT
BRANCH   2   3
HETATM    3  C   UNL     1      -9.694  17.060  65.991  1.00  0.00    -0.243 C  
HETATM    4  C   UNL     1      -9.733  18.213  67.020  1.00  0.00    -0.307 C  
HETATM    5  C   UNL     1      -8.329  18.456  67.568  1.00  0.00    -0.252 C  
HETATM    6  C   UNL     1     -10.756  18.008  68.155  1.00  0.00    -0.267 C  
HETATM    7  O   UNL     1      -8.237  19.528  68.385  1.00  0.00    -0.333 OA 
HETATM    8  O   UNL     1      -7.345  17.786  67.289  1.00  0.00    -0.182 OA 
BRANCH   6   9
HETATM    9  C   UNL     1     -10.487  16.785  69.037  1.00  0.00    -0.336 C  
HETATM   10  C   UNL     1     -11.651  15.806  68.985  1.00  0.00    -0.406 C  
ENDBRANCH   6   9
ENDBRANCH   2   3
TORSDOF 2
ENDMDL
MODEL      114
REMARK 921   NORMALIZED FREE ENERGY PREDICTED BY IDOCK:   -2.40 KCAL/MOL
REMARK 922        TOTAL FREE ENERGY PREDICTED BY IDOCK:   -3.04 KCAL/MOL
REMARK 923 INTER-LIGAND FREE ENERGY PREDICTED BY IDOCK:   -2.90 KCAL/MOL
REMARK 924 INTRA-LIGAND FREE ENERGY PREDICTED BY IDOCK:   -0.14 KCAL/MOL
REMARK 927      BINDING AFFINITY PREDICTED BY RF-SCORE:    0.00 PKD
ROOT
HETATM    1  C   UNL     1     -10.498  15.773  66.896  1.00  0.00    -0.315 C  
HETATM    2  C   UNL     1     -10.646  16.959  67.836  1.00  0.00    -0.361 C  
ENDROOT
BRANCH   2   3
HETATM    3  C   UNL     1      -9.298  17.357  68.446  1.00  0.00    -0.285 C  
HETATM    4  C   UNL     1      -8.133  17.403  67.432  1.00  0.00    -0.213 C  
HETATM    5  C   UNL     1      -6.827  17.697  68.167  1.00  0.00    -0.207 C  
HETATM    6  C   UNL     1      -8.357  18.382  66.262  1.00  0.00    -0.231 C  
HETATM    7  O   UNL     1      -5.729  17.636  67.380  1.00  0.00    -0.136 OA 
HETATM    8  O   UNL     1      -6.737  17.935  69.362  1.00  0.00    -0.243 OA 
BRANCH   6   9
HETATM    9  C   UNL     1      -8.491  19.849  66.681  1.00  0.00    -0.381 C  
HETATM   10  C   UNL     1      -9.919  20.342  66.499  1.00  0.00    -0.528 C  
ENDBRANCH   6   9
ENDBRANCH   2   3
TORSDOF 2
ENDMDL
MODEL      115
REMARK 921   NORMALIZED FREE ENERGY PREDICTED BY IDOCK:   -2.40 KCAL/MOL
REMARK 922        TOTAL FREE ENERGY PREDICTED BY IDOCK:   -3.04 KCAL/MOL
REMARK 923 INTER-LIGAND FREE ENERGY PREDICTED BY IDOCK:   -2.79 KCAL/MOL
REMARK 924 INTRA-LIGAND FREE ENERGY PREDICTED BY IDOCK:   -0.25 KCAL/MOL
REMARK 927      BINDING AFFINITY PREDICTED BY RF-SCORE:    0.00 PKD
ROOT
HETATM    1  C   UNL     1      -7.983   9.784  69.952  1.00  0.00    -0.184 C  
HETATM    2  C   UNL     1      -9.484   9.884  69.725  1.00  0.00    -0.254 C  
ENDROOT
BRANCH   2   3
HETATM    3  C   UNL     1     -10.265   9.278  70.895  1.00  0.00    -0.371 C  
HETATM    4  C   UNL     1     -11.315   8.224  70.478  1.00  0.00    -0.225 C  
HETATM    5  C   UNL     1     -12.104   7.775  71.705  1.00  0.00    -0.298 C  
HETATM    6  C   UNL     1     -10.729   7.021  69.711  1.00  0.00    -0.265 C  
HETATM    7  O   UNL     1     -13.131   6.942  71.423  1.00  0.00    -0.344 OA 
HETATM    8  O   UNL     1     -11.882   8.140  72.850  1.00  0.00    -0.352 OA 
BRANCH   6   9
HETATM    9  C   UNL     1      -9.723   6.189  70.513  1.00  0.00    -0.203 C  
HETATM   10  C   UNL     1     -10.122   4.721  70.536  1.00  0.00    -0.291 C  
ENDBRANCH   6   9
ENDBRANCH   2   3
TORSDOF 2
ENDMDL
MODEL      116
REMARK 921   NORMALIZED FREE ENERGY PREDICTED BY IDOCK:   -2.39 KCAL/MOL
REMARK 922        TOTAL FREE ENERGY PREDICTED BY IDOCK:   -3.02 KCAL/MOL
REMARK 923 INTER-LIGAND FREE ENERGY PREDICTED BY IDOCK:   -2.84 KCAL/MOL
REMARK 924 INTRA-LIGAND FREE ENERGY PREDICTED BY IDOCK:   -0.19 KCAL/MOL
REMARK 927      BINDING AFFINITY PREDICTED BY RF-SCORE:    0.00 PKD
ROOT
HETATM    1  C   UNL     1      -9.434  16.427  66.823  1.00  0.00    -0.265 C  
HETATM    2  C   UNL     1      -9.078  15.004  66.415  1.00  0.00    -0.312 C  
ENDROOT
BRANCH   2   3
HETATM    3  C   UNL     1      -9.575  13.990  67.450  1.00  0.00    -0.227 C  
HETATM    4  C   UNL     1     -11.052  14.177  67.863  1.00  0.00    -0.285 C  
HETATM    5  C   UNL     1     -11.402  13.190  68.973  1.00  0.00    -0.282 C  
HETATM    6  C   UNL     1     -12.049  14.086  66.689  1.00  0.00    -0.487 C  
HETATM    7  O   UNL     1     -12.641  13.359  69.488  1.00  0.00    -0.068 OA 
HETATM    8  O   UNL     1     -10.647  12.334  69.409  1.00  0.00     0.021 OA 
BRANCH   6   9
HETATM    9  C   UNL     1     -12.072  12.728  65.982  1.00  0.00    -0.458 C  
HETATM   10  C   UNL     1     -12.038  12.898  64.470  1.00  0.00    -0.473 C  
ENDBRANCH   6   9
ENDBRANCH   2   3
TORSDOF 2
ENDMDL
MODEL      117
REMARK 921   NORMALIZED FREE ENERGY PREDICTED BY IDOCK:   -2.37 KCAL/MOL
REMARK 922        TOTAL FREE ENERGY PREDICTED BY IDOCK:   -3.00 KCAL/MOL
REMARK 923 INTER-LIGAND FREE ENERGY PREDICTED BY IDOCK:   -2.84 KCAL/MOL
REMARK 924 INTRA-LIGAND FREE ENERGY PREDICTED BY IDOCK:   -0.16 KCAL/MOL
REMARK 927      BINDING AFFINITY PREDICTED BY RF-SCORE:    0.00 PKD
ROOT
HETATM    1  C   UNL     1     -10.815  15.166  65.970  1.00  0.00    -0.335 C  
HETATM    2  C   UNL     1      -9.493  15.894  65.770  1.00  0.00    -0.316 C  
ENDROOT
BRANCH   2   3
HETATM    3  C   UNL     1      -9.410  17.146  66.649  1.00  0.00    -0.277 C  
HETATM    4  C   UNL     1      -8.091  17.276  67.443  1.00  0.00    -0.205 C  
HETATM    5  C   UNL     1      -8.165  18.492  68.363  1.00  0.00    -0.328 C  
HETATM    6  C   UNL     1      -6.826  17.311  66.560  1.00  0.00    -0.292 C  
HETATM    7  O   UNL     1      -7.104  18.620  69.191  1.00  0.00    -0.285 OA 
HETATM    8  O   UNL     1      -9.098  19.280  68.403  1.00  0.00    -0.332 OA 
BRANCH   6   9
HETATM    9  C   UNL     1      -6.757  18.504  65.602  1.00  0.00    -0.300 C  
HETATM   10  C   UNL     1      -5.509  19.337  65.854  1.00  0.00    -0.176 C  
ENDBRANCH   6   9
ENDBRANCH   2   3
TORSDOF 2
ENDMDL
MODEL      118
REMARK 921   NORMALIZED FREE ENERGY PREDICTED BY IDOCK:   -2.37 KCAL/MOL
REMARK 922        TOTAL FREE ENERGY PREDICTED BY IDOCK:   -3.00 KCAL/MOL
REMARK 923 INTER-LIGAND FREE ENERGY PREDICTED BY IDOCK:   -2.73 KCAL/MOL
REMARK 924 INTRA-LIGAND FREE ENERGY PREDICTED BY IDOCK:   -0.27 KCAL/MOL
REMARK 927      BINDING AFFINITY PREDICTED BY RF-SCORE:    0.00 PKD
ROOT
HETATM    1  C   UNL     1      -8.381  16.610  68.782  1.00  0.00    -0.252 C  
HETATM    2  C   UNL     1      -9.146  15.877  67.690  1.00  0.00    -0.200 C  
ENDROOT
BRANCH   2   3
HETATM    3  C   UNL     1     -10.106  14.841  68.284  1.00  0.00    -0.221 C  
HETATM    4  C   UNL     1     -10.560  13.752  67.286  1.00  0.00    -0.275 C  
HETATM    5  C   UNL     1     -11.594  12.848  67.952  1.00  0.00    -0.345 C  
HETATM    6  C   UNL     1      -9.402  12.935  66.677  1.00  0.00    -0.240 C  
HETATM    7  O   UNL     1     -12.145  11.937  67.118  1.00  0.00    -0.590 OA 
HETATM    8  O   UNL     1     -11.946  12.931  69.119  1.00  0.00    -0.298 OA 
BRANCH   6   9
HETATM    9  C   UNL     1      -8.589  12.133  67.697  1.00  0.00    -0.166 C  
HETATM   10  C   UNL     1      -7.117  12.511  67.642  1.00  0.00    -0.139 C  
ENDBRANCH   6   9
ENDBRANCH   2   3
TORSDOF 2
ENDMDL
MODEL      119
REMARK 921   NORMALIZED FREE ENERGY PREDICTED BY IDOCK:   -2.36 KCAL/MOL
REMARK 922        TOTAL FREE ENERGY PREDICTED BY IDOCK:   -2.99 KCAL/MOL
REMARK 923 INTER-LIGAND FREE ENERGY PREDICTED BY IDOCK:   -2.87 KCAL/MOL
REMARK 924 INTRA-LIGAND FREE ENERGY PREDICTED BY IDOCK:   -0.12 KCAL/MOL
REMARK 927      BINDING AFFINITY PREDICTED BY RF-SCORE:    0.00 PKD
ROOT
HETATM    1  C   UNL     1     -10.153  10.520  65.290  1.00  0.00    -0.369 C  
HETATM    2  C   UNL     1     -10.512   9.881  66.624  1.00  0.00    -0.239 C  
ENDROOT
BRANCH   2   3
HETATM    3  C   UNL     1     -10.838  10.942  67.679  1.00  0.00    -0.317 C  
HETATM    4  C   UNL     1     -11.602  10.400  68.908  1.00  0.00    -0.208 C  
HETATM    5  C   UNL     1     -11.970  11.558  69.833  1.00  0.00    -0.351 C  
HETATM    6  C   UNL     1     -10.860   9.283  69.668  1.00  0.00    -0.228 C  
HETATM    7  O   UNL     1     -12.750  11.200  70.877  1.00  0.00    -0.357 OA 
HETATM    8  O   UNL     1     -11.640  12.721  69.659  1.00  0.00    -0.287 OA 
BRANCH   6   9
HETATM    9  C   UNL     1      -9.520   9.711  70.273  1.00  0.00    -0.300 C  
HETATM   10  C   UNL     1      -8.828   8.541  70.955  1.00  0.00    -0.212 C  
ENDBRANCH   6   9
ENDBRANCH   2   3
TORSDOF 2
ENDMDL
MODEL      120
REMARK 921   NORMALIZED FREE ENERGY PREDICTED BY IDOCK:   -2.35 KCAL/MOL
REMARK 922        TOTAL FREE ENERGY PREDICTED BY IDOCK:   -2.98 KCAL/MOL
REMARK 923 INTER-LIGAND FREE ENERGY PREDICTED BY IDOCK:   -2.61 KCAL/MOL
REMARK 924 INTRA-LIGAND FREE ENERGY PREDICTED BY IDOCK:   -0.36 KCAL/MOL
REMARK 927      BINDING AFFINITY PREDICTED BY RF-SCORE:    0.00 PKD
ROOT
HETATM    1  C   UNL     1     -10.511   7.330  68.219  1.00  0.00    -0.239 C  
HETATM    2  C   UNL     1     -10.898   8.474  67.294  1.00  0.00    -0.076 C  
ENDROOT
BRANCH   2   3
HETATM    3  C   UNL     1     -10.052   9.721  67.569  1.00  0.00    -0.246 C  
HETATM    4  C   UNL     1     -10.872  11.021  67.734  1.00  0.00    -0.297 C  
HETATM    5  C   UNL     1      -9.924  12.207  67.890  1.00  0.00    -0.200 C  
HETATM    6  C   UNL     1     -11.908  10.970  68.876  1.00  0.00    -0.378 C  
HETATM    7  O   UNL     1     -10.547  13.407  67.917  1.00  0.00    -0.236 OA 
HETATM    8  O   UNL     1      -8.707  12.124  67.951  1.00  0.00    -0.159 OA 
BRANCH   6   9
HETATM    9  C   UNL     1     -11.303  10.779  70.270  1.00  0.00    -0.374 C  
HETATM   10  C   UNL     1     -11.894   9.559  70.961  1.00  0.00    -0.408 C  
ENDBRANCH   6   9
ENDBRANCH   2   3
TORSDOF 2
ENDMDL
MODEL      121
REMARK 921   NORMALIZED FREE ENERGY PREDICTED BY IDOCK:   -2.35 KCAL/MOL
REMARK 922        TOTAL FREE ENERGY PREDICTED BY IDOCK:   -2.98 KCAL/MOL
REMARK 923 INTER-LIGAND FREE ENERGY PREDICTED BY IDOCK:   -2.76 KCAL/MOL
REMARK 924 INTRA-LIGAND FREE ENERGY PREDICTED BY IDOCK:   -0.21 KCAL/MOL
REMARK 927      BINDING AFFINITY PREDICTED BY RF-SCORE:    0.00 PKD
ROOT
HETATM    1  C   UNL     1      -8.407  14.284  67.448  1.00  0.00    -0.212 C  
HETATM    2  C   UNL     1      -7.887  12.854  67.426  1.00  0.00    -0.170 C  
ENDROOT
BRANCH   2   3
HETATM    3  C   UNL     1      -8.767  11.931  68.276  1.00  0.00    -0.170 C  
HETATM    4  C   UNL     1     -10.258  11.924  67.868  1.00  0.00    -0.203 C  
HETATM    5  C   UNL     1     -11.052  11.063  68.847  1.00  0.00    -0.239 C  
HETATM    6  C   UNL     1     -10.508  11.498  66.407  1.00  0.00    -0.292 C  
HETATM    7  O   UNL     1     -12.388  11.094  68.646  1.00  0.00    -0.549 OA 
HETATM    8  O   UNL     1     -10.564  10.419  69.764  1.00  0.00    -0.247 OA 
BRANCH   6   9
HETATM    9  C   UNL     1     -10.069  10.068  66.081  1.00  0.00    -0.317 C  
HETATM   10  C   UNL     1      -9.467   9.984  64.687  1.00  0.00    -0.367 C  
ENDBRANCH   6   9
ENDBRANCH   2   3
TORSDOF 2
ENDMDL
MODEL      122
REMARK 921   NORMALIZED FREE ENERGY PREDICTED BY IDOCK:   -2.34 KCAL/MOL
REMARK 922        TOTAL FREE ENERGY PREDICTED BY IDOCK:   -2.97 KCAL/MOL
REMARK 923 INTER-LIGAND FREE ENERGY PREDICTED BY IDOCK:   -2.80 KCAL/MOL
REMARK 924 INTRA-LIGAND FREE ENERGY PREDICTED BY IDOCK:   -0.17 KCAL/MOL
REMARK 927      BINDING AFFINITY PREDICTED BY RF-SCORE:    0.00 PKD
ROOT
HETATM    1  C   UNL     1     -11.606  12.238  65.576  1.00  0.00    -0.422 C  
HETATM    2  C   UNL     1     -10.669  11.942  66.738  1.00  0.00    -0.282 C  
ENDROOT
BRANCH   2   3
HETATM    3  C   UNL     1     -10.739  10.468  67.147  1.00  0.00    -0.323 C  
HETATM    4  C   UNL     1     -10.008  10.141  68.469  1.00  0.00    -0.177 C  
HETATM    5  C   UNL     1     -10.047   8.635  68.717  1.00  0.00    -0.196 C  
HETATM    6  C   UNL     1     -10.529  10.929  69.688  1.00  0.00    -0.133 C  
HETATM    7  O   UNL     1      -9.326   8.236  69.788  1.00  0.00    -0.157 OA 
HETATM    8  O   UNL     1     -10.636   7.828  68.014  1.00  0.00    -0.201 OA 
BRANCH   6   9
HETATM    9  C   UNL     1     -11.993  10.652  70.041  1.00  0.00    -0.408 C  
HETATM   10  C   UNL     1     -12.111   9.982  71.402  1.00  0.00    -0.498 C  
ENDBRANCH   6   9
ENDBRANCH   2   3
TORSDOF 2
ENDMDL
MODEL      123
REMARK 921   NORMALIZED FREE ENERGY PREDICTED BY IDOCK:   -2.34 KCAL/MOL
REMARK 922        TOTAL FREE ENERGY PREDICTED BY IDOCK:   -2.97 KCAL/MOL
REMARK 923 INTER-LIGAND FREE ENERGY PREDICTED BY IDOCK:   -2.85 KCAL/MOL
REMARK 924 INTRA-LIGAND FREE ENERGY PREDICTED BY IDOCK:   -0.11 KCAL/MOL
REMARK 927      BINDING AFFINITY PREDICTED BY RF-SCORE:    0.00 PKD
ROOT
HETATM    1  C   UNL     1     -11.843  15.050  68.628  1.00  0.00    -0.325 C  
HETATM    2  C   UNL     1     -11.459  14.648  67.211  1.00  0.00    -0.386 C  
ENDROOT
BRANCH   2   3
HETATM    3  C   UNL     1     -10.253  13.703  67.210  1.00  0.00    -0.246 C  
HETATM    4  C   UNL     1     -10.606  12.226  66.921  1.00  0.00    -0.249 C  
HETATM    5  C   UNL     1      -9.353  11.365  67.056  1.00  0.00    -0.174 C  
HETATM    6  C   UNL     1     -11.304  12.001  65.564  1.00  0.00    -0.381 C  
HETATM    7  O   UNL     1      -9.584  10.038  66.942  1.00  0.00    -0.164 OA 
HETATM    8  O   UNL     1      -8.232  11.795  67.283  1.00  0.00    -0.148 OA 
BRANCH   6   9
HETATM    9  C   UNL     1     -10.458  12.386  64.346  1.00  0.00    -0.371 C  
HETATM   10  C   UNL     1      -9.971  11.149  63.605  1.00  0.00    -0.411 C  
ENDBRANCH   6   9
ENDBRANCH   2   3
TORSDOF 2
ENDMDL
MODEL      124
REMARK 921   NORMALIZED FREE ENERGY PREDICTED BY IDOCK:   -2.34 KCAL/MOL
REMARK 922        TOTAL FREE ENERGY PREDICTED BY IDOCK:   -2.96 KCAL/MOL
REMARK 923 INTER-LIGAND FREE ENERGY PREDICTED BY IDOCK:   -2.64 KCAL/MOL
REMARK 924 INTRA-LIGAND FREE ENERGY PREDICTED BY IDOCK:   -0.32 KCAL/MOL
REMARK 927      BINDING AFFINITY PREDICTED BY RF-SCORE:    0.00 PKD
ROOT
HETATM    1  C   UNL     1     -10.963  15.343  64.851  1.00  0.00    -0.453 C  
HETATM    2  C   UNL     1     -10.481  16.273  65.954  1.00  0.00    -0.359 C  
ENDROOT
BRANCH   2   3
HETATM    3  C   UNL     1      -9.013  16.008  66.302  1.00  0.00    -0.380 C  
HETATM    4  C   UNL     1      -8.710  16.014  67.818  1.00  0.00    -0.170 C  
HETATM    5  C   UNL     1      -7.208  15.853  68.040  1.00  0.00    -0.132 C  
HETATM    6  C   UNL     1      -9.516  14.976  68.624  1.00  0.00    -0.212 C  
HETATM    7  O   UNL     1      -6.829  15.970  69.332  1.00  0.00    -0.195 OA 
HETATM    8  O   UNL     1      -6.387  15.670  67.153  1.00  0.00    -0.308 OA 
BRANCH   6   9
HETATM    9  C   UNL     1      -9.239  13.520  68.236  1.00  0.00    -0.195 C  
HETATM   10  C   UNL     1     -10.536  12.747  68.053  1.00  0.00    -0.238 C  
ENDBRANCH   6   9
ENDBRANCH   2   3
TORSDOF 2
ENDMDL
MODEL      125
REMARK 921   NORMALIZED FREE ENERGY PREDICTED BY IDOCK:   -2.33 KCAL/MOL
REMARK 922        TOTAL FREE ENERGY PREDICTED BY IDOCK:   -2.95 KCAL/MOL
REMARK 923 INTER-LIGAND FREE ENERGY PREDICTED BY IDOCK:   -2.76 KCAL/MOL
REMARK 924 INTRA-LIGAND FREE ENERGY PREDICTED BY IDOCK:   -0.19 KCAL/MOL
REMARK 927      BINDING AFFINITY PREDICTED BY RF-SCORE:    0.00 PKD
ROOT
HETATM    1  C   UNL     1     -12.153  10.384  70.954  1.00  0.00    -0.477 C  
HETATM    2  C   UNL     1     -11.797  11.357  69.839  1.00  0.00    -0.435 C  
ENDROOT
BRANCH   2   3
HETATM    3  C   UNL     1     -10.526  10.918  69.105  1.00  0.00    -0.248 C  
HETATM    4  C   UNL     1     -10.671  10.857  67.568  1.00  0.00    -0.299 C  
HETATM    5  C   UNL     1      -9.387  10.303  66.955  1.00  0.00    -0.158 C  
HETATM    6  C   UNL     1     -11.075  12.197  66.921  1.00  0.00    -0.348 C  
HETATM    7  O   UNL     1      -9.461  10.096  65.621  1.00  0.00    -0.187 OA 
HETATM    8  O   UNL     1      -8.377  10.026  67.583  1.00  0.00    -0.114 OA 
BRANCH   6   9
HETATM    9  C   UNL     1     -10.057  13.325  67.114  1.00  0.00    -0.239 C  
HETATM   10  C   UNL     1     -10.721  14.570  67.684  1.00  0.00    -0.254 C  
ENDBRANCH   6   9
ENDBRANCH   2   3
TORSDOF 2
ENDMDL
MODEL      126
REMARK 921   NORMALIZED FREE ENERGY PREDICTED BY IDOCK:   -2.33 KCAL/MOL
REMARK 922        TOTAL FREE ENERGY PREDICTED BY IDOCK:   -2.95 KCAL/MOL
REMARK 923 INTER-LIGAND FREE ENERGY PREDICTED BY IDOCK:   -2.70 KCAL/MOL
REMARK 924 INTRA-LIGAND FREE ENERGY PREDICTED BY IDOCK:   -0.26 KCAL/MOL
REMARK 927      BINDING AFFINITY PREDICTED BY RF-SCORE:    0.00 PKD
ROOT
HETATM    1  C   UNL     1     -12.569  12.856  65.002  1.00  0.00    -0.538 C  
HETATM    2  C   UNL     1     -11.884  13.466  66.217  1.00  0.00    -0.438 C  
ENDROOT
BRANCH   2   3
HETATM    3  C   UNL     1     -10.427  13.004  66.323  1.00  0.00    -0.285 C  
HETATM    4  C   UNL     1     -10.066  12.354  67.678  1.00  0.00    -0.199 C  
HETATM    5  C   UNL     1      -8.572  12.038  67.711  1.00  0.00    -0.157 C  
HETATM    6  C   UNL     1     -10.914  11.114  68.026  1.00  0.00    -0.307 C  
HETATM    7  O   UNL     1      -8.135  11.579  68.905  1.00  0.00    -0.123 OA 
HETATM    8  O   UNL     1      -7.803  12.206  66.777  1.00  0.00    -0.109 OA 
BRANCH   6   9
HETATM    9  C   UNL     1     -10.762   9.947  67.046  1.00  0.00    -0.237 C  
HETATM   10  C   UNL     1     -10.322   8.681  67.767  1.00  0.00    -0.303 C  
ENDBRANCH   6   9
ENDBRANCH   2   3
TORSDOF 2
ENDMDL
MODEL      127
REMARK 921   NORMALIZED FREE ENERGY PREDICTED BY IDOCK:   -2.30 KCAL/MOL
REMARK 922        TOTAL FREE ENERGY PREDICTED BY IDOCK:   -2.93 KCAL/MOL
REMARK 923 INTER-LIGAND FREE ENERGY PREDICTED BY IDOCK:   -2.70 KCAL/MOL
REMARK 924 INTRA-LIGAND FREE ENERGY PREDICTED BY IDOCK:   -0.23 KCAL/MOL
REMARK 927      BINDING AFFINITY PREDICTED BY RF-SCORE:    0.00 PKD
ROOT
HETATM    1  C   UNL     1     -11.920  14.562  70.901  1.00  0.00    -0.389 C  
HETATM    2  C   UNL     1     -11.929  13.507  69.804  1.00  0.00    -0.405 C  
ENDROOT
BRANCH   2   3
HETATM    3  C   UNL     1     -11.791  14.146  68.419  1.00  0.00    -0.388 C  
HETATM    4  C   UNL     1     -10.503  14.979  68.230  1.00  0.00    -0.237 C  
HETATM    5  C   UNL     1     -10.526  15.656  66.862  1.00  0.00    -0.307 C  
HETATM    6  C   UNL     1      -9.200  14.182  68.445  1.00  0.00    -0.203 C  
HETATM    7  O   UNL     1      -9.498  16.508  66.653  1.00  0.00    -0.233 OA 
HETATM    8  O   UNL     1     -11.397  15.495  66.020  1.00  0.00    -0.189 OA 
BRANCH   6   9
HETATM    9  C   UNL     1      -8.996  13.028  67.460  1.00  0.00    -0.193 C  
HETATM   10  C   UNL     1      -8.437  11.800  68.163  1.00  0.00    -0.158 C  
ENDBRANCH   6   9
ENDBRANCH   2   3
TORSDOF 2
ENDMDL
MODEL      128
REMARK 921   NORMALIZED FREE ENERGY PREDICTED BY IDOCK:   -2.29 KCAL/MOL
REMARK 922        TOTAL FREE ENERGY PREDICTED BY IDOCK:   -2.91 KCAL/MOL
REMARK 923 INTER-LIGAND FREE ENERGY PREDICTED BY IDOCK:   -2.67 KCAL/MOL
REMARK 924 INTRA-LIGAND FREE ENERGY PREDICTED BY IDOCK:   -0.24 KCAL/MOL
REMARK 927      BINDING AFFINITY PREDICTED BY RF-SCORE:    0.00 PKD
ROOT
HETATM    1  C   UNL     1      -8.083   5.593  69.550  1.00  0.00    -0.103 C  
HETATM    2  C   UNL     1      -9.346   6.441  69.582  1.00  0.00    -0.148 C  
ENDROOT
BRANCH   2   3
HETATM    3  C   UNL     1     -10.280   6.005  70.715  1.00  0.00    -0.258 C  
HETATM    4  C   UNL     1      -9.831   6.467  72.120  1.00  0.00    -0.170 C  
HETATM    5  C   UNL     1     -10.769   5.883  73.174  1.00  0.00    -0.261 C  
HETATM    6  C   UNL     1      -9.697   7.996  72.267  1.00  0.00    -0.294 C  
HETATM    7  O   UNL     1     -10.385   6.129  74.447  1.00  0.00    -0.310 OA 
HETATM    8  O   UNL     1     -11.764   5.217  72.930  1.00  0.00    -0.295 OA 
BRANCH   6   9
HETATM    9  C   UNL     1     -11.005   8.767  72.066  1.00  0.00    -0.438 C  
HETATM   10  C   UNL     1     -10.955   9.609  70.799  1.00  0.00    -0.397 C  
ENDBRANCH   6   9
ENDBRANCH   2   3
TORSDOF 2
ENDMDL
MODEL      129
REMARK 921   NORMALIZED FREE ENERGY PREDICTED BY IDOCK:   -2.28 KCAL/MOL
REMARK 922        TOTAL FREE ENERGY PREDICTED BY IDOCK:   -2.89 KCAL/MOL
REMARK 923 INTER-LIGAND FREE ENERGY PREDICTED BY IDOCK:   -2.70 KCAL/MOL
REMARK 924 INTRA-LIGAND FREE ENERGY PREDICTED BY IDOCK:   -0.20 KCAL/MOL
REMARK 927      BINDING AFFINITY PREDICTED BY RF-SCORE:    0.00 PKD
ROOT
HETATM    1  C   UNL     1      -6.970  13.793  68.703  1.00  0.00    -0.102 C  
HETATM    2  C   UNL     1      -8.315  14.439  68.401  1.00  0.00    -0.155 C  
ENDROOT
BRANCH   2   3
HETATM    3  C   UNL     1      -8.986  13.783  67.191  1.00  0.00    -0.241 C  
HETATM    4  C   UNL     1     -10.519  13.974  67.136  1.00  0.00    -0.270 C  
HETATM    5  C   UNL     1     -11.090  13.188  65.958  1.00  0.00    -0.280 C  
HETATM    6  C   UNL     1     -10.968  15.449  67.103  1.00  0.00    -0.317 C  
HETATM    7  O   UNL     1     -12.441  13.192  65.899  1.00  0.00    -0.420 OA 
HETATM    8  O   UNL     1     -10.423  12.569  65.143  1.00  0.00    -0.280 OA 
BRANCH   6   9
HETATM    9  C   UNL     1     -10.492  16.228  65.874  1.00  0.00    -0.359 C  
HETATM   10  C   UNL     1      -9.765  17.501  66.281  1.00  0.00    -0.271 C  
ENDBRANCH   6   9
ENDBRANCH   2   3
TORSDOF 2
ENDMDL
MODEL      130
REMARK 921   NORMALIZED FREE ENERGY PREDICTED BY IDOCK:   -2.26 KCAL/MOL
REMARK 922        TOTAL FREE ENERGY PREDICTED BY IDOCK:   -2.88 KCAL/MOL
REMARK 923 INTER-LIGAND FREE ENERGY PREDICTED BY IDOCK:   -2.66 KCAL/MOL
REMARK 924 INTRA-LIGAND FREE ENERGY PREDICTED BY IDOCK:   -0.22 KCAL/MOL
REMARK 927      BINDING AFFINITY PREDICTED BY RF-SCORE:    0.00 PKD
ROOT
HETATM    1  C   UNL     1     -11.629  14.763  65.930  1.00  0.00    -0.286 C  
HETATM    2  C   UNL     1     -10.791  15.405  67.027  1.00  0.00    -0.320 C  
ENDROOT
BRANCH   2   3
HETATM    3  C   UNL     1      -9.783  16.400  66.445  1.00  0.00    -0.308 C  
HETATM    4  C   UNL     1      -8.920  17.121  67.505  1.00  0.00    -0.221 C  
HETATM    5  C   UNL     1      -8.036  18.163  66.823  1.00  0.00    -0.246 C  
HETATM    6  C   UNL     1      -8.091  16.171  68.394  1.00  0.00    -0.171 C  
HETATM    7  O   UNL     1      -7.333  18.933  67.683  1.00  0.00    -0.219 OA 
HETATM    8  O   UNL     1      -7.971  18.340  65.616  1.00  0.00    -0.494 OA 
BRANCH   6   9
HETATM    9  C   UNL     1      -7.055  15.337  67.634  1.00  0.00    -0.206 C  
HETATM   10  C   UNL     1      -7.428  13.862  67.643  1.00  0.00    -0.187 C  
ENDBRANCH   6   9
ENDBRANCH   2   3
TORSDOF 2
ENDMDL
MODEL      131
REMARK 921   NORMALIZED FREE ENERGY PREDICTED BY IDOCK:   -2.26 KCAL/MOL
REMARK 922        TOTAL FREE ENERGY PREDICTED BY IDOCK:   -2.88 KCAL/MOL
REMARK 923 INTER-LIGAND FREE ENERGY PREDICTED BY IDOCK:   -2.71 KCAL/MOL
REMARK 924 INTRA-LIGAND FREE ENERGY PREDICTED BY IDOCK:   -0.17 KCAL/MOL
REMARK 927      BINDING AFFINITY PREDICTED BY RF-SCORE:    0.00 PKD
ROOT
HETATM    1  C   UNL     1      -9.237   9.013  69.007  1.00  0.00    -0.140 C  
HETATM    2  C   UNL     1     -10.339   7.985  68.798  1.00  0.00    -0.223 C  
ENDROOT
BRANCH   2   3
HETATM    3  C   UNL     1     -10.294   6.895  69.873  1.00  0.00    -0.223 C  
HETATM    4  C   UNL     1     -10.558   7.408  71.307  1.00  0.00    -0.231 C  
HETATM    5  C   UNL     1     -10.377   6.264  72.301  1.00  0.00    -0.190 C  
HETATM    6  C   UNL     1     -11.924   8.102  71.485  1.00  0.00    -0.334 C  
HETATM    7  O   UNL     1     -10.466   6.643  73.596  1.00  0.00    -0.281 OA 
HETATM    8  O   UNL     1     -10.137   5.106  71.995  1.00  0.00    -0.183 OA 
BRANCH   6   9
HETATM    9  C   UNL     1     -13.132   7.197  71.229  1.00  0.00    -0.361 C  
HETATM   10  C   UNL     1     -14.380   7.744  71.906  1.00  0.00    -0.545 C  
ENDBRANCH   6   9
ENDBRANCH   2   3
TORSDOF 2
ENDMDL
MODEL      132
REMARK 921   NORMALIZED FREE ENERGY PREDICTED BY IDOCK:   -2.25 KCAL/MOL
REMARK 922        TOTAL FREE ENERGY PREDICTED BY IDOCK:   -2.86 KCAL/MOL
REMARK 923 INTER-LIGAND FREE ENERGY PREDICTED BY IDOCK:   -2.67 KCAL/MOL
REMARK 924 INTRA-LIGAND FREE ENERGY PREDICTED BY IDOCK:   -0.20 KCAL/MOL
REMARK 927      BINDING AFFINITY PREDICTED BY RF-SCORE:    0.00 PKD
ROOT
HETATM    1  C   UNL     1      -9.754  13.073  68.120  1.00  0.00    -0.228 C  
HETATM    2  C   UNL     1     -10.013  11.679  67.570  1.00  0.00    -0.202 C  
ENDROOT
BRANCH   2   3
HETATM    3  C   UNL     1      -8.946  11.279  66.546  1.00  0.00    -0.189 C  
HETATM    4  C   UNL     1      -9.430  10.258  65.492  1.00  0.00    -0.277 C  
HETATM    5  C   UNL     1      -8.260   9.850  64.600  1.00  0.00    -0.153 C  
HETATM    6  C   UNL     1     -10.635  10.738  64.659  1.00  0.00    -0.269 C  
HETATM    7  O   UNL     1      -8.556   8.865  63.722  1.00  0.00    -0.174 OA 
HETATM    8  O   UNL     1      -7.134  10.321  64.667  1.00  0.00    -0.136 OA 
BRANCH   6   9
HETATM    9  C   UNL     1     -10.363  11.986  63.813  1.00  0.00    -0.457 C  
HETATM   10  C   UNL     1     -11.658  12.703  63.462  1.00  0.00    -0.584 C  
ENDBRANCH   6   9
ENDBRANCH   2   3
TORSDOF 2
ENDMDL
MODEL      133
REMARK 921   NORMALIZED FREE ENERGY PREDICTED BY IDOCK:   -2.25 KCAL/MOL
REMARK 922        TOTAL FREE ENERGY PREDICTED BY IDOCK:   -2.86 KCAL/MOL
REMARK 923 INTER-LIGAND FREE ENERGY PREDICTED BY IDOCK:   -2.66 KCAL/MOL
REMARK 924 INTRA-LIGAND FREE ENERGY PREDICTED BY IDOCK:   -0.21 KCAL/MOL
REMARK 927      BINDING AFFINITY PREDICTED BY RF-SCORE:    0.00 PKD
ROOT
HETATM    1  C   UNL     1     -11.546  13.067  67.481  1.00  0.00    -0.405 C  
HETATM    2  C   UNL     1     -11.260  14.475  67.982  1.00  0.00    -0.308 C  
ENDROOT
BRANCH   2   3
HETATM    3  C   UNL     1      -9.845  14.584  68.557  1.00  0.00    -0.231 C  
HETATM    4  C   UNL     1      -8.721  14.426  67.507  1.00  0.00    -0.203 C  
HETATM    5  C   UNL     1      -7.363  14.438  68.206  1.00  0.00    -0.122 C  
HETATM    6  C   UNL     1      -8.778  15.458  66.364  1.00  0.00    -0.307 C  
HETATM    7  O   UNL     1      -6.321  14.182  67.384  1.00  0.00    -0.324 OA 
HETATM    8  O   UNL     1      -7.196  14.623  69.402  1.00  0.00    -0.148 OA 
BRANCH   6   9
HETATM    9  C   UNL     1      -8.609  16.912  66.815  1.00  0.00    -0.256 C  
HETATM   10  C   UNL     1      -7.350  17.526  66.222  1.00  0.00    -0.355 C  
ENDBRANCH   6   9
ENDBRANCH   2   3
TORSDOF 2
ENDMDL
MODEL      134
REMARK 921   NORMALIZED FREE ENERGY PREDICTED BY IDOCK:   -2.24 KCAL/MOL
REMARK 922        TOTAL FREE ENERGY PREDICTED BY IDOCK:   -2.86 KCAL/MOL
REMARK 923 INTER-LIGAND FREE ENERGY PREDICTED BY IDOCK:   -2.59 KCAL/MOL
REMARK 924 INTRA-LIGAND FREE ENERGY PREDICTED BY IDOCK:   -0.27 KCAL/MOL
REMARK 927      BINDING AFFINITY PREDICTED BY RF-SCORE:    0.00 PKD
ROOT
HETATM    1  C   UNL     1      -5.770  19.033  66.703  1.00  0.00    -0.169 C  
HETATM    2  C   UNL     1      -6.906  18.875  65.703  1.00  0.00    -0.292 C  
ENDROOT
BRANCH   2   3
HETATM    3  C   UNL     1      -8.241  18.628  66.414  1.00  0.00    -0.295 C  
HETATM    4  C   UNL     1      -8.779  17.187  66.270  1.00  0.00    -0.268 C  
HETATM    5  C   UNL     1     -10.158  17.089  66.918  1.00  0.00    -0.298 C  
HETATM    6  C   UNL     1      -7.823  16.102  66.807  1.00  0.00    -0.296 C  
HETATM    7  O   UNL     1     -10.767  15.896  66.735  1.00  0.00    -0.321 OA 
HETATM    8  O   UNL     1     -10.711  17.995  67.523  1.00  0.00    -0.404 OA 
BRANCH   6   9
HETATM    9  C   UNL     1      -7.534  16.200  68.307  1.00  0.00    -0.145 C  
HETATM   10  C   UNL     1      -6.142  15.678  68.632  1.00  0.00    -0.100 C  
ENDBRANCH   6   9
ENDBRANCH   2   3
TORSDOF 2
ENDMDL
MODEL      135
REMARK 921   NORMALIZED FREE ENERGY PREDICTED BY IDOCK:   -2.22 KCAL/MOL
REMARK 922        TOTAL FREE ENERGY PREDICTED BY IDOCK:   -2.83 KCAL/MOL
REMARK 923 INTER-LIGAND FREE ENERGY PREDICTED BY IDOCK:   -2.67 KCAL/MOL
REMARK 924 INTRA-LIGAND FREE ENERGY PREDICTED BY IDOCK:   -0.16 KCAL/MOL
REMARK 927      BINDING AFFINITY PREDICTED BY RF-SCORE:    0.00 PKD
ROOT
HETATM    1  C   UNL     1     -10.637   5.786  66.809  1.00  0.00    -0.373 C  
HETATM    2  C   UNL     1     -10.663   6.951  67.787  1.00  0.00    -0.321 C  
ENDROOT
BRANCH   2   3
HETATM    3  C   UNL     1     -10.439   8.285  67.068  1.00  0.00    -0.384 C  
HETATM    4  C   UNL     1     -11.019   9.511  67.810  1.00  0.00    -0.165 C  
HETATM    5  C   UNL     1     -10.838  10.761  66.953  1.00  0.00    -0.229 C  
HETATM    6  C   UNL     1     -10.453   9.712  69.231  1.00  0.00    -0.232 C  
HETATM    7  O   UNL     1     -11.425  11.866  67.464  1.00  0.00    -0.301 OA 
HETATM    8  O   UNL     1     -10.254  10.792  65.880  1.00  0.00    -0.248 OA 
BRANCH   6   9
HETATM    9  C   UNL     1      -8.945   9.977  69.279  1.00  0.00    -0.186 C  
HETATM   10  C   UNL     1      -8.325   9.387  70.536  1.00  0.00    -0.233 C  
ENDBRANCH   6   9
ENDBRANCH   2   3
TORSDOF 2
ENDMDL
MODEL      136
REMARK 921   NORMALIZED FREE ENERGY PREDICTED BY IDOCK:   -2.21 KCAL/MOL
REMARK 922        TOTAL FREE ENERGY PREDICTED BY IDOCK:   -2.83 KCAL/MOL
REMARK 923 INTER-LIGAND FREE ENERGY PREDICTED BY IDOCK:   -2.50 KCAL/MOL
REMARK 924 INTRA-LIGAND FREE ENERGY PREDICTED BY IDOCK:   -0.33 KCAL/MOL
REMARK 927      BINDING AFFINITY PREDICTED BY RF-SCORE:    0.00 PKD
ROOT
HETATM    1  C   UNL     1     -10.005   9.374  66.453  1.00  0.00    -0.346 C  
HETATM    2  C   UNL     1     -10.325  10.197  67.692  1.00  0.00    -0.265 C  
ENDROOT
BRANCH   2   3
HETATM    3  C   UNL     1      -9.365   9.868  68.840  1.00  0.00    -0.170 C  
HETATM    4  C   UNL     1     -10.051   9.260  70.085  1.00  0.00    -0.249 C  
HETATM    5  C   UNL     1      -9.022   9.079  71.198  1.00  0.00    -0.235 C  
HETATM    6  C   UNL     1     -10.817   7.951  69.804  1.00  0.00    -0.202 C  
HETATM    7  O   UNL     1      -9.550   8.667  72.372  1.00  0.00    -0.288 OA 
HETATM    8  O   UNL     1      -7.827   9.310  71.088  1.00  0.00    -0.289 OA 
BRANCH   6   9
HETATM    9  C   UNL     1      -9.938   6.797  69.311  1.00  0.00    -0.168 C  
HETATM   10  C   UNL     1     -10.516   6.168  68.052  1.00  0.00    -0.284 C  
ENDBRANCH   6   9
ENDBRANCH   2   3
TORSDOF 2
ENDMDL
MODEL      137
REMARK 921   NORMALIZED FREE ENERGY PREDICTED BY IDOCK:   -2.21 KCAL/MOL
REMARK 922        TOTAL FREE ENERGY PREDICTED BY IDOCK:   -2.82 KCAL/MOL
REMARK 923 INTER-LIGAND FREE ENERGY PREDICTED BY IDOCK:   -2.64 KCAL/MOL
REMARK 924 INTRA-LIGAND FREE ENERGY PREDICTED BY IDOCK:   -0.18 KCAL/MOL
REMARK 927      BINDING AFFINITY PREDICTED BY RF-SCORE:    0.00 PKD
ROOT
HETATM    1  C   UNL     1     -10.654   6.576  66.868  1.00  0.00    -0.376 C  
HETATM    2  C   UNL     1      -9.981   6.803  68.214  1.00  0.00    -0.153 C  
ENDROOT
BRANCH   2   3
HETATM    3  C   UNL     1     -11.015   6.937  69.336  1.00  0.00    -0.274 C  
HETATM    4  C   UNL     1     -10.649   6.173  70.629  1.00  0.00    -0.307 C  
HETATM    5  C   UNL     1     -11.796   6.283  71.630  1.00  0.00    -0.256 C  
HETATM    6  C   UNL     1      -9.307   6.602  71.256  1.00  0.00    -0.159 C  
HETATM    7  O   UNL     1     -11.623   5.543  72.748  1.00  0.00    -0.308 OA 
HETATM    8  O   UNL     1     -12.811   6.942  71.458  1.00  0.00    -0.374 OA 
BRANCH   6   9
HETATM    9  C   UNL     1      -9.261   8.064  71.710  1.00  0.00    -0.212 C  
HETATM   10  C   UNL     1      -8.312   8.877  70.842  1.00  0.00    -0.219 C  
ENDBRANCH   6   9
ENDBRANCH   2   3
TORSDOF 2
ENDMDL
MODEL      138
REMARK 921   NORMALIZED FREE ENERGY PREDICTED BY IDOCK:   -2.20 KCAL/MOL
REMARK 922        TOTAL FREE ENERGY PREDICTED BY IDOCK:   -2.81 KCAL/MOL
REMARK 923 INTER-LIGAND FREE ENERGY PREDICTED BY IDOCK:   -2.66 KCAL/MOL
REMARK 924 INTRA-LIGAND FREE ENERGY PREDICTED BY IDOCK:   -0.15 KCAL/MOL
REMARK 927      BINDING AFFINITY PREDICTED BY RF-SCORE:    0.00 PKD
ROOT
HETATM    1  C   UNL     1     -10.691   6.755  67.285  1.00  0.00    -0.423 C  
HETATM    2  C   UNL     1      -9.503   7.680  67.502  1.00  0.00    -0.168 C  
ENDROOT
BRANCH   2   3
HETATM    3  C   UNL     1      -9.208   8.509  66.248  1.00  0.00    -0.262 C  
HETATM    4  C   UNL     1     -10.227   9.641  65.983  1.00  0.00    -0.255 C  
HETATM    5  C   UNL     1      -9.900  10.323  64.657  1.00  0.00    -0.327 C  
HETATM    6  C   UNL     1     -10.344  10.664  67.132  1.00  0.00    -0.275 C  
HETATM    7  O   UNL     1     -10.810  11.248  64.276  1.00  0.00    -0.354 OA 
HETATM    8  O   UNL     1      -8.934  10.060  63.956  1.00  0.00    -0.200 OA 
BRANCH   6   9
HETATM    9  C   UNL     1      -9.055  11.438  67.423  1.00  0.00    -0.160 C  
HETATM   10  C   UNL     1      -9.166  12.882  66.955  1.00  0.00    -0.234 C  
ENDBRANCH   6   9
ENDBRANCH   2   3
TORSDOF 2
ENDMDL
MODEL      139
REMARK 921   NORMALIZED FREE ENERGY PREDICTED BY IDOCK:   -2.19 KCAL/MOL
REMARK 922        TOTAL FREE ENERGY PREDICTED BY IDOCK:   -2.80 KCAL/MOL
REMARK 923 INTER-LIGAND FREE ENERGY PREDICTED BY IDOCK:   -2.63 KCAL/MOL
REMARK 924 INTRA-LIGAND FREE ENERGY PREDICTED BY IDOCK:   -0.17 KCAL/MOL
REMARK 927      BINDING AFFINITY PREDICTED BY RF-SCORE:    0.00 PKD
ROOT
HETATM    1  C   UNL     1     -10.594   9.611  70.777  1.00  0.00    -0.392 C  
HETATM    2  C   UNL     1     -11.423   8.477  71.362  1.00  0.00    -0.344 C  
ENDROOT
BRANCH   2   3
HETATM    3  C   UNL     1     -11.097   7.143  70.683  1.00  0.00    -0.294 C  
HETATM    4  C   UNL     1      -9.982   6.331  71.381  1.00  0.00    -0.210 C  
HETATM    5  C   UNL     1      -9.665   5.085  70.559  1.00  0.00    -0.204 C  
HETATM    6  C   UNL     1     -10.288   5.978  72.851  1.00  0.00    -0.219 C  
HETATM    7  O   UNL     1      -8.615   4.372  71.025  1.00  0.00    -0.087 OA 
HETATM    8  O   UNL     1     -10.260   4.747  69.546  1.00  0.00    -0.221 OA 
BRANCH   6   9
HETATM    9  C   UNL     1     -11.518   5.086  73.043  1.00  0.00    -0.344 C  
HETATM   10  C   UNL     1     -11.126   3.725  73.598  1.00  0.00    -0.318 C  
ENDBRANCH   6   9
ENDBRANCH   2   3
TORSDOF 2
ENDMDL
MODEL      140
REMARK 921   NORMALIZED FREE ENERGY PREDICTED BY IDOCK:   -2.18 KCAL/MOL
REMARK 922        TOTAL FREE ENERGY PREDICTED BY IDOCK:   -2.79 KCAL/MOL
REMARK 923 INTER-LIGAND FREE ENERGY PREDICTED BY IDOCK:   -2.65 KCAL/MOL
REMARK 924 INTRA-LIGAND FREE ENERGY PREDICTED BY IDOCK:   -0.14 KCAL/MOL
REMARK 927      BINDING AFFINITY PREDICTED BY RF-SCORE:    0.00 PKD
ROOT
HETATM    1  C   UNL     1      -6.865  13.644  68.916  1.00  0.00    -0.110 C  
HETATM    2  C   UNL     1      -8.235  14.151  68.490  1.00  0.00    -0.146 C  
ENDROOT
BRANCH   2   3
HETATM    3  C   UNL     1      -8.961  13.123  67.617  1.00  0.00    -0.192 C  
HETATM    4  C   UNL     1     -10.267  12.575  68.235  1.00  0.00    -0.235 C  
HETATM    5  C   UNL     1     -10.841  11.483  67.336  1.00  0.00    -0.246 C  
HETATM    6  C   UNL     1     -11.317  13.660  68.548  1.00  0.00    -0.325 C  
HETATM    7  O   UNL     1     -11.920  10.856  67.855  1.00  0.00    -0.585 OA 
HETATM    8  O   UNL     1     -10.374  11.152  66.256  1.00  0.00    -0.235 OA 
BRANCH   6   9
HETATM    9  C   UNL     1     -11.825  14.422  67.321  1.00  0.00    -0.434 C  
HETATM   10  C   UNL     1     -11.249  15.829  67.273  1.00  0.00    -0.140 C  
ENDBRANCH   6   9
ENDBRANCH   2   3
TORSDOF 2
ENDMDL
MODEL      141
REMARK 921   NORMALIZED FREE ENERGY PREDICTED BY IDOCK:   -2.17 KCAL/MOL
REMARK 922        TOTAL FREE ENERGY PREDICTED BY IDOCK:   -2.78 KCAL/MOL
REMARK 923 INTER-LIGAND FREE ENERGY PREDICTED BY IDOCK:   -2.44 KCAL/MOL
REMARK 924 INTRA-LIGAND FREE ENERGY PREDICTED BY IDOCK:   -0.33 KCAL/MOL
REMARK 927      BINDING AFFINITY PREDICTED BY RF-SCORE:    0.00 PKD
ROOT
HETATM    1  C   UNL     1      -6.983  10.033  65.454  1.00  0.00    -0.127 C  
HETATM    2  C   UNL     1      -8.454  10.274  65.150  1.00  0.00    -0.173 C  
ENDROOT
BRANCH   2   3
HETATM    3  C   UNL     1      -9.083  11.226  66.172  1.00  0.00    -0.216 C  
HETATM    4  C   UNL     1     -10.442  10.748  66.732  1.00  0.00    -0.305 C  
HETATM    5  C   UNL     1     -11.024  11.822  67.648  1.00  0.00    -0.233 C  
HETATM    6  C   UNL     1     -10.385   9.376  67.433  1.00  0.00    -0.325 C  
HETATM    7  O   UNL     1     -12.271  11.549  68.090  1.00  0.00    -0.576 OA 
HETATM    8  O   UNL     1     -10.459  12.864  67.949  1.00  0.00    -0.215 OA 
BRANCH   6   9
HETATM    9  C   UNL     1      -9.483   9.334  68.670  1.00  0.00    -0.148 C  
HETATM   10  C   UNL     1      -8.595   8.099  68.659  1.00  0.00    -0.127 C  
ENDBRANCH   6   9
ENDBRANCH   2   3
TORSDOF 2
ENDMDL
MODEL      142
REMARK 921   NORMALIZED FREE ENERGY PREDICTED BY IDOCK:   -2.17 KCAL/MOL
REMARK 922        TOTAL FREE ENERGY PREDICTED BY IDOCK:   -2.77 KCAL/MOL
REMARK 923 INTER-LIGAND FREE ENERGY PREDICTED BY IDOCK:   -2.60 KCAL/MOL
REMARK 924 INTRA-LIGAND FREE ENERGY PREDICTED BY IDOCK:   -0.18 KCAL/MOL
REMARK 927      BINDING AFFINITY PREDICTED BY RF-SCORE:    0.00 PKD
ROOT
HETATM    1  C   UNL     1      -6.919   8.050  72.910  1.00  0.00    -0.109 C  
HETATM    2  C   UNL     1      -7.704   8.146  71.609  1.00  0.00    -0.107 C  
ENDROOT
BRANCH   2   3
HETATM    3  C   UNL     1      -9.190   7.855  71.835  1.00  0.00    -0.202 C  
HETATM    4  C   UNL     1     -10.115   9.075  71.620  1.00  0.00    -0.405 C  
HETATM    5  C   UNL     1     -11.550   8.700  71.980  1.00  0.00    -0.370 C  
HETATM    6  C   UNL     1     -10.028   9.688  70.207  1.00  0.00    -0.326 C  
HETATM    7  O   UNL     1     -12.415   9.738  71.942  1.00  0.00    -0.381 OA 
HETATM    8  O   UNL     1     -11.916   7.583  72.313  1.00  0.00    -0.297 OA 
BRANCH   6   9
HETATM    9  C   UNL     1     -10.456   8.743  69.080  1.00  0.00    -0.230 C  
HETATM   10  C   UNL     1      -9.561   8.904  67.861  1.00  0.00    -0.171 C  
ENDBRANCH   6   9
ENDBRANCH   2   3
TORSDOF 2
ENDMDL
MODEL      143
REMARK 921   NORMALIZED FREE ENERGY PREDICTED BY IDOCK:   -2.15 KCAL/MOL
REMARK 922        TOTAL FREE ENERGY PREDICTED BY IDOCK:   -2.75 KCAL/MOL
REMARK 923 INTER-LIGAND FREE ENERGY PREDICTED BY IDOCK:   -2.52 KCAL/MOL
REMARK 924 INTRA-LIGAND FREE ENERGY PREDICTED BY IDOCK:   -0.23 KCAL/MOL
REMARK 927      BINDING AFFINITY PREDICTED BY RF-SCORE:    0.00 PKD
ROOT
HETATM    1  C   UNL     1      -9.000   7.678  73.911  1.00  0.00    -0.321 C  
HETATM    2  C   UNL     1     -10.174   6.709  73.956  1.00  0.00    -0.395 C  
ENDROOT
BRANCH   2   3
HETATM    3  C   UNL     1     -10.849   6.591  72.587  1.00  0.00    -0.278 C  
HETATM    4  C   UNL     1      -9.880   6.266  71.428  1.00  0.00    -0.195 C  
HETATM    5  C   UNL     1     -10.640   6.284  70.104  1.00  0.00    -0.248 C  
HETATM    6  C   UNL     1      -9.097   4.950  71.613  1.00  0.00    -0.169 C  
HETATM    7  O   UNL     1      -9.852   6.132  69.016  1.00  0.00    -0.134 OA 
HETATM    8  O   UNL     1     -11.845   6.453  69.995  1.00  0.00    -0.404 OA 
BRANCH   6   9
HETATM    9  C   UNL     1      -9.973   3.696  71.674  1.00  0.00    -0.196 C  
HETATM   10  C   UNL     1      -9.825   2.989  73.014  1.00  0.00    -0.181 C  
ENDBRANCH   6   9
ENDBRANCH   2   3
TORSDOF 2
ENDMDL
MODEL      144
REMARK 921   NORMALIZED FREE ENERGY PREDICTED BY IDOCK:   -2.14 KCAL/MOL
REMARK 922        TOTAL FREE ENERGY PREDICTED BY IDOCK:   -2.75 KCAL/MOL
REMARK 923 INTER-LIGAND FREE ENERGY PREDICTED BY IDOCK:   -2.53 KCAL/MOL
REMARK 924 INTRA-LIGAND FREE ENERGY PREDICTED BY IDOCK:   -0.21 KCAL/MOL
REMARK 927      BINDING AFFINITY PREDICTED BY RF-SCORE:    0.00 PKD
ROOT
HETATM    1  C   UNL     1      -6.882  16.376  67.631  1.00  0.00    -0.161 C  
HETATM    2  C   UNL     1      -7.142  15.068  68.362  1.00  0.00    -0.108 C  
ENDROOT
BRANCH   2   3
HETATM    3  C   UNL     1      -8.393  15.162  69.242  1.00  0.00    -0.211 C  
HETATM    4  C   UNL     1      -9.706  15.375  68.456  1.00  0.00    -0.204 C  
HETATM    5  C   UNL     1     -10.863  15.567  69.434  1.00  0.00    -0.261 C  
HETATM    6  C   UNL     1     -10.012  14.265  67.430  1.00  0.00    -0.242 C  
HETATM    7  O   UNL     1     -12.036  15.883  68.842  1.00  0.00    -0.370 OA 
HETATM    8  O   UNL     1     -10.768  15.486  70.650  1.00  0.00    -0.325 OA 
BRANCH   6   9
HETATM    9  C   UNL     1     -10.212  12.875  68.042  1.00  0.00    -0.229 C  
HETATM   10  C   UNL     1     -11.569  12.301  67.663  1.00  0.00    -0.421 C  
ENDBRANCH   6   9
ENDBRANCH   2   3
TORSDOF 2
ENDMDL
MODEL      145
REMARK 921   NORMALIZED FREE ENERGY PREDICTED BY IDOCK:   -2.13 KCAL/MOL
REMARK 922        TOTAL FREE ENERGY PREDICTED BY IDOCK:   -2.73 KCAL/MOL
REMARK 923 INTER-LIGAND FREE ENERGY PREDICTED BY IDOCK:   -2.48 KCAL/MOL
REMARK 924 INTRA-LIGAND FREE ENERGY PREDICTED BY IDOCK:   -0.25 KCAL/MOL
REMARK 927      BINDING AFFINITY PREDICTED BY RF-SCORE:    0.00 PKD
ROOT
HETATM    1  C   UNL     1      -7.085   9.654  70.330  1.00  0.00    -0.138 C  
HETATM    2  C   UNL     1      -8.097   8.661  70.885  1.00  0.00    -0.155 C  
ENDROOT
BRANCH   2   3
HETATM    3  C   UNL     1      -9.465   9.319  71.090  1.00  0.00    -0.287 C  
HETATM    4  C   UNL     1     -10.255   9.559  69.784  1.00  0.00    -0.249 C  
HETATM    5  C   UNL     1     -11.543  10.317  70.098  1.00  0.00    -0.299 C  
HETATM    6  C   UNL     1     -10.535   8.278  68.974  1.00  0.00    -0.212 C  
HETATM    7  O   UNL     1     -12.245  10.683  69.002  1.00  0.00    -0.354 OA 
HETATM    8  O   UNL     1     -11.921  10.615  71.221  1.00  0.00    -0.331 OA 
BRANCH   6   9
HETATM    9  C   UNL     1     -11.402   7.246  69.702  1.00  0.00    -0.042 C  
HETATM   10  C   UNL     1     -10.678   5.914  69.827  1.00  0.00    -0.411 C  
ENDBRANCH   6   9
ENDBRANCH   2   3
TORSDOF 2
ENDMDL
MODEL      146
REMARK 921   NORMALIZED FREE ENERGY PREDICTED BY IDOCK:   -2.08 KCAL/MOL
REMARK 922        TOTAL FREE ENERGY PREDICTED BY IDOCK:   -2.68 KCAL/MOL
REMARK 923 INTER-LIGAND FREE ENERGY PREDICTED BY IDOCK:   -2.56 KCAL/MOL
REMARK 924 INTRA-LIGAND FREE ENERGY PREDICTED BY IDOCK:   -0.11 KCAL/MOL
REMARK 927      BINDING AFFINITY PREDICTED BY RF-SCORE:    0.00 PKD
ROOT
HETATM    1  C   UNL     1      -9.430   2.419  71.778  1.00  0.00    -0.196 C  
HETATM    2  C   UNL     1      -9.627   3.915  71.973  1.00  0.00    -0.210 C  
ENDROOT
BRANCH   2   3
HETATM    3  C   UNL     1      -9.380   4.682  70.670  1.00  0.00    -0.220 C  
HETATM    4  C   UNL     1     -10.637   5.367  70.089  1.00  0.00    -0.344 C  
HETATM    5  C   UNL     1     -10.298   6.001  68.742  1.00  0.00    -0.214 C  
HETATM    6  C   UNL     1     -11.298   6.383  71.043  1.00  0.00    -0.386 C  
HETATM    7  O   UNL     1     -11.366   6.519  68.095  1.00  0.00    -0.225 OA 
HETATM    8  O   UNL     1      -9.183   6.026  68.244  1.00  0.00    -0.118 OA 
BRANCH   6   9
HETATM    9  C   UNL     1     -10.410   7.576  71.409  1.00  0.00    -0.209 C  
HETATM   10  C   UNL     1     -11.244   8.741  71.923  1.00  0.00    -0.438 C  
ENDBRANCH   6   9
ENDBRANCH   2   3
TORSDOF 2
ENDMDL
MODEL      147
REMARK 921   NORMALIZED FREE ENERGY PREDICTED BY IDOCK:   -2.06 KCAL/MOL
REMARK 922        TOTAL FREE ENERGY PREDICTED BY IDOCK:   -2.65 KCAL/MOL
REMARK 923 INTER-LIGAND FREE ENERGY PREDICTED BY IDOCK:   -2.33 KCAL/MOL
REMARK 924 INTRA-LIGAND FREE ENERGY PREDICTED BY IDOCK:   -0.33 KCAL/MOL
REMARK 927      BINDING AFFINITY PREDICTED BY RF-SCORE:    0.00 PKD
ROOT
HETATM    1  C   UNL     1     -12.812  16.202  73.767  1.00  0.00    -0.642 C  
HETATM    2  C   UNL     1     -11.563  15.849  72.972  1.00  0.00    -0.258 C  
ENDROOT
BRANCH   2   3
HETATM    3  C   UNL     1     -11.784  16.057  71.470  1.00  0.00    -0.554 C  
HETATM    4  C   UNL     1     -11.189  14.941  70.582  1.00  0.00    -0.229 C  
HETATM    5  C   UNL     1     -11.369  15.308  69.111  1.00  0.00    -0.297 C  
HETATM    6  C   UNL     1     -11.742  13.534  70.885  1.00  0.00     0.191 C  
HETATM    7  O   UNL     1     -10.770  14.451  68.254  1.00  0.00    -0.233 OA 
HETATM    8  O   UNL     1     -11.962  16.297  68.706  1.00  0.00    -0.205 OA 
BRANCH   6   9
HETATM    9  C   UNL     1     -13.247  13.380  70.648  1.00  0.00     0.176 C  
HETATM   10  C   UNL     1     -13.990  13.174  71.960  1.00  0.00    -0.275 C  
ENDBRANCH   6   9
ENDBRANCH   2   3
TORSDOF 2
ENDMDL
MODEL      148
REMARK 921   NORMALIZED FREE ENERGY PREDICTED BY IDOCK:   -2.06 KCAL/MOL
REMARK 922        TOTAL FREE ENERGY PREDICTED BY IDOCK:   -2.65 KCAL/MOL
REMARK 923 INTER-LIGAND FREE ENERGY PREDICTED BY IDOCK:   -2.30 KCAL/MOL
REMARK 924 INTRA-LIGAND FREE ENERGY PREDICTED BY IDOCK:   -0.35 KCAL/MOL
REMARK 927      BINDING AFFINITY PREDICTED BY RF-SCORE:    0.00 PKD
ROOT
HETATM    1  C   UNL     1     -10.198  10.536  65.359  1.00  0.00    -0.340 C  
HETATM    2  C   UNL     1      -9.963   9.381  66.322  1.00  0.00    -0.353 C  
ENDROOT
BRANCH   2   3
HETATM    3  C   UNL     1     -10.335   9.769  67.756  1.00  0.00    -0.274 C  
HETATM    4  C   UNL     1      -9.265   9.402  68.810  1.00  0.00    -0.132 C  
HETATM    5  C   UNL     1      -9.788   9.729  70.206  1.00  0.00    -0.240 C  
HETATM    6  C   UNL     1      -7.886  10.045  68.557  1.00  0.00    -0.093 C  
HETATM    7  O   UNL     1      -8.972   9.329  71.206  1.00  0.00    -0.285 OA 
HETATM    8  O   UNL     1     -10.859  10.271  70.440  1.00  0.00    -0.294 OA 
BRANCH   6   9
HETATM    9  C   UNL     1      -7.885  11.576  68.601  1.00  0.00    -0.137 C  
HETATM   10  C   UNL     1      -7.482  12.162  67.256  1.00  0.00    -0.152 C  
ENDBRANCH   6   9
ENDBRANCH   2   3
TORSDOF 2
ENDMDL
MODEL      149
REMARK 921   NORMALIZED FREE ENERGY PREDICTED BY IDOCK:   -2.05 KCAL/MOL
REMARK 922        TOTAL FREE ENERGY PREDICTED BY IDOCK:   -2.64 KCAL/MOL
REMARK 923 INTER-LIGAND FREE ENERGY PREDICTED BY IDOCK:   -2.50 KCAL/MOL
REMARK 924 INTRA-LIGAND FREE ENERGY PREDICTED BY IDOCK:   -0.14 KCAL/MOL
REMARK 927      BINDING AFFINITY PREDICTED BY RF-SCORE:    0.00 PKD
ROOT
HETATM    1  C   UNL     1      -5.893  20.002  70.156  1.00  0.00    -0.356 C  
HETATM    2  C   UNL     1      -6.089  19.199  68.877  1.00  0.00    -0.257 C  
ENDROOT
BRANCH   2   3
HETATM    3  C   UNL     1      -7.559  18.818  68.681  1.00  0.00    -0.357 C  
HETATM    4  C   UNL     1      -7.790  17.697  67.642  1.00  0.00    -0.212 C  
HETATM    5  C   UNL     1      -9.289  17.481  67.447  1.00  0.00    -0.249 C  
HETATM    6  C   UNL     1      -7.065  16.376  67.970  1.00  0.00    -0.146 C  
HETATM    7  O   UNL     1      -9.594  16.604  66.465  1.00  0.00    -0.245 OA 
HETATM    8  O   UNL     1     -10.164  18.055  68.077  1.00  0.00    -0.343 OA 
BRANCH   6   9
HETATM    9  C   UNL     1      -7.515  15.716  69.277  1.00  0.00    -0.216 C  
HETATM   10  C   UNL     1      -6.892  14.337  69.436  1.00  0.00    -0.122 C  
ENDBRANCH   6   9
ENDBRANCH   2   3
TORSDOF 2
ENDMDL
MODEL      150
REMARK 921   NORMALIZED FREE ENERGY PREDICTED BY IDOCK:   -2.04 KCAL/MOL
REMARK 922        TOTAL FREE ENERGY PREDICTED BY IDOCK:   -2.64 KCAL/MOL
REMARK 923 INTER-LIGAND FREE ENERGY PREDICTED BY IDOCK:   -2.41 KCAL/MOL
REMARK 924 INTRA-LIGAND FREE ENERGY PREDICTED BY IDOCK:   -0.23 KCAL/MOL
REMARK 927      BINDING AFFINITY PREDICTED BY RF-SCORE:    0.00 PKD
ROOT
HETATM    1  C   UNL     1     -10.028   9.162  66.297  1.00  0.00    -0.352 C  
HETATM    2  C   UNL     1      -9.938   7.672  66.592  1.00  0.00    -0.284 C  
ENDROOT
BRANCH   2   3
HETATM    3  C   UNL     1     -10.655   7.320  67.899  1.00  0.00    -0.266 C  
HETATM    4  C   UNL     1      -9.951   6.227  68.734  1.00  0.00    -0.173 C  
HETATM    5  C   UNL     1     -10.807   5.880  69.949  1.00  0.00    -0.369 C  
HETATM    6  C   UNL     1      -8.506   6.581  69.142  1.00  0.00    -0.126 C  
HETATM    7  O   UNL     1     -10.333   4.844  70.677  1.00  0.00    -0.228 OA 
HETATM    8  O   UNL     1     -11.851   6.440  70.250  1.00  0.00    -0.396 OA 
BRANCH   6   9
HETATM    9  C   UNL     1      -8.387   7.815  70.042  1.00  0.00    -0.130 C  
HETATM   10  C   UNL     1      -7.761   7.457  71.381  1.00  0.00    -0.086 C  
ENDBRANCH   6   9
ENDBRANCH   2   3
TORSDOF 2
ENDMDL
MODEL      151
REMARK 921   NORMALIZED FREE ENERGY PREDICTED BY IDOCK:   -2.02 KCAL/MOL
REMARK 922        TOTAL FREE ENERGY PREDICTED BY IDOCK:   -2.61 KCAL/MOL
REMARK 923 INTER-LIGAND FREE ENERGY PREDICTED BY IDOCK:   -2.40 KCAL/MOL
REMARK 924 INTRA-LIGAND FREE ENERGY PREDICTED BY IDOCK:   -0.21 KCAL/MOL
REMARK 927      BINDING AFFINITY PREDICTED BY RF-SCORE:    0.00 PKD
ROOT
HETATM    1  C   UNL     1      -6.997  13.391  68.908  1.00  0.00    -0.102 C  
HETATM    2  C   UNL     1      -7.538  13.728  67.526  1.00  0.00    -0.185 C  
ENDROOT
BRANCH   2   3
HETATM    3  C   UNL     1      -8.959  14.293  67.609  1.00  0.00    -0.194 C  
HETATM    4  C   UNL     1      -9.078  15.591  68.441  1.00  0.00    -0.190 C  
HETATM    5  C   UNL     1     -10.545  15.997  68.548  1.00  0.00    -0.268 C  
HETATM    6  C   UNL     1      -8.205  16.752  67.923  1.00  0.00    -0.189 C  
HETATM    7  O   UNL     1     -10.764  17.054  69.362  1.00  0.00    -0.322 OA 
HETATM    8  O   UNL     1     -11.471  15.423  67.994  1.00  0.00    -0.338 OA 
BRANCH   6   9
HETATM    9  C   UNL     1      -8.560  17.229  66.511  1.00  0.00    -0.298 C  
HETATM   10  C   UNL     1      -8.850  18.722  66.495  1.00  0.00    -0.315 C  
ENDBRANCH   6   9
ENDBRANCH   2   3
TORSDOF 2
ENDMDL
MODEL      152
REMARK 921   NORMALIZED FREE ENERGY PREDICTED BY IDOCK:   -2.02 KCAL/MOL
REMARK 922        TOTAL FREE ENERGY PREDICTED BY IDOCK:   -2.61 KCAL/MOL
REMARK 923 INTER-LIGAND FREE ENERGY PREDICTED BY IDOCK:   -2.43 KCAL/MOL
REMARK 924 INTRA-LIGAND FREE ENERGY PREDICTED BY IDOCK:   -0.17 KCAL/MOL
REMARK 927      BINDING AFFINITY PREDICTED BY RF-SCORE:    0.00 PKD
ROOT
HETATM    1  C   UNL     1      -7.074  12.426  68.765  1.00  0.00    -0.098 C  
HETATM    2  C   UNL     1      -7.683  11.050  68.997  1.00  0.00    -0.132 C  
ENDROOT
BRANCH   2   3
HETATM    3  C   UNL     1      -8.500  10.594  67.784  1.00  0.00    -0.116 C  
HETATM    4  C   UNL     1      -9.421   9.383  68.060  1.00  0.00    -0.148 C  
HETATM    5  C   UNL     1     -10.096   8.948  66.761  1.00  0.00    -0.280 C  
HETATM    6  C   UNL     1     -10.452   9.620  69.182  1.00  0.00    -0.230 C  
HETATM    7  O   UNL     1     -10.828   7.817  66.875  1.00  0.00    -0.311 OA 
HETATM    8  O   UNL     1      -9.981   9.522  65.689  1.00  0.00    -0.305 OA 
BRANCH   6   9
HETATM    9  C   UNL     1     -11.455  10.741  68.893  1.00  0.00    -0.362 C  
HETATM   10  C   UNL     1     -12.016  11.319  70.184  1.00  0.00    -0.452 C  
ENDBRANCH   6   9
ENDBRANCH   2   3
TORSDOF 2
ENDMDL
MODEL      153
REMARK 921   NORMALIZED FREE ENERGY PREDICTED BY IDOCK:   -2.01 KCAL/MOL
REMARK 922        TOTAL FREE ENERGY PREDICTED BY IDOCK:   -2.60 KCAL/MOL
REMARK 923 INTER-LIGAND FREE ENERGY PREDICTED BY IDOCK:   -2.34 KCAL/MOL
REMARK 924 INTRA-LIGAND FREE ENERGY PREDICTED BY IDOCK:   -0.26 KCAL/MOL
REMARK 927      BINDING AFFINITY PREDICTED BY RF-SCORE:    0.00 PKD
ROOT
HETATM    1  C   UNL     1     -10.244   8.531  69.373  1.00  0.00    -0.211 C  
HETATM    2  C   UNL     1     -10.468   8.335  67.881  1.00  0.00    -0.259 C  
ENDROOT
BRANCH   2   3
HETATM    3  C   UNL     1     -11.002   9.614  67.227  1.00  0.00    -0.107 C  
HETATM    4  C   UNL     1     -10.039  10.820  67.314  1.00  0.00    -0.233 C  
HETATM    5  C   UNL     1     -10.717  12.059  66.735  1.00  0.00    -0.243 C  
HETATM    6  C   UNL     1      -8.662  10.573  66.664  1.00  0.00    -0.138 C  
HETATM    7  O   UNL     1     -10.000  13.195  66.878  1.00  0.00    -0.235 OA 
HETATM    8  O   UNL     1     -11.823  12.069  66.214  1.00  0.00    -0.563 OA 
BRANCH   6   9
HETATM    9  C   UNL     1      -8.714  10.296  65.159  1.00  0.00    -0.189 C  
HETATM   10  C   UNL     1      -8.261   8.877  64.848  1.00  0.00    -0.161 C  
ENDBRANCH   6   9
ENDBRANCH   2   3
TORSDOF 2
ENDMDL
MODEL      154
REMARK 921   NORMALIZED FREE ENERGY PREDICTED BY IDOCK:   -2.00 KCAL/MOL
REMARK 922        TOTAL FREE ENERGY PREDICTED BY IDOCK:   -2.58 KCAL/MOL
REMARK 923 INTER-LIGAND FREE ENERGY PREDICTED BY IDOCK:   -2.43 KCAL/MOL
REMARK 924 INTRA-LIGAND FREE ENERGY PREDICTED BY IDOCK:   -0.15 KCAL/MOL
REMARK 927      BINDING AFFINITY PREDICTED BY RF-SCORE:    0.00 PKD
ROOT
HETATM    1  C   UNL     1      -9.698   4.371  65.268  1.00  0.00    -0.199 C  
HETATM    2  C   UNL     1     -10.419   4.939  66.481  1.00  0.00    -0.299 C  
ENDROOT
BRANCH   2   3
HETATM    3  C   UNL     1      -9.703   6.180  67.022  1.00  0.00    -0.167 C  
HETATM    4  C   UNL     1     -10.575   7.065  67.941  1.00  0.00    -0.276 C  
HETATM    5  C   UNL     1      -9.800   8.323  68.326  1.00  0.00    -0.172 C  
HETATM    6  C   UNL     1     -11.121   6.334  69.185  1.00  0.00    -0.457 C  
HETATM    7  O   UNL     1     -10.525   9.220  69.031  1.00  0.00    -0.210 OA 
HETATM    8  O   UNL     1      -8.641   8.550  68.014  1.00  0.00    -0.132 OA 
BRANCH   6   9
HETATM    9  C   UNL     1     -10.041   5.823  70.143  1.00  0.00    -0.274 C  
HETATM   10  C   UNL     1     -10.301   6.298  71.564  1.00  0.00    -0.243 C  
ENDBRANCH   6   9
ENDBRANCH   2   3
TORSDOF 2
ENDMDL
MODEL      155
REMARK 921   NORMALIZED FREE ENERGY PREDICTED BY IDOCK:   -1.99 KCAL/MOL
REMARK 922        TOTAL FREE ENERGY PREDICTED BY IDOCK:   -2.58 KCAL/MOL
REMARK 923 INTER-LIGAND FREE ENERGY PREDICTED BY IDOCK:   -2.42 KCAL/MOL
REMARK 924 INTRA-LIGAND FREE ENERGY PREDICTED BY IDOCK:   -0.15 KCAL/MOL
REMARK 927      BINDING AFFINITY PREDICTED BY RF-SCORE:    0.00 PKD
ROOT
HETATM    1  C   UNL     1      -8.684   7.057  68.435  1.00  0.00    -0.125 C  
HETATM    2  C   UNL     1      -8.181   6.238  69.615  1.00  0.00    -0.124 C  
ENDROOT
BRANCH   2   3
HETATM    3  C   UNL     1      -8.469   6.944  70.944  1.00  0.00    -0.135 C  
HETATM    4  C   UNL     1      -9.966   6.999  71.321  1.00  0.00    -0.196 C  
HETATM    5  C   UNL     1     -10.142   7.818  72.598  1.00  0.00    -0.260 C  
HETATM    6  C   UNL     1     -10.637   5.615  71.440  1.00  0.00    -0.317 C  
HETATM    7  O   UNL     1     -11.433   8.028  72.941  1.00  0.00    -0.411 OA 
HETATM    8  O   UNL     1      -9.227   8.289  73.256  1.00  0.00    -0.255 OA 
BRANCH   6   9
HETATM    9  C   UNL     1     -10.051   4.721  72.536  1.00  0.00    -0.234 C  
HETATM   10  C   UNL     1     -11.008   4.598  73.712  1.00  0.00    -0.368 C  
ENDBRANCH   6   9
ENDBRANCH   2   3
TORSDOF 2
ENDMDL
MODEL      156
REMARK 921   NORMALIZED FREE ENERGY PREDICTED BY IDOCK:   -1.98 KCAL/MOL
REMARK 922        TOTAL FREE ENERGY PREDICTED BY IDOCK:   -2.57 KCAL/MOL
REMARK 923 INTER-LIGAND FREE ENERGY PREDICTED BY IDOCK:   -2.65 KCAL/MOL
REMARK 924 INTRA-LIGAND FREE ENERGY PREDICTED BY IDOCK:    0.08 KCAL/MOL
REMARK 927      BINDING AFFINITY PREDICTED BY RF-SCORE:    0.00 PKD
ROOT
HETATM    1  C   UNL     1     -10.233  18.642  66.035  1.00  0.00    -0.386 C  
HETATM    2  C   UNL     1      -9.385  18.408  67.277  1.00  0.00    -0.271 C  
ENDROOT
BRANCH   2   3
HETATM    3  C   UNL     1      -8.599  17.098  67.174  1.00  0.00    -0.221 C  
HETATM    4  C   UNL     1      -9.311  15.880  67.806  1.00  0.00    -0.207 C  
HETATM    5  C   UNL     1      -8.392  14.662  67.746  1.00  0.00    -0.162 C  
HETATM    6  C   UNL     1     -10.695  15.575  67.198  1.00  0.00    -0.315 C  
HETATM    7  O   UNL     1      -8.878  13.576  68.386  1.00  0.00    -0.182 OA 
HETATM    8  O   UNL     1      -7.294  14.643  67.209  1.00  0.00    -0.193 OA 
BRANCH   6   9
HETATM    9  C   UNL     1     -10.666  15.208  65.712  1.00  0.00    -0.359 C  
HETATM   10  C   UNL     1     -11.966  14.542  65.287  1.00  0.00    -0.353 C  
ENDBRANCH   6   9
ENDBRANCH   2   3
TORSDOF 2
ENDMDL
MODEL      157
REMARK 921   NORMALIZED FREE ENERGY PREDICTED BY IDOCK:   -1.98 KCAL/MOL
REMARK 922        TOTAL FREE ENERGY PREDICTED BY IDOCK:   -2.56 KCAL/MOL
REMARK 923 INTER-LIGAND FREE ENERGY PREDICTED BY IDOCK:   -2.37 KCAL/MOL
REMARK 924 INTRA-LIGAND FREE ENERGY PREDICTED BY IDOCK:   -0.19 KCAL/MOL
REMARK 927      BINDING AFFINITY PREDICTED BY RF-SCORE:    0.00 PKD
ROOT
HETATM    1  C   UNL     1      -8.085   7.922  74.446  1.00  0.00    -0.293 C  
HETATM    2  C   UNL     1      -7.875   8.273  72.980  1.00  0.00    -0.188 C  
ENDROOT
BRANCH   2   3
HETATM    3  C   UNL     1      -9.205   8.587  72.288  1.00  0.00    -0.343 C  
HETATM    4  C   UNL     1      -9.180   8.403  70.754  1.00  0.00    -0.186 C  
HETATM    5  C   UNL     1     -10.515   8.849  70.163  1.00  0.00    -0.214 C  
HETATM    6  C   UNL     1      -8.807   6.977  70.297  1.00  0.00    -0.148 C  
HETATM    7  O   UNL     1     -10.547   8.842  68.812  1.00  0.00    -0.211 OA 
HETATM    8  O   UNL     1     -11.478   9.221  70.817  1.00  0.00    -0.268 OA 
BRANCH   6   9
HETATM    9  C   UNL     1      -9.791   5.892  70.746  1.00  0.00    -0.229 C  
HETATM   10  C   UNL     1     -10.254   5.051  69.566  1.00  0.00    -0.286 C  
ENDBRANCH   6   9
ENDBRANCH   2   3
TORSDOF 2
ENDMDL
MODEL      158
REMARK 921   NORMALIZED FREE ENERGY PREDICTED BY IDOCK:   -1.97 KCAL/MOL
REMARK 922        TOTAL FREE ENERGY PREDICTED BY IDOCK:   -2.55 KCAL/MOL
REMARK 923 INTER-LIGAND FREE ENERGY PREDICTED BY IDOCK:   -2.79 KCAL/MOL
REMARK 924 INTRA-LIGAND FREE ENERGY PREDICTED BY IDOCK:    0.23 KCAL/MOL
REMARK 927      BINDING AFFINITY PREDICTED BY RF-SCORE:    0.00 PKD
ROOT
HETATM    1  C   UNL     1     -10.151   9.441  67.287  1.00  0.00    -0.285 C  
HETATM    2  C   UNL     1     -10.494  10.424  68.397  1.00  0.00    -0.216 C  
ENDROOT
BRANCH   2   3
HETATM    3  C   UNL     1      -9.706  11.729  68.246  1.00  0.00    -0.199 C  
HETATM    4  C   UNL     1     -10.242  12.670  67.143  1.00  0.00    -0.230 C  
HETATM    5  C   UNL     1      -9.319  13.878  67.008  1.00  0.00    -0.251 C  
HETATM    6  C   UNL     1     -11.710  13.099  67.342  1.00  0.00    -0.419 C  
HETATM    7  O   UNL     1      -9.636  14.699  65.982  1.00  0.00    -0.304 OA 
HETATM    8  O   UNL     1      -8.349  14.098  67.719  1.00  0.00    -0.149 OA 
BRANCH   6   9
HETATM    9  C   UNL     1     -11.966  13.905  68.619  1.00  0.00    -0.401 C  
HETATM   10  C   UNL     1     -11.709  15.387  68.392  1.00  0.00    -0.332 C  
ENDBRANCH   6   9
ENDBRANCH   2   3
TORSDOF 2
ENDMDL
MODEL      159
REMARK 921   NORMALIZED FREE ENERGY PREDICTED BY IDOCK:   -1.97 KCAL/MOL
REMARK 922        TOTAL FREE ENERGY PREDICTED BY IDOCK:   -2.55 KCAL/MOL
REMARK 923 INTER-LIGAND FREE ENERGY PREDICTED BY IDOCK:   -2.31 KCAL/MOL
REMARK 924 INTRA-LIGAND FREE ENERGY PREDICTED BY IDOCK:   -0.24 KCAL/MOL
REMARK 927      BINDING AFFINITY PREDICTED BY RF-SCORE:    0.00 PKD
ROOT
HETATM    1  C   UNL     1      -9.960   7.449  67.196  1.00  0.00    -0.281 C  
HETATM    2  C   UNL     1     -10.335   8.923  67.136  1.00  0.00    -0.351 C  
ENDROOT
BRANCH   2   3
HETATM    3  C   UNL     1      -9.094   9.806  66.975  1.00  0.00    -0.157 C  
HETATM    4  C   UNL     1      -8.350   9.615  65.633  1.00  0.00    -0.133 C  
HETATM    5  C   UNL     1      -7.076  10.456  65.630  1.00  0.00    -0.142 C  
HETATM    6  C   UNL     1      -9.217   9.896  64.389  1.00  0.00    -0.317 C  
HETATM    7  O   UNL     1      -6.293  10.261  64.546  1.00  0.00    -0.130 OA 
HETATM    8  O   UNL     1      -6.742  11.220  66.524  1.00  0.00    -0.137 OA 
BRANCH   6   9
HETATM    9  C   UNL     1      -9.726  11.336  64.285  1.00  0.00    -0.295 C  
HETATM   10  C   UNL     1     -11.210  11.370  63.951  1.00  0.00    -0.364 C  
ENDBRANCH   6   9
ENDBRANCH   2   3
TORSDOF 2
ENDMDL
MODEL      160
REMARK 921   NORMALIZED FREE ENERGY PREDICTED BY IDOCK:   -1.97 KCAL/MOL
REMARK 922        TOTAL FREE ENERGY PREDICTED BY IDOCK:   -2.55 KCAL/MOL
REMARK 923 INTER-LIGAND FREE ENERGY PREDICTED BY IDOCK:   -2.41 KCAL/MOL
REMARK 924 INTRA-LIGAND FREE ENERGY PREDICTED BY IDOCK:   -0.14 KCAL/MOL
REMARK 927      BINDING AFFINITY PREDICTED BY RF-SCORE:    0.00 PKD
ROOT
HETATM    1  C   UNL     1     -10.068  18.033  68.471  1.00  0.00    -0.399 C  
HETATM    2  C   UNL     1     -11.082  16.914  68.655  1.00  0.00    -0.194 C  
ENDROOT
BRANCH   2   3
HETATM    3  C   UNL     1     -10.807  15.752  67.696  1.00  0.00    -0.310 C  
HETATM    4  C   UNL     1      -9.906  14.643  68.285  1.00  0.00    -0.222 C  
HETATM    5  C   UNL     1      -9.608  13.601  67.210  1.00  0.00    -0.238 C  
HETATM    6  C   UNL     1     -10.466  13.992  69.566  1.00  0.00     0.145 C  
HETATM    7  O   UNL     1      -8.725  12.653  67.595  1.00  0.00    -0.159 OA 
HETATM    8  O   UNL     1     -10.078  13.608  66.082  1.00  0.00    -0.291 OA 
BRANCH   6   9
HETATM    9  C   UNL     1     -11.802  13.267  69.374  1.00  0.00    -0.386 C  
HETATM   10  C   UNL     1     -11.998  12.192  70.433  1.00  0.00    -0.360 C  
ENDBRANCH   6   9
ENDBRANCH   2   3
TORSDOF 2
ENDMDL
MODEL      161
REMARK 921   NORMALIZED FREE ENERGY PREDICTED BY IDOCK:   -1.96 KCAL/MOL
REMARK 922        TOTAL FREE ENERGY PREDICTED BY IDOCK:   -2.55 KCAL/MOL
REMARK 923 INTER-LIGAND FREE ENERGY PREDICTED BY IDOCK:   -2.19 KCAL/MOL
REMARK 924 INTRA-LIGAND FREE ENERGY PREDICTED BY IDOCK:   -0.35 KCAL/MOL
REMARK 927      BINDING AFFINITY PREDICTED BY RF-SCORE:    0.00 PKD
ROOT
HETATM    1  C   UNL     1      -7.020   6.027  66.235  1.00  0.00    -0.063 C  
HETATM    2  C   UNL     1      -7.482   7.465  66.421  1.00  0.00    -0.084 C  
ENDROOT
BRANCH   2   3
HETATM    3  C   UNL     1      -8.091   7.677  67.810  1.00  0.00    -0.118 C  
HETATM    4  C   UNL     1      -9.448   8.417  67.801  1.00  0.00    -0.171 C  
HETATM    5  C   UNL     1      -9.902   8.671  69.236  1.00  0.00    -0.188 C  
HETATM    6  C   UNL     1     -10.544   7.709  66.977  1.00  0.00    -0.406 C  
HETATM    7  O   UNL     1     -11.022   9.423  69.332  1.00  0.00    -0.222 OA 
HETATM    8  O   UNL     1      -9.315   8.279  70.233  1.00  0.00    -0.157 OA 
BRANCH   6   9
HETATM    9  C   UNL     1     -10.926   6.320  67.496  1.00  0.00    -0.444 C  
HETATM   10  C   UNL     1     -10.642   5.249  66.453  1.00  0.00    -0.338 C  
ENDBRANCH   6   9
ENDBRANCH   2   3
TORSDOF 2
ENDMDL
MODEL      162
REMARK 921   NORMALIZED FREE ENERGY PREDICTED BY IDOCK:   -1.95 KCAL/MOL
REMARK 922        TOTAL FREE ENERGY PREDICTED BY IDOCK:   -2.53 KCAL/MOL
REMARK 923 INTER-LIGAND FREE ENERGY PREDICTED BY IDOCK:   -2.68 KCAL/MOL
REMARK 924 INTRA-LIGAND FREE ENERGY PREDICTED BY IDOCK:    0.14 KCAL/MOL
REMARK 927      BINDING AFFINITY PREDICTED BY RF-SCORE:    0.00 PKD
ROOT
HETATM    1  C   UNL     1     -10.100   5.658  68.904  1.00  0.00    -0.254 C  
HETATM    2  C   UNL     1     -11.310   6.154  69.683  1.00  0.00    -0.442 C  
ENDROOT
BRANCH   2   3
HETATM    3  C   UNL     1     -10.912   6.626  71.085  1.00  0.00    -0.302 C  
HETATM    4  C   UNL     1     -10.950   5.518  72.162  1.00  0.00    -0.291 C  
HETATM    5  C   UNL     1     -10.647   6.123  73.530  1.00  0.00    -0.266 C  
HETATM    6  C   UNL     1     -10.033   4.315  71.859  1.00  0.00    -0.255 C  
HETATM    7  O   UNL     1     -10.779   5.253  74.556  1.00  0.00    -0.323 OA 
HETATM    8  O   UNL     1     -10.346   7.291  73.725  1.00  0.00    -0.360 OA 
BRANCH   6   9
HETATM    9  C   UNL     1      -8.542   4.659  71.789  1.00  0.00    -0.129 C  
HETATM   10  C   UNL     1      -7.710   3.424  71.476  1.00  0.00    -0.056 C  
ENDBRANCH   6   9
ENDBRANCH   2   3
TORSDOF 2
ENDMDL
MODEL      163
REMARK 921   NORMALIZED FREE ENERGY PREDICTED BY IDOCK:   -1.93 KCAL/MOL
REMARK 922        TOTAL FREE ENERGY PREDICTED BY IDOCK:   -2.51 KCAL/MOL
REMARK 923 INTER-LIGAND FREE ENERGY PREDICTED BY IDOCK:   -2.30 KCAL/MOL
REMARK 924 INTRA-LIGAND FREE ENERGY PREDICTED BY IDOCK:   -0.20 KCAL/MOL
REMARK 927      BINDING AFFINITY PREDICTED BY RF-SCORE:    0.00 PKD
ROOT
HETATM    1  C   UNL     1     -11.197   9.824  70.349  1.00  0.00    -0.362 C  
HETATM    2  C   UNL     1     -10.649   8.485  69.876  1.00  0.00    -0.228 C  
ENDROOT
BRANCH   2   3
HETATM    3  C   UNL     1      -9.234   8.244  70.410  1.00  0.00    -0.153 C  
HETATM    4  C   UNL     1      -9.076   8.502  71.925  1.00  0.00    -0.314 C  
HETATM    5  C   UNL     1      -7.610   8.341  72.322  1.00  0.00    -0.123 C  
HETATM    6  C   UNL     1     -10.000   7.640  72.810  1.00  0.00    -0.298 C  
HETATM    7  O   UNL     1      -7.350   8.668  73.607  1.00  0.00    -0.347 OA 
HETATM    8  O   UNL     1      -6.718   7.986  71.566  1.00  0.00    -0.048 OA 
BRANCH   6   9
HETATM    9  C   UNL     1      -9.752   6.133  72.702  1.00  0.00    -0.164 C  
HETATM   10  C   UNL     1     -10.966   5.418  72.129  1.00  0.00    -0.265 C  
ENDBRANCH   6   9
ENDBRANCH   2   3
TORSDOF 2
ENDMDL
MODEL      164
REMARK 921   NORMALIZED FREE ENERGY PREDICTED BY IDOCK:   -1.91 KCAL/MOL
REMARK 922        TOTAL FREE ENERGY PREDICTED BY IDOCK:   -2.49 KCAL/MOL
REMARK 923 INTER-LIGAND FREE ENERGY PREDICTED BY IDOCK:   -2.24 KCAL/MOL
REMARK 924 INTRA-LIGAND FREE ENERGY PREDICTED BY IDOCK:   -0.25 KCAL/MOL
REMARK 927      BINDING AFFINITY PREDICTED BY RF-SCORE:    0.00 PKD
ROOT
HETATM    1  C   UNL     1      -9.467   9.842  69.766  1.00  0.00    -0.253 C  
HETATM    2  C   UNL     1     -10.718   9.098  69.321  1.00  0.00    -0.199 C  
ENDROOT
BRANCH   2   3
HETATM    3  C   UNL     1     -10.413   7.627  69.022  1.00  0.00    -0.214 C  
HETATM    4  C   UNL     1     -10.728   7.196  67.572  1.00  0.00    -0.344 C  
HETATM    5  C   UNL     1     -10.494   5.696  67.422  1.00  0.00    -0.241 C  
HETATM    6  C   UNL     1      -9.966   7.999  66.498  1.00  0.00    -0.283 C  
HETATM    7  O   UNL     1     -10.861   5.200  66.219  1.00  0.00    -0.296 OA 
HETATM    8  O   UNL     1     -10.051   4.968  68.297  1.00  0.00    -0.153 OA 
BRANCH   6   9
HETATM    9  C   UNL     1      -8.443   7.855  66.563  1.00  0.00    -0.134 C  
HETATM   10  C   UNL     1      -7.874   7.434  65.216  1.00  0.00    -0.121 C  
ENDBRANCH   6   9
ENDBRANCH   2   3
TORSDOF 2
ENDMDL
MODEL      165
REMARK 921   NORMALIZED FREE ENERGY PREDICTED BY IDOCK:   -1.91 KCAL/MOL
REMARK 922        TOTAL FREE ENERGY PREDICTED BY IDOCK:   -2.48 KCAL/MOL
REMARK 923 INTER-LIGAND FREE ENERGY PREDICTED BY IDOCK:   -2.15 KCAL/MOL
REMARK 924 INTRA-LIGAND FREE ENERGY PREDICTED BY IDOCK:   -0.34 KCAL/MOL
REMARK 927      BINDING AFFINITY PREDICTED BY RF-SCORE:    0.00 PKD
ROOT
HETATM    1  C   UNL     1     -11.862   8.846  71.775  1.00  0.00    -0.429 C  
HETATM    2  C   UNL     1     -10.353   8.888  71.961  1.00  0.00    -0.378 C  
ENDROOT
BRANCH   2   3
HETATM    3  C   UNL     1      -9.644   9.292  70.664  1.00  0.00    -0.334 C  
HETATM    4  C   UNL     1      -8.313   8.548  70.411  1.00  0.00    -0.124 C  
HETATM    5  C   UNL     1      -7.644   9.108  69.158  1.00  0.00    -0.073 C  
HETATM    6  C   UNL     1      -8.454   7.014  70.340  1.00  0.00    -0.141 C  
HETATM    7  O   UNL     1      -6.412   8.605  68.923  1.00  0.00    -0.047 OA 
HETATM    8  O   UNL     1      -8.130   9.959  68.429  1.00  0.00    -0.098 OA 
BRANCH   6   9
HETATM    9  C   UNL     1      -9.338   6.512  69.194  1.00  0.00    -0.133 C  
HETATM   10  C   UNL     1     -10.595   5.841  69.727  1.00  0.00    -0.388 C  
ENDBRANCH   6   9
ENDBRANCH   2   3
TORSDOF 2
ENDMDL
MODEL      166
REMARK 921   NORMALIZED FREE ENERGY PREDICTED BY IDOCK:   -1.90 KCAL/MOL
REMARK 922        TOTAL FREE ENERGY PREDICTED BY IDOCK:   -2.48 KCAL/MOL
REMARK 923 INTER-LIGAND FREE ENERGY PREDICTED BY IDOCK:   -2.34 KCAL/MOL
REMARK 924 INTRA-LIGAND FREE ENERGY PREDICTED BY IDOCK:   -0.13 KCAL/MOL
REMARK 927      BINDING AFFINITY PREDICTED BY RF-SCORE:    0.00 PKD
ROOT
HETATM    1  C   UNL     1      -7.237   8.637  64.702  1.00  0.00    -0.089 C  
HETATM    2  C   UNL     1      -8.510   9.470  64.755  1.00  0.00    -0.170 C  
ENDROOT
BRANCH   2   3
HETATM    3  C   UNL     1      -9.311   9.180  66.028  1.00  0.00    -0.300 C  
HETATM    4  C   UNL     1      -9.219  10.289  67.101  1.00  0.00    -0.163 C  
HETATM    5  C   UNL     1      -9.959   9.844  68.360  1.00  0.00    -0.158 C  
HETATM    6  C   UNL     1      -9.703  11.672  66.619  1.00  0.00    -0.221 C  
HETATM    7  O   UNL     1      -9.830  10.696  69.401  1.00  0.00    -0.210 OA 
HETATM    8  O   UNL     1     -10.589   8.803  68.468  1.00  0.00    -0.200 OA 
BRANCH   6   9
HETATM    9  C   UNL     1     -11.180  11.721  66.216  1.00  0.00    -0.370 C  
HETATM   10  C   UNL     1     -11.794  13.072  66.550  1.00  0.00    -0.464 C  
ENDBRANCH   6   9
ENDBRANCH   2   3
TORSDOF 2
ENDMDL
MODEL      167
REMARK 921   NORMALIZED FREE ENERGY PREDICTED BY IDOCK:   -1.87 KCAL/MOL
REMARK 922        TOTAL FREE ENERGY PREDICTED BY IDOCK:   -2.44 KCAL/MOL
REMARK 923 INTER-LIGAND FREE ENERGY PREDICTED BY IDOCK:   -2.18 KCAL/MOL
REMARK 924 INTRA-LIGAND FREE ENERGY PREDICTED BY IDOCK:   -0.27 KCAL/MOL
REMARK 927      BINDING AFFINITY PREDICTED BY RF-SCORE:    0.00 PKD
ROOT
HETATM    1  C   UNL     1      -9.299   2.984  69.051  1.00  0.00    -0.226 C  
HETATM    2  C   UNL     1      -9.006   4.194  69.926  1.00  0.00    -0.159 C  
ENDROOT
BRANCH   2   3
HETATM    3  C   UNL     1     -10.267   5.035  70.151  1.00  0.00    -0.329 C  
HETATM    4  C   UNL     1      -9.996   6.441  70.732  1.00  0.00    -0.212 C  
HETATM    5  C   UNL     1     -11.323   7.140  71.019  1.00  0.00    -0.279 C  
HETATM    6  C   UNL     1      -9.073   7.315  69.860  1.00  0.00    -0.141 C  
HETATM    7  O   UNL     1     -11.191   8.330  71.646  1.00  0.00    -0.247 OA 
HETATM    8  O   UNL     1     -12.424   6.682  70.755  1.00  0.00    -0.314 OA 
BRANCH   6   9
HETATM    9  C   UNL     1      -9.631   7.632  68.469  1.00  0.00    -0.149 C  
HETATM   10  C   UNL     1      -8.741   7.058  67.378  1.00  0.00    -0.120 C  
ENDBRANCH   6   9
ENDBRANCH   2   3
TORSDOF 2
ENDMDL
MODEL      168
REMARK 921   NORMALIZED FREE ENERGY PREDICTED BY IDOCK:   -1.86 KCAL/MOL
REMARK 922        TOTAL FREE ENERGY PREDICTED BY IDOCK:   -2.43 KCAL/MOL
REMARK 923 INTER-LIGAND FREE ENERGY PREDICTED BY IDOCK:   -2.23 KCAL/MOL
REMARK 924 INTRA-LIGAND FREE ENERGY PREDICTED BY IDOCK:   -0.20 KCAL/MOL
REMARK 927      BINDING AFFINITY PREDICTED BY RF-SCORE:    0.00 PKD
ROOT
HETATM    1  C   UNL     1     -10.023  13.313  66.558  1.00  0.00    -0.280 C  
HETATM    2  C   UNL     1     -10.732  12.078  66.020  1.00  0.00    -0.317 C  
ENDROOT
BRANCH   2   3
HETATM    3  C   UNL     1     -10.525  10.872  66.941  1.00  0.00    -0.299 C  
HETATM    4  C   UNL     1     -10.482   9.513  66.206  1.00  0.00    -0.137 C  
HETATM    5  C   UNL     1     -10.386   8.382  67.227  1.00  0.00    -0.299 C  
HETATM    6  C   UNL     1      -9.372   9.410  65.140  1.00  0.00    -0.288 C  
HETATM    7  O   UNL     1     -10.466   7.146  66.686  1.00  0.00    -0.235 OA 
HETATM    8  O   UNL     1     -10.281   8.540  68.434  1.00  0.00    -0.193 OA 
BRANCH   6   9
HETATM    9  C   UNL     1      -7.949   9.533  65.694  1.00  0.00    -0.108 C  
HETATM   10  C   UNL     1      -7.056   8.423  65.161  1.00  0.00    -0.075 C  
ENDBRANCH   6   9
ENDBRANCH   2   3
TORSDOF 2
ENDMDL
MODEL      169
REMARK 921   NORMALIZED FREE ENERGY PREDICTED BY IDOCK:   -1.83 KCAL/MOL
REMARK 922        TOTAL FREE ENERGY PREDICTED BY IDOCK:   -2.40 KCAL/MOL
REMARK 923 INTER-LIGAND FREE ENERGY PREDICTED BY IDOCK:   -2.27 KCAL/MOL
REMARK 924 INTRA-LIGAND FREE ENERGY PREDICTED BY IDOCK:   -0.13 KCAL/MOL
REMARK 927      BINDING AFFINITY PREDICTED BY RF-SCORE:    0.00 PKD
ROOT
HETATM    1  C   UNL     1      -8.321   7.929  69.834  1.00  0.00    -0.122 C  
HETATM    2  C   UNL     1      -9.329   9.069  69.792  1.00  0.00    -0.176 C  
ENDROOT
BRANCH   2   3
HETATM    3  C   UNL     1      -8.833  10.216  68.907  1.00  0.00    -0.154 C  
HETATM    4  C   UNL     1      -9.742  10.518  67.693  1.00  0.00    -0.187 C  
HETATM    5  C   UNL     1      -9.096  11.595  66.826  1.00  0.00    -0.186 C  
HETATM    6  C   UNL     1     -11.191  10.889  68.070  1.00  0.00    -0.378 C  
HETATM    7  O   UNL     1      -9.757  11.841  65.673  1.00  0.00    -0.229 OA 
HETATM    8  O   UNL     1      -8.057  12.179  67.097  1.00  0.00    -0.167 OA 
BRANCH   6   9
HETATM    9  C   UNL     1     -11.320  12.164  68.908  1.00  0.00    -0.335 C  
HETATM   10  C   UNL     1     -11.976  13.281  68.108  1.00  0.00    -0.340 C  
ENDBRANCH   6   9
ENDBRANCH   2   3
TORSDOF 2
ENDMDL
MODEL      170
REMARK 921   NORMALIZED FREE ENERGY PREDICTED BY IDOCK:   -1.83 KCAL/MOL
REMARK 922        TOTAL FREE ENERGY PREDICTED BY IDOCK:   -2.40 KCAL/MOL
REMARK 923 INTER-LIGAND FREE ENERGY PREDICTED BY IDOCK:   -2.20 KCAL/MOL
REMARK 924 INTRA-LIGAND FREE ENERGY PREDICTED BY IDOCK:   -0.20 KCAL/MOL
REMARK 927      BINDING AFFINITY PREDICTED BY RF-SCORE:    0.00 PKD
ROOT
HETATM    1  C   UNL     1      -9.147   8.674  70.874  1.00  0.00    -0.229 C  
HETATM    2  C   UNL     1      -8.347   9.046  69.634  1.00  0.00    -0.125 C  
ENDROOT
BRANCH   2   3
HETATM    3  C   UNL     1      -8.355   7.909  68.607  1.00  0.00    -0.128 C  
HETATM    4  C   UNL     1      -9.753   7.579  68.037  1.00  0.00    -0.165 C  
HETATM    5  C   UNL     1      -9.656   6.366  67.116  1.00  0.00    -0.134 C  
HETATM    6  C   UNL     1     -10.444   8.767  67.338  1.00  0.00    -0.349 C  
HETATM    7  O   UNL     1     -10.851   5.923  66.664  1.00  0.00    -0.301 OA 
HETATM    8  O   UNL     1      -8.616   5.796  66.819  1.00  0.00    -0.112 OA 
BRANCH   6   9
HETATM    9  C   UNL     1      -9.700   9.296  66.108  1.00  0.00    -0.349 C  
HETATM   10  C   UNL     1     -10.029  10.760  65.857  1.00  0.00    -0.304 C  
ENDBRANCH   6   9
ENDBRANCH   2   3
TORSDOF 2
ENDMDL
MODEL      171
REMARK 921   NORMALIZED FREE ENERGY PREDICTED BY IDOCK:   -1.82 KCAL/MOL
REMARK 922        TOTAL FREE ENERGY PREDICTED BY IDOCK:   -2.39 KCAL/MOL
REMARK 923 INTER-LIGAND FREE ENERGY PREDICTED BY IDOCK:   -2.14 KCAL/MOL
REMARK 924 INTRA-LIGAND FREE ENERGY PREDICTED BY IDOCK:   -0.24 KCAL/MOL
REMARK 927      BINDING AFFINITY PREDICTED BY RF-SCORE:    0.00 PKD
ROOT
HETATM    1  C   UNL     1      -9.671   7.779  67.222  1.00  0.00    -0.224 C  
HETATM    2  C   UNL     1     -10.420   7.198  68.413  1.00  0.00    -0.228 C  
ENDROOT
BRANCH   2   3
HETATM    3  C   UNL     1      -9.502   7.056  69.631  1.00  0.00    -0.147 C  
HETATM    4  C   UNL     1      -9.341   8.351  70.459  1.00  0.00    -0.177 C  
HETATM    5  C   UNL     1      -8.323   8.123  71.573  1.00  0.00    -0.126 C  
HETATM    6  C   UNL     1     -10.668   8.914  71.010  1.00  0.00    -0.315 C  
HETATM    7  O   UNL     1      -8.022   9.237  72.278  1.00  0.00    -0.092 OA 
HETATM    8  O   UNL     1      -7.781   7.055  71.815  1.00  0.00    -0.092 OA 
BRANCH   6   9
HETATM    9  C   UNL     1     -11.392   7.983  71.986  1.00  0.00    -0.359 C  
HETATM   10  C   UNL     1     -12.760   7.586  71.452  1.00  0.00    -0.382 C  
ENDBRANCH   6   9
ENDBRANCH   2   3
TORSDOF 2
ENDMDL
MODEL      172
REMARK 921   NORMALIZED FREE ENERGY PREDICTED BY IDOCK:   -1.81 KCAL/MOL
REMARK 922        TOTAL FREE ENERGY PREDICTED BY IDOCK:   -2.38 KCAL/MOL
REMARK 923 INTER-LIGAND FREE ENERGY PREDICTED BY IDOCK:   -2.28 KCAL/MOL
REMARK 924 INTRA-LIGAND FREE ENERGY PREDICTED BY IDOCK:   -0.10 KCAL/MOL
REMARK 927      BINDING AFFINITY PREDICTED BY RF-SCORE:    0.00 PKD
ROOT
HETATM    1  C   UNL     1     -10.363   9.765  70.950  1.00  0.00    -0.245 C  
HETATM    2  C   UNL     1     -11.407   9.887  69.850  1.00  0.00    -0.273 C  
ENDROOT
BRANCH   2   3
HETATM    3  C   UNL     1     -10.829  10.573  68.609  1.00  0.00    -0.276 C  
HETATM    4  C   UNL     1      -9.371  10.176  68.287  1.00  0.00    -0.136 C  
HETATM    5  C   UNL     1      -8.865  11.001  67.106  1.00  0.00    -0.140 C  
HETATM    6  C   UNL     1      -9.167   8.666  68.051  1.00  0.00    -0.147 C  
HETATM    7  O   UNL     1      -7.556  10.814  66.826  1.00  0.00    -0.116 OA 
HETATM    8  O   UNL     1      -9.541  11.795  66.469  1.00  0.00    -0.199 OA 
BRANCH   6   9
HETATM    9  C   UNL     1      -9.937   8.104  66.852  1.00  0.00    -0.343 C  
HETATM   10  C   UNL     1     -10.884   6.993  67.281  1.00  0.00    -0.403 C  
ENDBRANCH   6   9
ENDBRANCH   2   3
TORSDOF 2
ENDMDL
MODEL      173
REMARK 921   NORMALIZED FREE ENERGY PREDICTED BY IDOCK:   -1.81 KCAL/MOL
REMARK 922        TOTAL FREE ENERGY PREDICTED BY IDOCK:   -2.37 KCAL/MOL
REMARK 923 INTER-LIGAND FREE ENERGY PREDICTED BY IDOCK:   -2.48 KCAL/MOL
REMARK 924 INTRA-LIGAND FREE ENERGY PREDICTED BY IDOCK:    0.11 KCAL/MOL
REMARK 927      BINDING AFFINITY PREDICTED BY RF-SCORE:    0.00 PKD
ROOT
HETATM    1  C   UNL     1     -11.689  14.601  67.455  1.00  0.00    -0.403 C  
HETATM    2  C   UNL     1     -12.021  13.139  67.719  1.00  0.00    -0.352 C  
ENDROOT
BRANCH   2   3
HETATM    3  C   UNL     1     -11.658  12.262  66.517  1.00  0.00    -0.440 C  
HETATM    4  C   UNL     1     -10.471  12.792  65.680  1.00  0.00    -0.297 C  
HETATM    5  C   UNL     1     -10.273  11.905  64.454  1.00  0.00    -0.297 C  
HETATM    6  C   UNL     1      -9.162  12.954  66.479  1.00  0.00    -0.186 C  
HETATM    7  O   UNL     1      -9.335  12.360  63.593  1.00  0.00     0.029 OA 
HETATM    8  O   UNL     1     -10.910  10.889  64.217  1.00  0.00    -0.309 OA 
BRANCH   6   9
HETATM    9  C   UNL     1      -8.606  11.648  67.054  1.00  0.00    -0.169 C  
HETATM   10  C   UNL     1      -7.183  11.401  66.575  1.00  0.00    -0.057 C  
ENDBRANCH   6   9
ENDBRANCH   2   3
TORSDOF 2
ENDMDL
MODEL      174
REMARK 921   NORMALIZED FREE ENERGY PREDICTED BY IDOCK:   -1.79 KCAL/MOL
REMARK 922        TOTAL FREE ENERGY PREDICTED BY IDOCK:   -2.35 KCAL/MOL
REMARK 923 INTER-LIGAND FREE ENERGY PREDICTED BY IDOCK:   -2.20 KCAL/MOL
REMARK 924 INTRA-LIGAND FREE ENERGY PREDICTED BY IDOCK:   -0.15 KCAL/MOL
REMARK 927      BINDING AFFINITY PREDICTED BY RF-SCORE:    0.00 PKD
ROOT
HETATM    1  C   UNL     1     -10.797   5.821  68.831  1.00  0.00    -0.305 C  
HETATM    2  C   UNL     1     -10.869   6.941  67.803  1.00  0.00    -0.312 C  
ENDROOT
BRANCH   2   3
HETATM    3  C   UNL     1      -9.481   7.526  67.521  1.00  0.00    -0.165 C  
HETATM    4  C   UNL     1      -9.422   8.448  66.283  1.00  0.00    -0.292 C  
HETATM    5  C   UNL     1      -7.979   8.879  66.034  1.00  0.00    -0.106 C  
HETATM    6  C   UNL     1     -10.370   9.662  66.357  1.00  0.00    -0.246 C  
HETATM    7  O   UNL     1      -7.806   9.590  64.898  1.00  0.00    -0.110 OA 
HETATM    8  O   UNL     1      -7.033   8.596  66.754  1.00  0.00    -0.074 OA 
BRANCH   6   9
HETATM    9  C   UNL     1     -10.071  10.629  67.506  1.00  0.00    -0.217 C  
HETATM   10  C   UNL     1     -11.328  11.368  67.941  1.00  0.00    -0.371 C  
ENDBRANCH   6   9
ENDBRANCH   2   3
TORSDOF 2
ENDMDL
MODEL      175
REMARK 921   NORMALIZED FREE ENERGY PREDICTED BY IDOCK:   -1.79 KCAL/MOL
REMARK 922        TOTAL FREE ENERGY PREDICTED BY IDOCK:   -2.35 KCAL/MOL
REMARK 923 INTER-LIGAND FREE ENERGY PREDICTED BY IDOCK:   -2.15 KCAL/MOL
REMARK 924 INTRA-LIGAND FREE ENERGY PREDICTED BY IDOCK:   -0.20 KCAL/MOL
REMARK 927      BINDING AFFINITY PREDICTED BY RF-SCORE:    0.00 PKD
ROOT
HETATM    1  C   UNL     1     -11.450  10.690  70.344  1.00  0.00    -0.422 C  
HETATM    2  C   UNL     1     -10.884   9.365  69.855  1.00  0.00    -0.259 C  
ENDROOT
BRANCH   2   3
HETATM    3  C   UNL     1     -11.025   8.274  70.921  1.00  0.00    -0.275 C  
HETATM    4  C   UNL     1     -10.008   7.118  70.784  1.00  0.00    -0.194 C  
HETATM    5  C   UNL     1     -10.314   6.042  71.823  1.00  0.00    -0.215 C  
HETATM    6  C   UNL     1      -8.534   7.566  70.851  1.00  0.00    -0.125 C  
HETATM    7  O   UNL     1      -9.554   4.931  71.702  1.00  0.00    -0.147 OA 
HETATM    8  O   UNL     1     -11.183   6.125  72.678  1.00  0.00    -0.260 OA 
BRANCH   6   9
HETATM    9  C   UNL     1      -8.128   8.210  72.180  1.00  0.00    -0.182 C  
HETATM   10  C   UNL     1      -7.005   7.429  72.846  1.00  0.00    -0.070 C  
ENDBRANCH   6   9
ENDBRANCH   2   3
TORSDOF 2
ENDMDL
MODEL      176
REMARK 921   NORMALIZED FREE ENERGY PREDICTED BY IDOCK:   -1.78 KCAL/MOL
REMARK 922        TOTAL FREE ENERGY PREDICTED BY IDOCK:   -2.34 KCAL/MOL
REMARK 923 INTER-LIGAND FREE ENERGY PREDICTED BY IDOCK:   -2.11 KCAL/MOL
REMARK 924 INTRA-LIGAND FREE ENERGY PREDICTED BY IDOCK:   -0.22 KCAL/MOL
REMARK 927      BINDING AFFINITY PREDICTED BY RF-SCORE:    0.00 PKD
ROOT
HETATM    1  C   UNL     1      -9.506   3.121  71.315  1.00  0.00    -0.219 C  
HETATM    2  C   UNL     1      -9.289   4.563  70.881  1.00  0.00    -0.219 C  
ENDROOT
BRANCH   2   3
HETATM    3  C   UNL     1      -8.985   4.653  69.383  1.00  0.00    -0.140 C  
HETATM    4  C   UNL     1     -10.228   4.894  68.497  1.00  0.00    -0.105 C  
HETATM    5  C   UNL     1      -9.824   4.853  67.025  1.00  0.00    -0.193 C  
HETATM    6  C   UNL     1     -11.000   6.185  68.835  1.00  0.00    -0.424 C  
HETATM    7  O   UNL     1     -10.865   4.931  66.167  1.00  0.00    -0.289 OA 
HETATM    8  O   UNL     1      -8.678   4.725  66.620  1.00  0.00    -0.112 OA 
BRANCH   6   9
HETATM    9  C   UNL     1     -10.196   7.474  68.637  1.00  0.00    -0.210 C  
HETATM   10  C   UNL     1     -10.200   8.322  69.900  1.00  0.00    -0.201 C  
ENDBRANCH   6   9
ENDBRANCH   2   3
TORSDOF 2
ENDMDL
MODEL      177
REMARK 921   NORMALIZED FREE ENERGY PREDICTED BY IDOCK:   -1.77 KCAL/MOL
REMARK 922        TOTAL FREE ENERGY PREDICTED BY IDOCK:   -2.34 KCAL/MOL
REMARK 923 INTER-LIGAND FREE ENERGY PREDICTED BY IDOCK:   -2.13 KCAL/MOL
REMARK 924 INTRA-LIGAND FREE ENERGY PREDICTED BY IDOCK:   -0.21 KCAL/MOL
REMARK 927      BINDING AFFINITY PREDICTED BY RF-SCORE:    0.00 PKD
ROOT
HETATM    1  C   UNL     1      -9.998  11.089  66.499  1.00  0.00    -0.253 C  
HETATM    2  C   UNL     1      -9.179  12.356  66.701  1.00  0.00    -0.218 C  
ENDROOT
BRANCH   2   3
HETATM    3  C   UNL     1     -10.083  13.569  66.943  1.00  0.00    -0.256 C  
HETATM    4  C   UNL     1     -10.039  14.112  68.390  1.00  0.00    -0.238 C  
HETATM    5  C   UNL     1     -11.057  15.240  68.543  1.00  0.00    -0.282 C  
HETATM    6  C   UNL     1      -8.636  14.549  68.855  1.00  0.00    -0.103 C  
HETATM    7  O   UNL     1     -11.181  15.699  69.808  1.00  0.00    -0.268 OA 
HETATM    8  O   UNL     1     -11.741  15.690  67.636  1.00  0.00    -0.182 OA 
BRANCH   6   9
HETATM    9  C   UNL     1      -8.032  15.702  68.049  1.00  0.00    -0.137 C  
HETATM   10  C   UNL     1      -6.646  15.343  67.534  1.00  0.00    -0.191 C  
ENDBRANCH   6   9
ENDBRANCH   2   3
TORSDOF 2
ENDMDL
MODEL      178
REMARK 921   NORMALIZED FREE ENERGY PREDICTED BY IDOCK:   -1.77 KCAL/MOL
REMARK 922        TOTAL FREE ENERGY PREDICTED BY IDOCK:   -2.34 KCAL/MOL
REMARK 923 INTER-LIGAND FREE ENERGY PREDICTED BY IDOCK:   -2.20 KCAL/MOL
REMARK 924 INTRA-LIGAND FREE ENERGY PREDICTED BY IDOCK:   -0.13 KCAL/MOL
REMARK 927      BINDING AFFINITY PREDICTED BY RF-SCORE:    0.00 PKD
ROOT
HETATM    1  C   UNL     1     -10.063   5.180  68.418  1.00  0.00    -0.205 C  
HETATM    2  C   UNL     1     -11.093   6.299  68.475  1.00  0.00    -0.397 C  
ENDROOT
BRANCH   2   3
HETATM    3  C   UNL     1     -11.161   6.920  69.873  1.00  0.00    -0.333 C  
HETATM    4  C   UNL     1      -9.782   7.135  70.539  1.00  0.00    -0.176 C  
HETATM    5  C   UNL     1      -9.977   7.650  71.963  1.00  0.00    -0.175 C  
HETATM    6  C   UNL     1      -8.830   8.043  69.734  1.00  0.00    -0.144 C  
HETATM    7  O   UNL     1      -8.830   7.753  72.671  1.00  0.00    -0.132 OA 
HETATM    8  O   UNL     1     -11.057   7.921  72.465  1.00  0.00    -0.304 OA 
BRANCH   6   9
HETATM    9  C   UNL     1      -9.335   9.477  69.543  1.00  0.00    -0.199 C  
HETATM   10  C   UNL     1      -9.345   9.862  68.071  1.00  0.00    -0.140 C  
ENDBRANCH   6   9
ENDBRANCH   2   3
TORSDOF 2
ENDMDL
MODEL      179
REMARK 921   NORMALIZED FREE ENERGY PREDICTED BY IDOCK:   -1.77 KCAL/MOL
REMARK 922        TOTAL FREE ENERGY PREDICTED BY IDOCK:   -2.33 KCAL/MOL
REMARK 923 INTER-LIGAND FREE ENERGY PREDICTED BY IDOCK:   -2.17 KCAL/MOL
REMARK 924 INTRA-LIGAND FREE ENERGY PREDICTED BY IDOCK:   -0.16 KCAL/MOL
REMARK 927      BINDING AFFINITY PREDICTED BY RF-SCORE:    0.00 PKD
ROOT
HETATM    1  C   UNL     1      -7.418   5.123  71.374  1.00  0.00    -0.091 C  
HETATM    2  C   UNL     1      -8.791   5.756  71.198  1.00  0.00    -0.139 C  
ENDROOT
BRANCH   2   3
HETATM    3  C   UNL     1      -8.711   7.029  70.350  1.00  0.00    -0.147 C  
HETATM    4  C   UNL     1     -10.020   7.379  69.607  1.00  0.00    -0.182 C  
HETATM    5  C   UNL     1      -9.791   8.594  68.711  1.00  0.00    -0.172 C  
HETATM    6  C   UNL     1     -11.235   7.581  70.535  1.00  0.00    -0.287 C  
HETATM    7  O   UNL     1     -10.846   8.903  67.925  1.00  0.00    -0.164 OA 
HETATM    8  O   UNL     1      -8.751   9.233  68.655  1.00  0.00    -0.129 OA 
BRANCH   6   9
HETATM    9  C   UNL     1     -11.092   8.744  71.520  1.00  0.00    -0.377 C  
HETATM   10  C   UNL     1     -12.231   9.740  71.361  1.00  0.00    -0.486 C  
ENDBRANCH   6   9
ENDBRANCH   2   3
TORSDOF 2
ENDMDL
MODEL      180
REMARK 921   NORMALIZED FREE ENERGY PREDICTED BY IDOCK:   -1.76 KCAL/MOL
REMARK 922        TOTAL FREE ENERGY PREDICTED BY IDOCK:   -2.32 KCAL/MOL
REMARK 923 INTER-LIGAND FREE ENERGY PREDICTED BY IDOCK:   -2.15 KCAL/MOL
REMARK 924 INTRA-LIGAND FREE ENERGY PREDICTED BY IDOCK:   -0.17 KCAL/MOL
REMARK 927      BINDING AFFINITY PREDICTED BY RF-SCORE:    0.00 PKD
ROOT
HETATM    1  C   UNL     1      -6.637  10.456  70.188  1.00  0.00    -0.146 C  
HETATM    2  C   UNL     1      -7.327  10.460  68.832  1.00  0.00    -0.094 C  
ENDROOT
BRANCH   2   3
HETATM    3  C   UNL     1      -8.321   9.301  68.712  1.00  0.00    -0.117 C  
HETATM    4  C   UNL     1      -9.597   9.467  69.569  1.00  0.00    -0.198 C  
HETATM    5  C   UNL     1     -10.455   8.210  69.458  1.00  0.00    -0.227 C  
HETATM    6  C   UNL     1     -10.409  10.738  69.246  1.00  0.00    -0.228 C  
HETATM    7  O   UNL     1     -11.535   8.209  70.271  1.00  0.00    -0.200 OA 
HETATM    8  O   UNL     1     -10.203   7.254  68.739  1.00  0.00    -0.172 OA 
BRANCH   6   9
HETATM    9  C   UNL     1     -10.959  10.791  67.817  1.00  0.00    -0.354 C  
HETATM   10  C   UNL     1     -11.632  12.127  67.539  1.00  0.00    -0.413 C  
ENDBRANCH   6   9
ENDBRANCH   2   3
TORSDOF 2
ENDMDL
MODEL      181
REMARK 921   NORMALIZED FREE ENERGY PREDICTED BY IDOCK:   -1.74 KCAL/MOL
REMARK 922        TOTAL FREE ENERGY PREDICTED BY IDOCK:   -2.29 KCAL/MOL
REMARK 923 INTER-LIGAND FREE ENERGY PREDICTED BY IDOCK:   -2.12 KCAL/MOL
REMARK 924 INTRA-LIGAND FREE ENERGY PREDICTED BY IDOCK:   -0.18 KCAL/MOL
REMARK 927      BINDING AFFINITY PREDICTED BY RF-SCORE:    0.00 PKD
ROOT
HETATM    1  C   UNL     1     -11.620  12.130  65.422  1.00  0.00    -0.383 C  
HETATM    2  C   UNL     1     -10.499  11.794  66.396  1.00  0.00    -0.271 C  
ENDROOT
BRANCH   2   3
HETATM    3  C   UNL     1     -10.608  10.348  66.890  1.00  0.00    -0.293 C  
HETATM    4  C   UNL     1      -9.442   9.437  66.445  1.00  0.00    -0.259 C  
HETATM    5  C   UNL     1      -9.712   8.003  66.896  1.00  0.00    -0.225 C  
HETATM    6  C   UNL     1      -8.053   9.923  66.906  1.00  0.00    -0.113 C  
HETATM    7  O   UNL     1      -8.806   7.106  66.446  1.00  0.00    -0.135 OA 
HETATM    8  O   UNL     1     -10.668   7.653  67.571  1.00  0.00    -0.253 OA 
BRANCH   6   9
HETATM    9  C   UNL     1      -7.873   9.974  68.426  1.00  0.00    -0.089 C  
HETATM   10  C   UNL     1      -7.801  11.411  68.921  1.00  0.00    -0.096 C  
ENDBRANCH   6   9
ENDBRANCH   2   3
TORSDOF 2
ENDMDL
MODEL      182
REMARK 921   NORMALIZED FREE ENERGY PREDICTED BY IDOCK:   -1.71 KCAL/MOL
REMARK 922        TOTAL FREE ENERGY PREDICTED BY IDOCK:   -2.27 KCAL/MOL
REMARK 923 INTER-LIGAND FREE ENERGY PREDICTED BY IDOCK:   -2.12 KCAL/MOL
REMARK 924 INTRA-LIGAND FREE ENERGY PREDICTED BY IDOCK:   -0.15 KCAL/MOL
REMARK 927      BINDING AFFINITY PREDICTED BY RF-SCORE:    0.00 PKD
ROOT
HETATM    1  C   UNL     1      -8.375  15.533  68.744  1.00  0.00    -0.187 C  
HETATM    2  C   UNL     1      -9.330  14.379  68.475  1.00  0.00    -0.204 C  
ENDROOT
BRANCH   2   3
HETATM    3  C   UNL     1      -8.603  13.195  67.831  1.00  0.00    -0.185 C  
HETATM    4  C   UNL     1      -9.029  11.815  68.382  1.00  0.00    -0.168 C  
HETATM    5  C   UNL     1      -8.165  10.724  67.753  1.00  0.00    -0.112 C  
HETATM    6  C   UNL     1     -10.532  11.509  68.219  1.00  0.00    -0.219 C  
HETATM    7  O   UNL     1      -8.379   9.492  68.265  1.00  0.00    -0.116 OA 
HETATM    8  O   UNL     1      -7.320  10.914  66.891  1.00  0.00    -0.113 OA 
BRANCH   6   9
HETATM    9  C   UNL     1     -11.012  11.450  66.766  1.00  0.00    -0.347 C  
HETATM   10  C   UNL     1     -11.849  12.671  66.415  1.00  0.00    -0.466 C  
ENDBRANCH   6   9
ENDBRANCH   2   3
TORSDOF 2
ENDMDL
MODEL      183
REMARK 921   NORMALIZED FREE ENERGY PREDICTED BY IDOCK:   -1.71 KCAL/MOL
REMARK 922        TOTAL FREE ENERGY PREDICTED BY IDOCK:   -2.27 KCAL/MOL
REMARK 923 INTER-LIGAND FREE ENERGY PREDICTED BY IDOCK:   -1.98 KCAL/MOL
REMARK 924 INTRA-LIGAND FREE ENERGY PREDICTED BY IDOCK:   -0.29 KCAL/MOL
REMARK 927      BINDING AFFINITY PREDICTED BY RF-SCORE:    0.00 PKD
ROOT
HETATM    1  C   UNL     1     -10.002   7.438  66.795  1.00  0.00    -0.300 C  
HETATM    2  C   UNL     1     -10.617   7.147  68.156  1.00  0.00    -0.241 C  
ENDROOT
BRANCH   2   3
HETATM    3  C   UNL     1      -9.561   7.195  69.265  1.00  0.00    -0.155 C  
HETATM    4  C   UNL     1      -9.920   6.366  70.519  1.00  0.00    -0.214 C  
HETATM    5  C   UNL     1      -8.857   6.578  71.594  1.00  0.00    -0.135 C  
HETATM    6  C   UNL     1     -10.150   4.868  70.238  1.00  0.00    -0.322 C  
HETATM    7  O   UNL     1      -9.147   5.990  72.776  1.00  0.00    -0.131 OA 
HETATM    8  O   UNL     1      -7.840   7.241  71.448  1.00  0.00    -0.094 OA 
BRANCH   6   9
HETATM    9  C   UNL     1      -8.923   4.130  69.693  1.00  0.00    -0.160 C  
HETATM   10  C   UNL     1      -9.228   3.476  68.354  1.00  0.00    -0.225 C  
ENDBRANCH   6   9
ENDBRANCH   2   3
TORSDOF 2
ENDMDL
MODEL      184
REMARK 921   NORMALIZED FREE ENERGY PREDICTED BY IDOCK:   -1.71 KCAL/MOL
REMARK 922        TOTAL FREE ENERGY PREDICTED BY IDOCK:   -2.26 KCAL/MOL
REMARK 923 INTER-LIGAND FREE ENERGY PREDICTED BY IDOCK:   -2.25 KCAL/MOL
REMARK 924 INTRA-LIGAND FREE ENERGY PREDICTED BY IDOCK:   -0.01 KCAL/MOL
REMARK 927      BINDING AFFINITY PREDICTED BY RF-SCORE:    0.00 PKD
ROOT
HETATM    1  C   UNL     1     -11.900  12.170  67.817  1.00  0.00    -0.327 C  
HETATM    2  C   UNL     1     -11.364  12.102  69.239  1.00  0.00    -0.327 C  
ENDROOT
BRANCH   2   3
HETATM    3  C   UNL     1     -11.101  10.654  69.665  1.00  0.00    -0.342 C  
HETATM    4  C   UNL     1     -10.644   9.728  68.515  1.00  0.00    -0.252 C  
HETATM    5  C   UNL     1     -10.522   8.296  69.030  1.00  0.00    -0.197 C  
HETATM    6  C   UNL     1      -9.351  10.189  67.813  1.00  0.00    -0.153 C  
HETATM    7  O   UNL     1     -10.247   7.388  68.066  1.00  0.00    -0.175 OA 
HETATM    8  O   UNL     1     -10.687   7.956  70.192  1.00  0.00    -0.237 OA 
BRANCH   6   9
HETATM    9  C   UNL     1      -8.117  10.226  68.719  1.00  0.00    -0.120 C  
HETATM   10  C   UNL     1      -7.435  11.585  68.661  1.00  0.00    -0.116 C  
ENDBRANCH   6   9
ENDBRANCH   2   3
TORSDOF 2
ENDMDL
MODEL      185
REMARK 921   NORMALIZED FREE ENERGY PREDICTED BY IDOCK:   -1.69 KCAL/MOL
REMARK 922        TOTAL FREE ENERGY PREDICTED BY IDOCK:   -2.25 KCAL/MOL
REMARK 923 INTER-LIGAND FREE ENERGY PREDICTED BY IDOCK:   -2.00 KCAL/MOL
REMARK 924 INTRA-LIGAND FREE ENERGY PREDICTED BY IDOCK:   -0.25 KCAL/MOL
REMARK 927      BINDING AFFINITY PREDICTED BY RF-SCORE:    0.00 PKD
ROOT
HETATM    1  C   UNL     1      -6.803   5.055  70.883  1.00  0.00    -0.044 C  
HETATM    2  C   UNL     1      -8.306   5.279  70.801  1.00  0.00    -0.115 C  
ENDROOT
BRANCH   2   3
HETATM    3  C   UNL     1      -8.639   6.769  70.682  1.00  0.00    -0.142 C  
HETATM    4  C   UNL     1     -10.140   7.098  70.852  1.00  0.00    -0.200 C  
HETATM    5  C   UNL     1     -10.369   8.587  70.603  1.00  0.00    -0.199 C  
HETATM    6  C   UNL     1     -10.732   6.653  72.205  1.00  0.00    -0.250 C  
HETATM    7  O   UNL     1     -11.671   8.950  70.608  1.00  0.00    -0.264 OA 
HETATM    8  O   UNL     1      -9.485   9.401  70.380  1.00  0.00    -0.231 OA 
BRANCH   6   9
HETATM    9  C   UNL     1     -10.102   7.333  73.425  1.00  0.00    -0.367 C  
HETATM   10  C   UNL     1      -9.309   6.337  74.258  1.00  0.00    -0.185 C  
ENDBRANCH   6   9
ENDBRANCH   2   3
TORSDOF 2
ENDMDL
MODEL      186
REMARK 921   NORMALIZED FREE ENERGY PREDICTED BY IDOCK:   -1.69 KCAL/MOL
REMARK 922        TOTAL FREE ENERGY PREDICTED BY IDOCK:   -2.24 KCAL/MOL
REMARK 923 INTER-LIGAND FREE ENERGY PREDICTED BY IDOCK:   -2.00 KCAL/MOL
REMARK 924 INTRA-LIGAND FREE ENERGY PREDICTED BY IDOCK:   -0.24 KCAL/MOL
REMARK 927      BINDING AFFINITY PREDICTED BY RF-SCORE:    0.00 PKD
ROOT
HETATM    1  C   UNL     1      -6.639   5.298  68.939  1.00  0.00    -0.051 C  
HETATM    2  C   UNL     1      -8.105   4.993  68.665  1.00  0.00    -0.085 C  
ENDROOT
BRANCH   2   3
HETATM    3  C   UNL     1      -8.391   4.946  67.161  1.00  0.00    -0.106 C  
HETATM    4  C   UNL     1      -9.879   4.730  66.805  1.00  0.00    -0.227 C  
HETATM    5  C   UNL     1     -10.028   4.587  65.293  1.00  0.00    -0.162 C  
HETATM    6  C   UNL     1     -10.824   5.811  67.368  1.00  0.00    -0.279 C  
HETATM    7  O   UNL     1     -11.279   4.271  64.891  1.00  0.00    -0.296 OA 
HETATM    8  O   UNL     1      -9.116   4.706  64.488  1.00  0.00    -0.155 OA 
BRANCH   6   9
HETATM    9  C   UNL     1     -10.558   7.222  66.836  1.00  0.00    -0.375 C  
HETATM   10  C   UNL     1     -10.204   8.176  67.968  1.00  0.00    -0.263 C  
ENDBRANCH   6   9
ENDBRANCH   2   3
TORSDOF 2
ENDMDL
MODEL      187
REMARK 921   NORMALIZED FREE ENERGY PREDICTED BY IDOCK:   -1.69 KCAL/MOL
REMARK 922        TOTAL FREE ENERGY PREDICTED BY IDOCK:   -2.24 KCAL/MOL
REMARK 923 INTER-LIGAND FREE ENERGY PREDICTED BY IDOCK:   -1.94 KCAL/MOL
REMARK 924 INTRA-LIGAND FREE ENERGY PREDICTED BY IDOCK:   -0.30 KCAL/MOL
REMARK 927      BINDING AFFINITY PREDICTED BY RF-SCORE:    0.00 PKD
ROOT
HETATM    1  C   UNL     1      -7.060   8.042  69.945  1.00  0.00    -0.057 C  
HETATM    2  C   UNL     1      -7.176   7.170  68.703  1.00  0.00    -0.094 C  
ENDROOT
BRANCH   2   3
HETATM    3  C   UNL     1      -8.610   7.156  68.166  1.00  0.00    -0.129 C  
HETATM    4  C   UNL     1      -9.020   5.829  67.488  1.00  0.00    -0.107 C  
HETATM    5  C   UNL     1     -10.420   5.968  66.895  1.00  0.00    -0.280 C  
HETATM    6  C   UNL     1      -8.915   4.594  68.407  1.00  0.00    -0.140 C  
HETATM    7  O   UNL     1     -10.819   4.898  66.172  1.00  0.00    -0.289 OA 
HETATM    8  O   UNL     1     -11.131   6.955  67.010  1.00  0.00    -0.389 OA 
BRANCH   6   9
HETATM    9  C   UNL     1      -9.832   4.639  69.632  1.00  0.00    -0.293 C  
HETATM   10  C   UNL     1      -9.029   4.823  70.911  1.00  0.00    -0.160 C  
ENDBRANCH   6   9
ENDBRANCH   2   3
TORSDOF 2
ENDMDL
MODEL      188
REMARK 921   NORMALIZED FREE ENERGY PREDICTED BY IDOCK:   -1.67 KCAL/MOL
REMARK 922        TOTAL FREE ENERGY PREDICTED BY IDOCK:   -2.21 KCAL/MOL
REMARK 923 INTER-LIGAND FREE ENERGY PREDICTED BY IDOCK:   -1.93 KCAL/MOL
REMARK 924 INTRA-LIGAND FREE ENERGY PREDICTED BY IDOCK:   -0.29 KCAL/MOL
REMARK 927      BINDING AFFINITY PREDICTED BY RF-SCORE:    0.00 PKD
ROOT
HETATM    1  C   UNL     1      -8.099   6.485  64.948  1.00  0.00    -0.119 C  
HETATM    2  C   UNL     1      -7.619   6.742  66.369  1.00  0.00    -0.089 C  
ENDROOT
BRANCH   2   3
HETATM    3  C   UNL     1      -8.795   7.001  67.315  1.00  0.00    -0.119 C  
HETATM    4  C   UNL     1      -8.801   8.411  67.948  1.00  0.00    -0.138 C  
HETATM    5  C   UNL     1      -9.946   8.516  68.952  1.00  0.00    -0.190 C  
HETATM    6  C   UNL     1      -8.840   9.561  66.922  1.00  0.00    -0.140 C  
HETATM    7  O   UNL     1      -9.959   9.673  69.651  1.00  0.00    -0.193 OA 
HETATM    8  O   UNL     1     -10.774   7.641  69.160  1.00  0.00    -0.214 OA 
BRANCH   6   9
HETATM    9  C   UNL     1     -10.097   9.585  66.047  1.00  0.00    -0.319 C  
HETATM   10  C   UNL     1      -9.847  10.341  64.750  1.00  0.00    -0.403 C  
ENDBRANCH   6   9
ENDBRANCH   2   3
TORSDOF 2
ENDMDL
MODEL      189
REMARK 921   NORMALIZED FREE ENERGY PREDICTED BY IDOCK:   -1.66 KCAL/MOL
REMARK 922        TOTAL FREE ENERGY PREDICTED BY IDOCK:   -2.21 KCAL/MOL
REMARK 923 INTER-LIGAND FREE ENERGY PREDICTED BY IDOCK:   -2.00 KCAL/MOL
REMARK 924 INTRA-LIGAND FREE ENERGY PREDICTED BY IDOCK:   -0.21 KCAL/MOL
REMARK 927      BINDING AFFINITY PREDICTED BY RF-SCORE:    0.00 PKD
ROOT
HETATM    1  C   UNL     1      -9.081   2.743  64.750  1.00  0.00    -0.134 C  
HETATM    2  C   UNL     1      -9.143   3.120  66.223  1.00  0.00    -0.158 C  
ENDROOT
BRANCH   2   3
HETATM    3  C   UNL     1      -9.854   4.462  66.423  1.00  0.00    -0.245 C  
HETATM    4  C   UNL     1     -10.144   4.812  67.901  1.00  0.00    -0.119 C  
HETATM    5  C   UNL     1     -10.949   6.107  67.971  1.00  0.00    -0.305 C  
HETATM    6  C   UNL     1      -8.885   4.879  68.790  1.00  0.00    -0.114 C  
HETATM    7  O   UNL     1     -11.358   6.431  69.218  1.00  0.00    -0.379 OA 
HETATM    8  O   UNL     1     -11.248   6.796  67.007  1.00  0.00    -0.393 OA 
BRANCH   6   9
HETATM    9  C   UNL     1      -7.881   5.961  68.383  1.00  0.00    -0.105 C  
HETATM   10  C   UNL     1      -6.599   5.343  67.845  1.00  0.00    -0.050 C  
ENDBRANCH   6   9
ENDBRANCH   2   3
TORSDOF 2
ENDMDL
MODEL      190
REMARK 921   NORMALIZED FREE ENERGY PREDICTED BY IDOCK:   -1.66 KCAL/MOL
REMARK 922        TOTAL FREE ENERGY PREDICTED BY IDOCK:   -2.21 KCAL/MOL
REMARK 923 INTER-LIGAND FREE ENERGY PREDICTED BY IDOCK:   -1.96 KCAL/MOL
REMARK 924 INTRA-LIGAND FREE ENERGY PREDICTED BY IDOCK:   -0.24 KCAL/MOL
REMARK 927      BINDING AFFINITY PREDICTED BY RF-SCORE:    0.00 PKD
ROOT
HETATM    1  C   UNL     1      -9.149   8.879  66.555  1.00  0.00    -0.206 C  
HETATM    2  C   UNL     1     -10.263   8.554  67.539  1.00  0.00    -0.307 C  
ENDROOT
BRANCH   2   3
HETATM    3  C   UNL     1      -9.983   7.246  68.284  1.00  0.00    -0.177 C  
HETATM    4  C   UNL     1      -8.961   7.379  69.436  1.00  0.00    -0.139 C  
HETATM    5  C   UNL     1      -8.676   6.002  70.030  1.00  0.00    -0.135 C  
HETATM    6  C   UNL     1      -9.371   8.391  70.526  1.00  0.00    -0.177 C  
HETATM    7  O   UNL     1      -7.700   5.998  70.965  1.00  0.00    -0.097 OA 
HETATM    8  O   UNL     1      -9.232   4.968  69.691  1.00  0.00    -0.108 OA 
BRANCH   6   9
HETATM    9  C   UNL     1     -10.662   8.034  71.267  1.00  0.00    -0.265 C  
HETATM   10  C   UNL     1     -11.756   9.053  70.983  1.00  0.00    -0.353 C  
ENDBRANCH   6   9
ENDBRANCH   2   3
TORSDOF 2
ENDMDL
MODEL      191
REMARK 921   NORMALIZED FREE ENERGY PREDICTED BY IDOCK:   -1.66 KCAL/MOL
REMARK 922        TOTAL FREE ENERGY PREDICTED BY IDOCK:   -2.21 KCAL/MOL
REMARK 923 INTER-LIGAND FREE ENERGY PREDICTED BY IDOCK:   -1.95 KCAL/MOL
REMARK 924 INTRA-LIGAND FREE ENERGY PREDICTED BY IDOCK:   -0.25 KCAL/MOL
REMARK 927      BINDING AFFINITY PREDICTED BY RF-SCORE:    0.00 PKD
ROOT
HETATM    1  C   UNL     1      -7.890   5.246  71.175  1.00  0.00    -0.103 C  
HETATM    2  C   UNL     1      -9.298   5.548  70.682  1.00  0.00    -0.195 C  
ENDROOT
BRANCH   2   3
HETATM    3  C   UNL     1      -9.530   7.057  70.558  1.00  0.00    -0.166 C  
HETATM    4  C   UNL     1      -8.682   7.741  69.461  1.00  0.00    -0.135 C  
HETATM    5  C   UNL     1      -8.911   9.250  69.504  1.00  0.00    -0.151 C  
HETATM    6  C   UNL     1      -8.910   7.174  68.045  1.00  0.00    -0.129 C  
HETATM    7  O   UNL     1      -8.117   9.949  68.662  1.00  0.00    -0.094 OA 
HETATM    8  O   UNL     1      -9.703   9.814  70.244  1.00  0.00    -0.248 OA 
BRANCH   6   9
HETATM    9  C   UNL     1     -10.337   7.346  67.517  1.00  0.00    -0.320 C  
HETATM   10  C   UNL     1     -10.898   6.024  67.016  1.00  0.00    -0.413 C  
ENDBRANCH   6   9
ENDBRANCH   2   3
TORSDOF 2
ENDMDL
MODEL      192
REMARK 921   NORMALIZED FREE ENERGY PREDICTED BY IDOCK:   -1.66 KCAL/MOL
REMARK 922        TOTAL FREE ENERGY PREDICTED BY IDOCK:   -2.20 KCAL/MOL
REMARK 923 INTER-LIGAND FREE ENERGY PREDICTED BY IDOCK:   -2.01 KCAL/MOL
REMARK 924 INTRA-LIGAND FREE ENERGY PREDICTED BY IDOCK:   -0.20 KCAL/MOL
REMARK 927      BINDING AFFINITY PREDICTED BY RF-SCORE:    0.00 PKD
ROOT
HETATM    1  C   UNL     1      -9.852   9.574  70.654  1.00  0.00    -0.328 C  
HETATM    2  C   UNL     1     -10.915   8.546  70.293  1.00  0.00    -0.245 C  
ENDROOT
BRANCH   2   3
HETATM    3  C   UNL     1     -10.528   7.766  69.033  1.00  0.00    -0.215 C  
HETATM    4  C   UNL     1      -9.166   7.043  69.127  1.00  0.00    -0.138 C  
HETATM    5  C   UNL     1      -8.834   6.398  67.784  1.00  0.00    -0.112 C  
HETATM    6  C   UNL     1      -9.073   6.024  70.282  1.00  0.00    -0.159 C  
HETATM    7  O   UNL     1      -7.602   5.844  67.730  1.00  0.00    -0.087 OA 
HETATM    8  O   UNL     1      -9.574   6.393  66.811  1.00  0.00    -0.147 OA 
BRANCH   6   9
HETATM    9  C   UNL     1     -10.062   4.859  70.179  1.00  0.00    -0.332 C  
HETATM   10  C   UNL     1      -9.336   3.522  70.205  1.00  0.00    -0.244 C  
ENDBRANCH   6   9
ENDBRANCH   2   3
TORSDOF 2
ENDMDL
MODEL      193
REMARK 921   NORMALIZED FREE ENERGY PREDICTED BY IDOCK:   -1.63 KCAL/MOL
REMARK 922        TOTAL FREE ENERGY PREDICTED BY IDOCK:   -2.17 KCAL/MOL
REMARK 923 INTER-LIGAND FREE ENERGY PREDICTED BY IDOCK:   -1.96 KCAL/MOL
REMARK 924 INTRA-LIGAND FREE ENERGY PREDICTED BY IDOCK:   -0.21 KCAL/MOL
REMARK 927      BINDING AFFINITY PREDICTED BY RF-SCORE:    0.00 PKD
ROOT
HETATM    1  C   UNL     1      -9.282   2.969  69.018  1.00  0.00    -0.222 C  
HETATM    2  C   UNL     1      -8.770   4.215  69.725  1.00  0.00    -0.117 C  
ENDROOT
BRANCH   2   3
HETATM    3  C   UNL     1      -9.887   5.247  69.911  1.00  0.00    -0.282 C  
HETATM    4  C   UNL     1     -10.255   5.524  71.386  1.00  0.00    -0.275 C  
HETATM    5  C   UNL     1     -11.447   6.475  71.446  1.00  0.00    -0.309 C  
HETATM    6  C   UNL     1      -9.078   6.036  72.242  1.00  0.00    -0.141 C  
HETATM    7  O   UNL     1     -11.922   6.682  72.695  1.00  0.00    -0.114 OA 
HETATM    8  O   UNL     1     -11.974   6.995  70.474  1.00  0.00    -0.325 OA 
BRANCH   6   9
HETATM    9  C   UNL     1      -8.502   7.379  71.786  1.00  0.00    -0.115 C  
HETATM   10  C   UNL     1      -7.045   7.237  71.370  1.00  0.00    -0.064 C  
ENDBRANCH   6   9
ENDBRANCH   2   3
TORSDOF 2
ENDMDL
MODEL      194
REMARK 921   NORMALIZED FREE ENERGY PREDICTED BY IDOCK:   -1.61 KCAL/MOL
REMARK 922        TOTAL FREE ENERGY PREDICTED BY IDOCK:   -2.15 KCAL/MOL
REMARK 923 INTER-LIGAND FREE ENERGY PREDICTED BY IDOCK:   -1.89 KCAL/MOL
REMARK 924 INTRA-LIGAND FREE ENERGY PREDICTED BY IDOCK:   -0.26 KCAL/MOL
REMARK 927      BINDING AFFINITY PREDICTED BY RF-SCORE:    0.00 PKD
ROOT
HETATM    1  C   UNL     1     -10.378   7.981  68.759  1.00  0.00    -0.223 C  
HETATM    2  C   UNL     1     -10.513   7.601  67.292  1.00  0.00    -0.396 C  
ENDROOT
BRANCH   2   3
HETATM    3  C   UNL     1     -10.067   8.747  66.378  1.00  0.00    -0.313 C  
HETATM    4  C   UNL     1      -8.553   9.050  66.435  1.00  0.00    -0.136 C  
HETATM    5  C   UNL     1      -8.244  10.274  65.577  1.00  0.00    -0.158 C  
HETATM    6  C   UNL     1      -7.657   7.853  66.056  1.00  0.00    -0.086 C  
HETATM    7  O   UNL     1      -6.961  10.694  65.661  1.00  0.00    -0.136 OA 
HETATM    8  O   UNL     1      -9.061  10.870  64.892  1.00  0.00    -0.197 OA 
BRANCH   6   9
HETATM    9  C   UNL     1      -7.842   7.354  64.620  1.00  0.00    -0.123 C  
HETATM   10  C   UNL     1      -8.205   5.876  64.597  1.00  0.00    -0.120 C  
ENDBRANCH   6   9
ENDBRANCH   2   3
TORSDOF 2
ENDMDL
MODEL      195
REMARK 921   NORMALIZED FREE ENERGY PREDICTED BY IDOCK:   -1.60 KCAL/MOL
REMARK 922        TOTAL FREE ENERGY PREDICTED BY IDOCK:   -2.14 KCAL/MOL
REMARK 923 INTER-LIGAND FREE ENERGY PREDICTED BY IDOCK:   -1.93 KCAL/MOL
REMARK 924 INTRA-LIGAND FREE ENERGY PREDICTED BY IDOCK:   -0.21 KCAL/MOL
REMARK 927      BINDING AFFINITY PREDICTED BY RF-SCORE:    0.00 PKD
ROOT
HETATM    1  C   UNL     1     -10.189   4.041  73.332  1.00  0.00    -0.215 C  
HETATM    2  C   UNL     1     -10.032   5.540  73.121  1.00  0.00    -0.191 C  
ENDROOT
BRANCH   2   3
HETATM    3  C   UNL     1     -10.388   5.939  71.685  1.00  0.00    -0.268 C  
HETATM    4  C   UNL     1     -10.409   7.464  71.438  1.00  0.00    -0.208 C  
HETATM    5  C   UNL     1     -10.883   7.745  70.014  1.00  0.00    -0.241 C  
HETATM    6  C   UNL     1      -9.070   8.169  71.738  1.00  0.00    -0.229 C  
HETATM    7  O   UNL     1     -11.053   9.058  69.741  1.00  0.00    -0.206 OA 
HETATM    8  O   UNL     1     -11.131   6.888  69.180  1.00  0.00    -0.219 OA 
BRANCH   6   9
HETATM    9  C   UNL     1      -7.902   7.706  70.863  1.00  0.00    -0.090 C  
HETATM   10  C   UNL     1      -6.871   6.944  71.683  1.00  0.00    -0.065 C  
ENDBRANCH   6   9
ENDBRANCH   2   3
TORSDOF 2
ENDMDL
MODEL      196
REMARK 921   NORMALIZED FREE ENERGY PREDICTED BY IDOCK:   -1.60 KCAL/MOL
REMARK 922        TOTAL FREE ENERGY PREDICTED BY IDOCK:   -2.14 KCAL/MOL
REMARK 923 INTER-LIGAND FREE ENERGY PREDICTED BY IDOCK:   -1.88 KCAL/MOL
REMARK 924 INTRA-LIGAND FREE ENERGY PREDICTED BY IDOCK:   -0.26 KCAL/MOL
REMARK 927      BINDING AFFINITY PREDICTED BY RF-SCORE:    0.00 PKD
ROOT
HETATM    1  C   UNL     1      -9.320   8.754  71.806  1.00  0.00    -0.350 C  
HETATM    2  C   UNL     1      -9.036   7.300  71.458  1.00  0.00    -0.133 C  
ENDROOT
BRANCH   2   3
HETATM    3  C   UNL     1      -9.848   6.851  70.239  1.00  0.00    -0.186 C  
HETATM    4  C   UNL     1      -9.611   7.703  68.971  1.00  0.00    -0.151 C  
HETATM    5  C   UNL     1     -10.550   7.239  67.861  1.00  0.00    -0.202 C  
HETATM    6  C   UNL     1      -8.143   7.730  68.498  1.00  0.00    -0.123 C  
HETATM    7  O   UNL     1     -10.504   8.005  66.748  1.00  0.00    -0.330 OA 
HETATM    8  O   UNL     1     -11.314   6.289  67.945  1.00  0.00    -0.257 OA 
BRANCH   6   9
HETATM    9  C   UNL     1      -7.585   6.363  68.089  1.00  0.00    -0.103 C  
HETATM   10  C   UNL     1      -6.420   5.959  68.981  1.00  0.00    -0.049 C  
ENDBRANCH   6   9
ENDBRANCH   2   3
TORSDOF 2
ENDMDL
MODEL      197
REMARK 921   NORMALIZED FREE ENERGY PREDICTED BY IDOCK:   -1.59 KCAL/MOL
REMARK 922        TOTAL FREE ENERGY PREDICTED BY IDOCK:   -2.13 KCAL/MOL
REMARK 923 INTER-LIGAND FREE ENERGY PREDICTED BY IDOCK:   -1.97 KCAL/MOL
REMARK 924 INTRA-LIGAND FREE ENERGY PREDICTED BY IDOCK:   -0.16 KCAL/MOL
REMARK 927      BINDING AFFINITY PREDICTED BY RF-SCORE:    0.00 PKD
ROOT
HETATM    1  C   UNL     1      -8.046   6.857  63.550  1.00  0.00     0.004 C  
HETATM    2  C   UNL     1      -8.117   6.621  65.052  1.00  0.00    -0.124 C  
ENDROOT
BRANCH   2   3
HETATM    3  C   UNL     1      -8.117   7.945  65.822  1.00  0.00    -0.123 C  
HETATM    4  C   UNL     1      -9.516   8.578  65.994  1.00  0.00    -0.256 C  
HETATM    5  C   UNL     1      -9.382   9.939  66.673  1.00  0.00    -0.157 C  
HETATM    6  C   UNL     1     -10.529   7.677  66.730  1.00  0.00    -0.319 C  
HETATM    7  O   UNL     1     -10.542  10.628  66.756  1.00  0.00    -0.248 OA 
HETATM    8  O   UNL     1      -8.333  10.414  67.083  1.00  0.00    -0.125 OA 
BRANCH   6   9
HETATM    9  C   UNL     1     -10.140   7.334  68.171  1.00  0.00    -0.201 C  
HETATM   10  C   UNL     1     -11.007   6.211  68.720  1.00  0.00    -0.421 C  
ENDBRANCH   6   9
ENDBRANCH   2   3
TORSDOF 2
ENDMDL
MODEL      198
REMARK 921   NORMALIZED FREE ENERGY PREDICTED BY IDOCK:   -1.58 KCAL/MOL
REMARK 922        TOTAL FREE ENERGY PREDICTED BY IDOCK:   -2.12 KCAL/MOL
REMARK 923 INTER-LIGAND FREE ENERGY PREDICTED BY IDOCK:   -1.91 KCAL/MOL
REMARK 924 INTRA-LIGAND FREE ENERGY PREDICTED BY IDOCK:   -0.21 KCAL/MOL
REMARK 927      BINDING AFFINITY PREDICTED BY RF-SCORE:    0.00 PKD
ROOT
HETATM    1  C   UNL     1     -10.045  12.963  67.922  1.00  0.00    -0.232 C  
HETATM    2  C   UNL     1     -10.975  11.767  67.777  1.00  0.00    -0.277 C  
ENDROOT
BRANCH   2   3
HETATM    3  C   UNL     1     -10.378  10.708  66.845  1.00  0.00    -0.288 C  
HETATM    4  C   UNL     1      -9.092  10.041  67.384  1.00  0.00    -0.146 C  
HETATM    5  C   UNL     1      -8.527   9.093  66.330  1.00  0.00    -0.124 C  
HETATM    6  C   UNL     1      -9.273   9.335  68.743  1.00  0.00    -0.136 C  
HETATM    7  O   UNL     1      -7.333   8.554  66.660  1.00  0.00    -0.080 OA 
HETATM    8  O   UNL     1      -9.058   8.846  65.257  1.00  0.00    -0.203 OA 
BRANCH   6   9
HETATM    9  C   UNL     1     -10.267   8.170  68.723  1.00  0.00    -0.221 C  
HETATM   10  C   UNL     1     -10.992   8.046  70.055  1.00  0.00    -0.202 C  
ENDBRANCH   6   9
ENDBRANCH   2   3
TORSDOF 2
ENDMDL
MODEL      199
REMARK 921   NORMALIZED FREE ENERGY PREDICTED BY IDOCK:   -1.58 KCAL/MOL
REMARK 922        TOTAL FREE ENERGY PREDICTED BY IDOCK:   -2.12 KCAL/MOL
REMARK 923 INTER-LIGAND FREE ENERGY PREDICTED BY IDOCK:   -1.91 KCAL/MOL
REMARK 924 INTRA-LIGAND FREE ENERGY PREDICTED BY IDOCK:   -0.21 KCAL/MOL
REMARK 927      BINDING AFFINITY PREDICTED BY RF-SCORE:    0.00 PKD
ROOT
HETATM    1  C   UNL     1      -9.349   4.191  65.284  1.00  0.00    -0.164 C  
HETATM    2  C   UNL     1      -9.953   4.357  66.671  1.00  0.00    -0.234 C  
ENDROOT
BRANCH   2   3
HETATM    3  C   UNL     1      -9.578   5.711  67.282  1.00  0.00    -0.125 C  
HETATM    4  C   UNL     1     -10.562   6.212  68.364  1.00  0.00    -0.324 C  
HETATM    5  C   UNL     1     -10.154   7.612  68.817  1.00  0.00    -0.194 C  
HETATM    6  C   UNL     1     -10.722   5.253  69.561  1.00  0.00    -0.128 C  
HETATM    7  O   UNL     1     -11.026   8.187  69.675  1.00  0.00    -0.201 OA 
HETATM    8  O   UNL     1      -9.157   8.206  68.435  1.00  0.00    -0.137 OA 
BRANCH   6   9
HETATM    9  C   UNL     1      -9.437   5.022  70.362  1.00  0.00    -0.233 C  
HETATM   10  C   UNL     1      -8.973   3.577  70.248  1.00  0.00    -0.173 C  
ENDBRANCH   6   9
ENDBRANCH   2   3
TORSDOF 2
ENDMDL
MODEL      200
REMARK 921   NORMALIZED FREE ENERGY PREDICTED BY IDOCK:   -1.56 KCAL/MOL
REMARK 922        TOTAL FREE ENERGY PREDICTED BY IDOCK:   -2.10 KCAL/MOL
REMARK 923 INTER-LIGAND FREE ENERGY PREDICTED BY IDOCK:   -1.93 KCAL/MOL
REMARK 924 INTRA-LIGAND FREE ENERGY PREDICTED BY IDOCK:   -0.16 KCAL/MOL
REMARK 927      BINDING AFFINITY PREDICTED BY RF-SCORE:    0.00 PKD
ROOT
HETATM    1  C   UNL     1      -9.310   7.795  73.733  1.00  0.00    -0.286 C  
HETATM    2  C   UNL     1      -8.569   8.232  72.478  1.00  0.00    -0.273 C  
ENDROOT
BRANCH   2   3
HETATM    3  C   UNL     1      -8.779   7.236  71.334  1.00  0.00    -0.126 C  
HETATM    4  C   UNL     1     -10.016   7.530  70.455  1.00  0.00    -0.184 C  
HETATM    5  C   UNL     1     -10.189   6.417  69.425  1.00  0.00    -0.192 C  
HETATM    6  C   UNL     1      -9.997   8.921  69.789  1.00  0.00    -0.196 C  
HETATM    7  O   UNL     1     -11.318   6.522  68.688  1.00  0.00    -0.265 OA 
HETATM    8  O   UNL     1      -9.419   5.481  69.274  1.00  0.00    -0.121 OA 
BRANCH   6   9
HETATM    9  C   UNL     1      -8.837   9.138  68.812  1.00  0.00    -0.132 C  
HETATM   10  C   UNL     1      -9.300   9.885  67.570  1.00  0.00    -0.159 C  
ENDBRANCH   6   9
ENDBRANCH   2   3
TORSDOF 2
ENDMDL
MODEL      201
REMARK 921   NORMALIZED FREE ENERGY PREDICTED BY IDOCK:   -1.55 KCAL/MOL
REMARK 922        TOTAL FREE ENERGY PREDICTED BY IDOCK:   -2.08 KCAL/MOL
REMARK 923 INTER-LIGAND FREE ENERGY PREDICTED BY IDOCK:   -1.93 KCAL/MOL
REMARK 924 INTRA-LIGAND FREE ENERGY PREDICTED BY IDOCK:   -0.14 KCAL/MOL
REMARK 927      BINDING AFFINITY PREDICTED BY RF-SCORE:    0.00 PKD
ROOT
HETATM    1  C   UNL     1      -9.223   6.343  72.924  1.00  0.00    -0.140 C  
HETATM    2  C   UNL     1     -10.274   5.340  72.471  1.00  0.00    -0.237 C  
ENDROOT
BRANCH   2   3
HETATM    3  C   UNL     1     -10.716   5.612  71.030  1.00  0.00    -0.304 C  
HETATM    4  C   UNL     1      -9.552   5.719  70.019  1.00  0.00    -0.206 C  
HETATM    5  C   UNL     1     -10.100   6.101  68.647  1.00  0.00    -0.162 C  
HETATM    6  C   UNL     1      -8.666   4.459  69.945  1.00  0.00    -0.111 C  
HETATM    7  O   UNL     1      -9.144   6.340  67.721  1.00  0.00    -0.117 OA 
HETATM    8  O   UNL     1     -11.286   6.225  68.379  1.00  0.00    -0.335 OA 
BRANCH   6   9
HETATM    9  C   UNL     1      -9.398   3.198  69.475  1.00  0.00    -0.228 C  
HETATM   10  C   UNL     1      -8.610   1.945  69.827  1.00  0.00    -0.096 C  
ENDBRANCH   6   9
ENDBRANCH   2   3
TORSDOF 2
ENDMDL
MODEL      202
REMARK 921   NORMALIZED FREE ENERGY PREDICTED BY IDOCK:   -1.54 KCAL/MOL
REMARK 922        TOTAL FREE ENERGY PREDICTED BY IDOCK:   -2.07 KCAL/MOL
REMARK 923 INTER-LIGAND FREE ENERGY PREDICTED BY IDOCK:   -1.72 KCAL/MOL
REMARK 924 INTRA-LIGAND FREE ENERGY PREDICTED BY IDOCK:   -0.35 KCAL/MOL
REMARK 927      BINDING AFFINITY PREDICTED BY RF-SCORE:    0.00 PKD
ROOT
HETATM    1  C   UNL     1     -10.206   5.454  69.979  1.00  0.00    -0.349 C  
HETATM    2  C   UNL     1     -10.540   6.002  68.599  1.00  0.00    -0.327 C  
ENDROOT
BRANCH   2   3
HETATM    3  C   UNL     1     -10.120   5.025  67.497  1.00  0.00    -0.201 C  
HETATM    4  C   UNL     1      -9.442   5.695  66.280  1.00  0.00    -0.171 C  
HETATM    5  C   UNL     1      -9.171   4.647  65.204  1.00  0.00    -0.156 C  
HETATM    6  C   UNL     1      -8.168   6.491  66.629  1.00  0.00    -0.112 C  
HETATM    7  O   UNL     1      -8.691   5.158  64.048  1.00  0.00    -0.129 OA 
HETATM    8  O   UNL     1      -9.388   3.450  65.325  1.00  0.00    -0.149 OA 
BRANCH   6   9
HETATM    9  C   UNL     1      -7.035   5.645  67.216  1.00  0.00    -0.065 C  
HETATM   10  C   UNL     1      -6.715   6.071  68.641  1.00  0.00    -0.061 C  
ENDBRANCH   6   9
ENDBRANCH   2   3
TORSDOF 2
ENDMDL
MODEL      203
REMARK 921   NORMALIZED FREE ENERGY PREDICTED BY IDOCK:   -1.52 KCAL/MOL
REMARK 922        TOTAL FREE ENERGY PREDICTED BY IDOCK:   -2.05 KCAL/MOL
REMARK 923 INTER-LIGAND FREE ENERGY PREDICTED BY IDOCK:   -1.93 KCAL/MOL
REMARK 924 INTRA-LIGAND FREE ENERGY PREDICTED BY IDOCK:   -0.13 KCAL/MOL
REMARK 927      BINDING AFFINITY PREDICTED BY RF-SCORE:    0.00 PKD
ROOT
HETATM    1  C   UNL     1      -9.985   5.311  68.026  1.00  0.00    -0.202 C  
HETATM    2  C   UNL     1     -10.785   5.943  66.896  1.00  0.00    -0.395 C  
ENDROOT
BRANCH   2   3
HETATM    3  C   UNL     1     -10.933   7.454  67.098  1.00  0.00    -0.225 C  
HETATM    4  C   UNL     1      -9.599   8.195  67.344  1.00  0.00    -0.204 C  
HETATM    5  C   UNL     1      -9.878   9.666  67.643  1.00  0.00    -0.164 C  
HETATM    6  C   UNL     1      -8.570   8.033  66.207  1.00  0.00    -0.156 C  
HETATM    7  O   UNL     1      -8.780  10.372  67.994  1.00  0.00    -0.121 OA 
HETATM    8  O   UNL     1     -10.983  10.186  67.613  1.00  0.00    -0.289 OA 
BRANCH   6   9
HETATM    9  C   UNL     1      -9.023   8.603  64.859  1.00  0.00    -0.007 C  
HETATM   10  C   UNL     1      -8.232   9.853  64.501  1.00  0.00    -0.162 C  
ENDBRANCH   6   9
ENDBRANCH   2   3
TORSDOF 2
ENDMDL
MODEL      204
REMARK 921   NORMALIZED FREE ENERGY PREDICTED BY IDOCK:   -1.52 KCAL/MOL
REMARK 922        TOTAL FREE ENERGY PREDICTED BY IDOCK:   -2.05 KCAL/MOL
REMARK 923 INTER-LIGAND FREE ENERGY PREDICTED BY IDOCK:   -1.93 KCAL/MOL
REMARK 924 INTRA-LIGAND FREE ENERGY PREDICTED BY IDOCK:   -0.12 KCAL/MOL
REMARK 927      BINDING AFFINITY PREDICTED BY RF-SCORE:    0.00 PKD
ROOT
HETATM    1  C   UNL     1      -9.190   7.933  73.448  1.00  0.00    -0.351 C  
HETATM    2  C   UNL     1      -8.384   8.291  72.208  1.00  0.00    -0.229 C  
ENDROOT
BRANCH   2   3
HETATM    3  C   UNL     1      -9.179   8.010  70.929  1.00  0.00    -0.163 C  
HETATM    4  C   UNL     1      -9.489   9.269  70.087  1.00  0.00    -0.258 C  
HETATM    5  C   UNL     1     -10.376   8.887  68.904  1.00  0.00    -0.212 C  
HETATM    6  C   UNL     1      -8.237  10.044  69.629  1.00  0.00    -0.185 C  
HETATM    7  O   UNL     1     -10.804   9.942  68.176  1.00  0.00    -0.241 OA 
HETATM    8  O   UNL     1     -10.719   7.746  68.629  1.00  0.00    -0.159 OA 
BRANCH   6   9
HETATM    9  C   UNL     1      -7.304   9.251  68.709  1.00  0.00    -0.075 C  
HETATM   10  C   UNL     1      -6.477  10.182  67.834  1.00  0.00    -0.062 C  
ENDBRANCH   6   9
ENDBRANCH   2   3
TORSDOF 2
ENDMDL
MODEL      205
REMARK 921   NORMALIZED FREE ENERGY PREDICTED BY IDOCK:   -1.49 KCAL/MOL
REMARK 922        TOTAL FREE ENERGY PREDICTED BY IDOCK:   -2.02 KCAL/MOL
REMARK 923 INTER-LIGAND FREE ENERGY PREDICTED BY IDOCK:   -1.76 KCAL/MOL
REMARK 924 INTRA-LIGAND FREE ENERGY PREDICTED BY IDOCK:   -0.26 KCAL/MOL
REMARK 927      BINDING AFFINITY PREDICTED BY RF-SCORE:    0.00 PKD
ROOT
HETATM    1  C   UNL     1      -6.707   8.017  69.864  1.00  0.00    -0.037 C  
HETATM    2  C   UNL     1      -8.224   8.130  69.872  1.00  0.00    -0.118 C  
ENDROOT
BRANCH   2   3
HETATM    3  C   UNL     1      -8.698   9.294  68.996  1.00  0.00    -0.135 C  
HETATM    4  C   UNL     1      -8.389   9.122  67.492  1.00  0.00    -0.116 C  
HETATM    5  C   UNL     1      -8.802  10.383  66.737  1.00  0.00    -0.130 C  
HETATM    6  C   UNL     1      -9.009   7.857  66.863  1.00  0.00    -0.157 C  
HETATM    7  O   UNL     1      -8.458  10.378  65.430  1.00  0.00    -0.158 OA 
HETATM    8  O   UNL     1      -9.362  11.345  67.241  1.00  0.00    -0.165 OA 
BRANCH   6   9
HETATM    9  C   UNL     1     -10.540   7.821  66.894  1.00  0.00    -0.347 C  
HETATM   10  C   UNL     1     -11.044   6.547  67.555  1.00  0.00    -0.396 C  
ENDBRANCH   6   9
ENDBRANCH   2   3
TORSDOF 2
ENDMDL
MODEL      206
REMARK 921   NORMALIZED FREE ENERGY PREDICTED BY IDOCK:   -1.48 KCAL/MOL
REMARK 922        TOTAL FREE ENERGY PREDICTED BY IDOCK:   -2.01 KCAL/MOL
REMARK 923 INTER-LIGAND FREE ENERGY PREDICTED BY IDOCK:   -1.88 KCAL/MOL
REMARK 924 INTRA-LIGAND FREE ENERGY PREDICTED BY IDOCK:   -0.12 KCAL/MOL
REMARK 927      BINDING AFFINITY PREDICTED BY RF-SCORE:    0.00 PKD
ROOT
HETATM    1  C   UNL     1      -6.313  18.737  67.537  1.00  0.00    -0.192 C  
HETATM    2  C   UNL     1      -7.149  17.740  68.326  1.00  0.00    -0.230 C  
ENDROOT
BRANCH   2   3
HETATM    3  C   UNL     1      -6.909  16.307  67.841  1.00  0.00    -0.152 C  
HETATM    4  C   UNL     1      -7.698  15.233  68.623  1.00  0.00    -0.135 C  
HETATM    5  C   UNL     1      -7.297  13.844  68.132  1.00  0.00    -0.123 C  
HETATM    6  C   UNL     1      -9.227  15.425  68.588  1.00  0.00    -0.199 C  
HETATM    7  O   UNL     1      -7.843  12.831  68.841  1.00  0.00    -0.012 OA 
HETATM    8  O   UNL     1      -6.527  13.627  67.208  1.00  0.00    -0.279 OA 
BRANCH   6   9
HETATM    9  C   UNL     1      -9.844  15.337  67.188  1.00  0.00    -0.225 C  
HETATM   10  C   UNL     1     -11.327  15.007  67.263  1.00  0.00    -0.337 C  
ENDBRANCH   6   9
ENDBRANCH   2   3
TORSDOF 2
ENDMDL
MODEL      207
REMARK 921   NORMALIZED FREE ENERGY PREDICTED BY IDOCK:   -1.48 KCAL/MOL
REMARK 922        TOTAL FREE ENERGY PREDICTED BY IDOCK:   -2.00 KCAL/MOL
REMARK 923 INTER-LIGAND FREE ENERGY PREDICTED BY IDOCK:   -1.74 KCAL/MOL
REMARK 924 INTRA-LIGAND FREE ENERGY PREDICTED BY IDOCK:   -0.27 KCAL/MOL
REMARK 927      BINDING AFFINITY PREDICTED BY RF-SCORE:    0.00 PKD
ROOT
HETATM    1  C   UNL     1     -10.312   7.984  68.850  1.00  0.00    -0.222 C  
HETATM    2  C   UNL     1     -10.746   8.972  67.776  1.00  0.00    -0.217 C  
ENDROOT
BRANCH   2   3
HETATM    3  C   UNL     1     -10.097  10.343  67.987  1.00  0.00    -0.189 C  
HETATM    4  C   UNL     1      -8.564  10.356  67.787  1.00  0.00    -0.122 C  
HETATM    5  C   UNL     1      -8.015  11.738  68.131  1.00  0.00    -0.146 C  
HETATM    6  C   UNL     1      -8.109   9.899  66.386  1.00  0.00    -0.118 C  
HETATM    7  O   UNL     1      -6.666  11.815  68.106  1.00  0.00    -0.059 OA 
HETATM    8  O   UNL     1      -8.698  12.703  68.442  1.00  0.00    -0.175 OA 
BRANCH   6   9
HETATM    9  C   UNL     1      -8.601  10.788  65.240  1.00  0.00    -0.153 C  
HETATM   10  C   UNL     1      -9.480  10.003  64.277  1.00  0.00    -0.336 C  
ENDBRANCH   6   9
ENDBRANCH   2   3
TORSDOF 2
ENDMDL
MODEL      208
REMARK 921   NORMALIZED FREE ENERGY PREDICTED BY IDOCK:   -1.47 KCAL/MOL
REMARK 922        TOTAL FREE ENERGY PREDICTED BY IDOCK:   -1.99 KCAL/MOL
REMARK 923 INTER-LIGAND FREE ENERGY PREDICTED BY IDOCK:   -1.86 KCAL/MOL
REMARK 924 INTRA-LIGAND FREE ENERGY PREDICTED BY IDOCK:   -0.13 KCAL/MOL
REMARK 927      BINDING AFFINITY PREDICTED BY RF-SCORE:    0.00 PKD
ROOT
HETATM    1  C   UNL     1      -6.282  18.937  67.619  1.00  0.00    -0.206 C  
HETATM    2  C   UNL     1      -6.523  17.995  68.789  1.00  0.00    -0.228 C  
ENDROOT
BRANCH   2   3
HETATM    3  C   UNL     1      -7.171  16.687  68.325  1.00  0.00    -0.169 C  
HETATM    4  C   UNL     1      -6.179  15.514  68.153  1.00  0.00    -0.139 C  
HETATM    5  C   UNL     1      -6.913  14.303  67.583  1.00  0.00    -0.184 C  
HETATM    6  C   UNL     1      -5.403  15.153  69.436  1.00  0.00    -0.092 C  
HETATM    7  O   UNL     1      -6.105  13.263  67.280  1.00  0.00    -0.328 OA 
HETATM    8  O   UNL     1      -8.116  14.252  67.371  1.00  0.00    -0.177 OA 
BRANCH   6   9
HETATM    9  C   UNL     1      -6.284  14.676  70.594  1.00  0.00    -0.115 C  
HETATM   10  C   UNL     1      -5.443  14.063  71.705  1.00  0.00    -0.227 C  
ENDBRANCH   6   9
ENDBRANCH   2   3
TORSDOF 2
ENDMDL
MODEL      209
REMARK 921   NORMALIZED FREE ENERGY PREDICTED BY IDOCK:   -1.45 KCAL/MOL
REMARK 922        TOTAL FREE ENERGY PREDICTED BY IDOCK:   -1.97 KCAL/MOL
REMARK 923 INTER-LIGAND FREE ENERGY PREDICTED BY IDOCK:   -1.77 KCAL/MOL
REMARK 924 INTRA-LIGAND FREE ENERGY PREDICTED BY IDOCK:   -0.20 KCAL/MOL
REMARK 927      BINDING AFFINITY PREDICTED BY RF-SCORE:    0.00 PKD
ROOT
HETATM    1  C   UNL     1     -10.716  10.360  65.390  1.00  0.00     0.052 C  
HETATM    2  C   UNL     1      -9.922   9.478  66.343  1.00  0.00    -0.339 C  
ENDROOT
BRANCH   2   3
HETATM    3  C   UNL     1     -10.142   9.896  67.800  1.00  0.00    -0.221 C  
HETATM    4  C   UNL     1     -10.763   8.794  68.689  1.00  0.00    -0.109 C  
HETATM    5  C   UNL     1     -11.040   9.355  70.081  1.00  0.00    -0.242 C  
HETATM    6  C   UNL     1      -9.931   7.497  68.756  1.00  0.00    -0.175 C  
HETATM    7  O   UNL     1     -11.698   8.501  70.896  1.00  0.00    -0.281 OA 
HETATM    8  O   UNL     1     -10.742  10.481  70.451  1.00  0.00    -0.217 OA 
BRANCH   6   9
HETATM    9  C   UNL     1      -8.537   7.671  69.368  1.00  0.00    -0.136 C  
HETATM   10  C   UNL     1      -7.462   7.119  68.444  1.00  0.00    -0.106 C  
ENDBRANCH   6   9
ENDBRANCH   2   3
TORSDOF 2
ENDMDL
MODEL      210
REMARK 921   NORMALIZED FREE ENERGY PREDICTED BY IDOCK:   -1.43 KCAL/MOL
REMARK 922        TOTAL FREE ENERGY PREDICTED BY IDOCK:   -1.95 KCAL/MOL
REMARK 923 INTER-LIGAND FREE ENERGY PREDICTED BY IDOCK:   -1.79 KCAL/MOL
REMARK 924 INTRA-LIGAND FREE ENERGY PREDICTED BY IDOCK:   -0.15 KCAL/MOL
REMARK 927      BINDING AFFINITY PREDICTED BY RF-SCORE:    0.00 PKD
ROOT
HETATM    1  C   UNL     1     -12.271  10.982  69.769  1.00  0.00    -0.388 C  
HETATM    2  C   UNL     1     -11.362  10.010  70.506  1.00  0.00    -0.409 C  
ENDROOT
BRANCH   2   3
HETATM    3  C   UNL     1     -11.015   8.802  69.632  1.00  0.00    -0.114 C  
HETATM    4  C   UNL     1      -9.682   8.938  68.861  1.00  0.00    -0.173 C  
HETATM    5  C   UNL     1      -9.496   7.734  67.942  1.00  0.00    -0.144 C  
HETATM    6  C   UNL     1      -8.452   9.154  69.766  1.00  0.00    -0.140 C  
HETATM    7  O   UNL     1      -8.417   7.821  67.133  1.00  0.00    -0.122 OA 
HETATM    8  O   UNL     1     -10.253   6.775  67.887  1.00  0.00    -0.150 OA 
BRANCH   6   9
HETATM    9  C   UNL     1      -8.163   7.997  70.728  1.00  0.00    -0.113 C  
HETATM   10  C   UNL     1      -6.669   7.726  70.824  1.00  0.00    -0.038 C  
ENDBRANCH   6   9
ENDBRANCH   2   3
TORSDOF 2
ENDMDL
MODEL      211
REMARK 921   NORMALIZED FREE ENERGY PREDICTED BY IDOCK:   -1.40 KCAL/MOL
REMARK 922        TOTAL FREE ENERGY PREDICTED BY IDOCK:   -1.91 KCAL/MOL
REMARK 923 INTER-LIGAND FREE ENERGY PREDICTED BY IDOCK:   -1.62 KCAL/MOL
REMARK 924 INTRA-LIGAND FREE ENERGY PREDICTED BY IDOCK:   -0.29 KCAL/MOL
REMARK 927      BINDING AFFINITY PREDICTED BY RF-SCORE:    0.00 PKD
ROOT
HETATM    1  C   UNL     1      -8.878   8.856  69.273  1.00  0.00    -0.139 C  
HETATM    2  C   UNL     1      -9.839   7.686  69.428  1.00  0.00    -0.171 C  
ENDROOT
BRANCH   2   3
HETATM    3  C   UNL     1      -9.537   6.884  70.698  1.00  0.00    -0.171 C  
HETATM    4  C   UNL     1     -10.078   5.436  70.677  1.00  0.00    -0.300 C  
HETATM    5  C   UNL     1      -9.820   4.774  72.028  1.00  0.00    -0.176 C  
HETATM    6  C   UNL     1      -9.537   4.580  69.514  1.00  0.00    -0.266 C  
HETATM    7  O   UNL     1     -10.368   3.544  72.150  1.00  0.00    -0.133 OA 
HETATM    8  O   UNL     1      -9.210   5.290  72.953  1.00  0.00    -0.132 OA 
BRANCH   6   9
HETATM    9  C   UNL     1      -8.021   4.367  69.537  1.00  0.00    -0.060 C  
HETATM   10  C   UNL     1      -7.359   5.010  68.327  1.00  0.00    -0.074 C  
ENDBRANCH   6   9
ENDBRANCH   2   3
TORSDOF 2
ENDMDL
MODEL      212
REMARK 921   NORMALIZED FREE ENERGY PREDICTED BY IDOCK:   -1.35 KCAL/MOL
REMARK 922        TOTAL FREE ENERGY PREDICTED BY IDOCK:   -1.86 KCAL/MOL
REMARK 923 INTER-LIGAND FREE ENERGY PREDICTED BY IDOCK:   -1.59 KCAL/MOL
REMARK 924 INTRA-LIGAND FREE ENERGY PREDICTED BY IDOCK:   -0.27 KCAL/MOL
REMARK 927      BINDING AFFINITY PREDICTED BY RF-SCORE:    0.00 PKD
ROOT
HETATM    1  C   UNL     1     -10.487  11.452  64.916  1.00  0.00    -0.363 C  
HETATM    2  C   UNL     1      -9.129  11.048  65.474  1.00  0.00    -0.225 C  
ENDROOT
BRANCH   2   3
HETATM    3  C   UNL     1      -8.848   9.563  65.229  1.00  0.00    -0.220 C  
HETATM    4  C   UNL     1      -7.666   8.998  66.050  1.00  0.00    -0.095 C  
HETATM    5  C   UNL     1      -7.407   7.549  65.644  1.00  0.00    -0.067 C  
HETATM    6  C   UNL     1      -7.838   9.136  67.577  1.00  0.00    -0.100 C  
HETATM    7  O   UNL     1      -6.311   7.006  66.220  1.00  0.00    -0.047 OA 
HETATM    8  O   UNL     1      -8.084   6.917  64.848  1.00  0.00    -0.125 OA 
BRANCH   6   9
HETATM    9  C   UNL     1      -9.035   8.372  68.150  1.00  0.00    -0.139 C  
HETATM   10  C   UNL     1     -10.043   9.325  68.777  1.00  0.00    -0.210 C  
ENDBRANCH   6   9
ENDBRANCH   2   3
TORSDOF 2
ENDMDL
MODEL      213
REMARK 921   NORMALIZED FREE ENERGY PREDICTED BY IDOCK:   -1.33 KCAL/MOL
REMARK 922        TOTAL FREE ENERGY PREDICTED BY IDOCK:   -1.84 KCAL/MOL
REMARK 923 INTER-LIGAND FREE ENERGY PREDICTED BY IDOCK:   -1.61 KCAL/MOL
REMARK 924 INTRA-LIGAND FREE ENERGY PREDICTED BY IDOCK:   -0.23 KCAL/MOL
REMARK 927      BINDING AFFINITY PREDICTED BY RF-SCORE:    0.00 PKD
ROOT
HETATM    1  C   UNL     1      -8.411   9.721  63.630  1.00  0.00    -0.184 C  
HETATM    2  C   UNL     1      -8.596   9.140  65.025  1.00  0.00    -0.204 C  
ENDROOT
BRANCH   2   3
HETATM    3  C   UNL     1      -7.681   9.832  66.040  1.00  0.00    -0.104 C  
HETATM    4  C   UNL     1      -8.038  11.312  66.310  1.00  0.00    -0.108 C  
HETATM    5  C   UNL     1      -6.998  11.926  67.244  1.00  0.00    -0.145 C  
HETATM    6  C   UNL     1      -9.471  11.527  66.838  1.00  0.00    -0.194 C  
HETATM    7  O   UNL     1      -7.155  13.254  67.442  1.00  0.00    -0.159 OA 
HETATM    8  O   UNL     1      -6.073  11.315  67.757  1.00  0.00    -0.046 OA 
BRANCH   6   9
HETATM    9  C   UNL     1      -9.752  10.865  68.190  1.00  0.00    -0.174 C  
HETATM   10  C   UNL     1     -11.121  10.201  68.200  1.00  0.00    -0.290 C  
ENDBRANCH   6   9
ENDBRANCH   2   3
TORSDOF 2
ENDMDL
MODEL      214
REMARK 921   NORMALIZED FREE ENERGY PREDICTED BY IDOCK:   -1.33 KCAL/MOL
REMARK 922        TOTAL FREE ENERGY PREDICTED BY IDOCK:   -1.84 KCAL/MOL
REMARK 923 INTER-LIGAND FREE ENERGY PREDICTED BY IDOCK:   -1.64 KCAL/MOL
REMARK 924 INTRA-LIGAND FREE ENERGY PREDICTED BY IDOCK:   -0.20 KCAL/MOL
REMARK 927      BINDING AFFINITY PREDICTED BY RF-SCORE:    0.00 PKD
ROOT
HETATM    1  C   UNL     1      -8.486   7.332  65.765  1.00  0.00    -0.148 C  
HETATM    2  C   UNL     1      -7.639   7.252  67.027  1.00  0.00    -0.106 C  
ENDROOT
BRANCH   2   3
HETATM    3  C   UNL     1      -8.460   7.609  68.270  1.00  0.00    -0.125 C  
HETATM    4  C   UNL     1      -9.687   6.698  68.503  1.00  0.00    -0.131 C  
HETATM    5  C   UNL     1     -10.487   7.214  69.696  1.00  0.00    -0.229 C  
HETATM    6  C   UNL     1      -9.340   5.204  68.658  1.00  0.00    -0.164 C  
HETATM    7  O   UNL     1     -11.649   6.555  69.904  1.00  0.00    -0.409 OA 
HETATM    8  O   UNL     1     -10.160   8.157  70.401  1.00  0.00    -0.191 OA 
BRANCH   6   9
HETATM    9  C   UNL     1      -8.453   4.882  69.864  1.00  0.00    -0.088 C  
HETATM   10  C   UNL     1      -7.584   3.662  69.595  1.00  0.00    -0.051 C  
ENDBRANCH   6   9
ENDBRANCH   2   3
TORSDOF 2
ENDMDL
MODEL      215
REMARK 921   NORMALIZED FREE ENERGY PREDICTED BY IDOCK:   -1.29 KCAL/MOL
REMARK 922        TOTAL FREE ENERGY PREDICTED BY IDOCK:   -1.79 KCAL/MOL
REMARK 923 INTER-LIGAND FREE ENERGY PREDICTED BY IDOCK:   -1.44 KCAL/MOL
REMARK 924 INTRA-LIGAND FREE ENERGY PREDICTED BY IDOCK:   -0.36 KCAL/MOL
REMARK 927      BINDING AFFINITY PREDICTED BY RF-SCORE:    0.00 PKD
ROOT
HETATM    1  C   UNL     1      -9.479   6.516  68.125  1.00  0.00    -0.114 C  
HETATM    2  C   UNL     1     -10.437   5.650  67.321  1.00  0.00    -0.322 C  
ENDROOT
BRANCH   2   3
HETATM    3  C   UNL     1      -9.805   4.299  66.972  1.00  0.00    -0.216 C  
HETATM    4  C   UNL     1      -9.679   4.031  65.454  1.00  0.00    -0.196 C  
HETATM    5  C   UNL     1      -9.145   2.620  65.226  1.00  0.00    -0.138 C  
HETATM    6  C   UNL     1      -8.842   5.083  64.698  1.00  0.00    -0.114 C  
HETATM    7  O   UNL     1      -9.116   2.247  63.928  1.00  0.00    -0.095 OA 
HETATM    8  O   UNL     1      -8.798   1.853  66.113  1.00  0.00    -0.118 OA 
BRANCH   6   9
HETATM    9  C   UNL     1      -7.379   5.166  65.143  1.00  0.00    -0.068 C  
HETATM   10  C   UNL     1      -6.956   6.610  65.365  1.00  0.00    -0.056 C  
ENDBRANCH   6   9
ENDBRANCH   2   3
TORSDOF 2
ENDMDL
MODEL      216
REMARK 921   NORMALIZED FREE ENERGY PREDICTED BY IDOCK:   -1.28 KCAL/MOL
REMARK 922        TOTAL FREE ENERGY PREDICTED BY IDOCK:   -1.78 KCAL/MOL
REMARK 923 INTER-LIGAND FREE ENERGY PREDICTED BY IDOCK:   -1.56 KCAL/MOL
REMARK 924 INTRA-LIGAND FREE ENERGY PREDICTED BY IDOCK:   -0.23 KCAL/MOL
REMARK 927      BINDING AFFINITY PREDICTED BY RF-SCORE:    0.00 PKD
ROOT
HETATM    1  C   UNL     1      -9.345  14.200  68.044  1.00  0.00    -0.203 C  
HETATM    2  C   UNL     1      -8.292  13.111  68.197  1.00  0.00    -0.161 C  
ENDROOT
BRANCH   2   3
HETATM    3  C   UNL     1      -8.935  11.722  68.260  1.00  0.00    -0.180 C  
HETATM    4  C   UNL     1      -9.166  11.068  66.880  1.00  0.00    -0.168 C  
HETATM    5  C   UNL     1      -9.909   9.746  67.058  1.00  0.00    -0.193 C  
HETATM    6  C   UNL     1      -7.880  10.886  66.047  1.00  0.00    -0.121 C  
HETATM    7  O   UNL     1     -10.267   9.156  65.895  1.00  0.00    -0.209 OA 
HETATM    8  O   UNL     1     -10.203   9.251  68.136  1.00  0.00    -0.186 OA 
BRANCH   6   9
HETATM    9  C   UNL     1      -6.840   9.961  66.683  1.00  0.00    -0.084 C  
HETATM   10  C   UNL     1      -5.475  10.630  66.742  1.00  0.00    -0.051 C  
ENDBRANCH   6   9
ENDBRANCH   2   3
TORSDOF 2
ENDMDL
MODEL      217
REMARK 921   NORMALIZED FREE ENERGY PREDICTED BY IDOCK:   -1.26 KCAL/MOL
REMARK 922        TOTAL FREE ENERGY PREDICTED BY IDOCK:   -1.76 KCAL/MOL
REMARK 923 INTER-LIGAND FREE ENERGY PREDICTED BY IDOCK:   -1.63 KCAL/MOL
REMARK 924 INTRA-LIGAND FREE ENERGY PREDICTED BY IDOCK:   -0.13 KCAL/MOL
REMARK 927      BINDING AFFINITY PREDICTED BY RF-SCORE:    0.00 PKD
ROOT
HETATM    1  C   UNL     1      -7.366  13.943  67.654  1.00  0.00    -0.186 C  
HETATM    2  C   UNL     1      -6.698  12.581  67.768  1.00  0.00    -0.123 C  
ENDROOT
BRANCH   2   3
HETATM    3  C   UNL     1      -7.279  11.591  66.754  1.00  0.00    -0.111 C  
HETATM    4  C   UNL     1      -8.233  10.541  67.367  1.00  0.00    -0.118 C  
HETATM    5  C   UNL     1      -8.659   9.545  66.291  1.00  0.00    -0.130 C  
HETATM    6  C   UNL     1      -9.452  11.146  68.092  1.00  0.00    -0.180 C  
HETATM    7  O   UNL     1      -9.397   8.514  66.758  1.00  0.00    -0.158 OA 
HETATM    8  O   UNL     1      -8.350   9.619  65.111  1.00  0.00    -0.124 OA 
BRANCH   6   9
HETATM    9  C   UNL     1     -10.387  11.956  67.189  1.00  0.00    -0.235 C  
HETATM   10  C   UNL     1     -11.830  11.853  67.660  1.00  0.00    -0.265 C  
ENDBRANCH   6   9
ENDBRANCH   2   3
TORSDOF 2
ENDMDL
MODEL      218
REMARK 921   NORMALIZED FREE ENERGY PREDICTED BY IDOCK:   -1.26 KCAL/MOL
REMARK 922        TOTAL FREE ENERGY PREDICTED BY IDOCK:   -1.76 KCAL/MOL
REMARK 923 INTER-LIGAND FREE ENERGY PREDICTED BY IDOCK:   -1.73 KCAL/MOL
REMARK 924 INTRA-LIGAND FREE ENERGY PREDICTED BY IDOCK:   -0.03 KCAL/MOL
REMARK 927      BINDING AFFINITY PREDICTED BY RF-SCORE:    0.00 PKD
ROOT
HETATM    1  C   UNL     1      -9.793   9.787  70.255  1.00  0.00    -0.296 C  
HETATM    2  C   UNL     1     -10.859   9.306  69.282  1.00  0.00    -0.170 C  
ENDROOT
BRANCH   2   3
HETATM    3  C   UNL     1     -10.298   9.175  67.862  1.00  0.00    -0.285 C  
HETATM    4  C   UNL     1      -8.881   8.560  67.796  1.00  0.00    -0.137 C  
HETATM    5  C   UNL     1      -8.381   8.583  66.353  1.00  0.00    -0.114 C  
HETATM    6  C   UNL     1      -8.778   7.149  68.409  1.00  0.00    -0.125 C  
HETATM    7  O   UNL     1      -7.099   8.178  66.210  1.00  0.00    -0.071 OA 
HETATM    8  O   UNL     1      -9.037   8.959  65.394  1.00  0.00    -0.206 OA 
BRANCH   6   9
HETATM    9  C   UNL     1      -9.633   6.090  67.705  1.00  0.00    -0.113 C  
HETATM   10  C   UNL     1      -9.678   4.800  68.510  1.00  0.00    -0.215 C  
ENDBRANCH   6   9
ENDBRANCH   2   3
TORSDOF 2
ENDMDL
MODEL      219
REMARK 921   NORMALIZED FREE ENERGY PREDICTED BY IDOCK:   -1.24 KCAL/MOL
REMARK 922        TOTAL FREE ENERGY PREDICTED BY IDOCK:   -1.74 KCAL/MOL
REMARK 923 INTER-LIGAND FREE ENERGY PREDICTED BY IDOCK:   -1.39 KCAL/MOL
REMARK 924 INTRA-LIGAND FREE ENERGY PREDICTED BY IDOCK:   -0.35 KCAL/MOL
REMARK 927      BINDING AFFINITY PREDICTED BY RF-SCORE:    0.00 PKD
ROOT
HETATM    1  C   UNL     1     -10.613   6.956  68.431  1.00  0.00    -0.249 C  
HETATM    2  C   UNL     1      -9.178   6.470  68.288  1.00  0.00    -0.116 C  
ENDROOT
BRANCH   2   3
HETATM    3  C   UNL     1      -9.092   4.946  68.409  1.00  0.00    -0.141 C  
HETATM    4  C   UNL     1      -8.212   4.451  69.579  1.00  0.00    -0.065 C  
HETATM    5  C   UNL     1      -8.110   2.928  69.533  1.00  0.00    -0.047 C  
HETATM    6  C   UNL     1      -8.673   4.945  70.965  1.00  0.00    -0.143 C  
HETATM    7  O   UNL     1      -7.258   2.408  70.445  1.00  0.00    -0.033 OA 
HETATM    8  O   UNL     1      -8.699   2.213  68.736  1.00  0.00    -0.067 OA 
BRANCH   6   9
HETATM    9  C   UNL     1     -10.069   4.468  71.375  1.00  0.00    -0.230 C  
HETATM   10  C   UNL     1     -10.924   5.630  71.859  1.00  0.00    -0.297 C  
ENDBRANCH   6   9
ENDBRANCH   2   3
TORSDOF 2
ENDMDL
MODEL      220
REMARK 921   NORMALIZED FREE ENERGY PREDICTED BY IDOCK:   -1.24 KCAL/MOL
REMARK 922        TOTAL FREE ENERGY PREDICTED BY IDOCK:   -1.74 KCAL/MOL
REMARK 923 INTER-LIGAND FREE ENERGY PREDICTED BY IDOCK:   -1.38 KCAL/MOL
REMARK 924 INTRA-LIGAND FREE ENERGY PREDICTED BY IDOCK:   -0.35 KCAL/MOL
REMARK 927      BINDING AFFINITY PREDICTED BY RF-SCORE:    0.00 PKD
ROOT
HETATM    1  C   UNL     1      -6.721  10.388  70.171  1.00  0.00    -0.150 C  
HETATM    2  C   UNL     1      -7.955  10.422  69.280  1.00  0.00    -0.157 C  
ENDROOT
BRANCH   2   3
HETATM    3  C   UNL     1      -9.099   9.602  69.885  1.00  0.00    -0.250 C  
HETATM    4  C   UNL     1      -9.674   8.523  68.940  1.00  0.00    -0.172 C  
HETATM    5  C   UNL     1     -10.874   7.851  69.602  1.00  0.00    -0.176 C  
HETATM    6  C   UNL     1      -8.637   7.487  68.462  1.00  0.00    -0.129 C  
HETATM    7  O   UNL     1     -11.524   6.976  68.801  1.00  0.00     0.080 OA 
HETATM    8  O   UNL     1     -11.265   8.082  70.736  1.00  0.00    -0.261 OA 
BRANCH   6   9
HETATM    9  C   UNL     1      -8.017   6.649  69.584  1.00  0.00    -0.124 C  
HETATM   10  C   UNL     1      -6.501   6.770  69.585  1.00  0.00    -0.044 C  
ENDBRANCH   6   9
ENDBRANCH   2   3
TORSDOF 2
ENDMDL
MODEL      221
REMARK 921   NORMALIZED FREE ENERGY PREDICTED BY IDOCK:   -1.24 KCAL/MOL
REMARK 922        TOTAL FREE ENERGY PREDICTED BY IDOCK:   -1.73 KCAL/MOL
REMARK 923 INTER-LIGAND FREE ENERGY PREDICTED BY IDOCK:   -1.47 KCAL/MOL
REMARK 924 INTRA-LIGAND FREE ENERGY PREDICTED BY IDOCK:   -0.26 KCAL/MOL
REMARK 927      BINDING AFFINITY PREDICTED BY RF-SCORE:    0.00 PKD
ROOT
HETATM    1  C   UNL     1      -9.401   1.507  68.150  1.00  0.00    -0.228 C  
HETATM    2  C   UNL     1      -9.000   2.092  69.496  1.00  0.00    -0.156 C  
ENDROOT
BRANCH   2   3
HETATM    3  C   UNL     1      -9.660   3.455  69.728  1.00  0.00    -0.180 C  
HETATM    4  C   UNL     1      -8.660   4.615  69.937  1.00  0.00    -0.096 C  
HETATM    5  C   UNL     1      -9.423   5.895  70.269  1.00  0.00    -0.162 C  
HETATM    6  C   UNL     1      -7.686   4.826  68.760  1.00  0.00    -0.072 C  
HETATM    7  O   UNL     1      -8.629   6.940  70.591  1.00  0.00    -0.138 OA 
HETATM    8  O   UNL     1     -10.641   5.996  70.288  1.00  0.00    -0.229 OA 
BRANCH   6   9
HETATM    9  C   UNL     1      -8.362   5.206  67.440  1.00  0.00    -0.106 C  
HETATM   10  C   UNL     1      -7.890   6.568  66.954  1.00  0.00    -0.107 C  
ENDBRANCH   6   9
ENDBRANCH   2   3
TORSDOF 2
ENDMDL
MODEL      222
REMARK 921   NORMALIZED FREE ENERGY PREDICTED BY IDOCK:   -1.22 KCAL/MOL
REMARK 922        TOTAL FREE ENERGY PREDICTED BY IDOCK:   -1.72 KCAL/MOL
REMARK 923 INTER-LIGAND FREE ENERGY PREDICTED BY IDOCK:   -1.42 KCAL/MOL
REMARK 924 INTRA-LIGAND FREE ENERGY PREDICTED BY IDOCK:   -0.30 KCAL/MOL
REMARK 927      BINDING AFFINITY PREDICTED BY RF-SCORE:    0.00 PKD
ROOT
HETATM    1  C   UNL     1     -11.027  10.335  70.178  1.00  0.00    -0.377 C  
HETATM    2  C   UNL     1     -10.686   8.999  69.535  1.00  0.00    -0.215 C  
ENDROOT
BRANCH   2   3
HETATM    3  C   UNL     1      -9.312   8.497  69.990  1.00  0.00    -0.164 C  
HETATM    4  C   UNL     1      -8.615   7.557  68.981  1.00  0.00    -0.136 C  
HETATM    5  C   UNL     1      -7.314   7.033  69.585  1.00  0.00    -0.086 C  
HETATM    6  C   UNL     1      -8.381   8.186  67.593  1.00  0.00    -0.127 C  
HETATM    7  O   UNL     1      -6.691   6.104  68.826  1.00  0.00    -0.056 OA 
HETATM    8  O   UNL     1      -6.862   7.372  70.669  1.00  0.00    -0.047 OA 
BRANCH   6   9
HETATM    9  C   UNL     1      -7.459   9.409  67.600  1.00  0.00    -0.087 C  
HETATM   10  C   UNL     1      -8.203  10.658  67.152  1.00  0.00    -0.121 C  
ENDBRANCH   6   9
ENDBRANCH   2   3
TORSDOF 2
ENDMDL
MODEL      223
REMARK 921   NORMALIZED FREE ENERGY PREDICTED BY IDOCK:   -1.22 KCAL/MOL
REMARK 922        TOTAL FREE ENERGY PREDICTED BY IDOCK:   -1.71 KCAL/MOL
REMARK 923 INTER-LIGAND FREE ENERGY PREDICTED BY IDOCK:   -1.58 KCAL/MOL
REMARK 924 INTRA-LIGAND FREE ENERGY PREDICTED BY IDOCK:   -0.13 KCAL/MOL
REMARK 927      BINDING AFFINITY PREDICTED BY RF-SCORE:    0.00 PKD
ROOT
HETATM    1  C   UNL     1     -10.546   9.491  70.796  1.00  0.00    -0.387 C  
HETATM    2  C   UNL     1     -10.502   8.298  71.739  1.00  0.00    -0.325 C  
ENDROOT
BRANCH   2   3
HETATM    3  C   UNL     1      -9.476   7.260  71.274  1.00  0.00    -0.156 C  
HETATM    4  C   UNL     1      -8.389   6.930  72.321  1.00  0.00    -0.106 C  
HETATM    5  C   UNL     1      -7.364   5.977  71.712  1.00  0.00    -0.093 C  
HETATM    6  C   UNL     1      -8.943   6.388  73.655  1.00  0.00    -0.134 C  
HETATM    7  O   UNL     1      -6.304   5.726  72.512  1.00  0.00    -0.049 OA 
HETATM    8  O   UNL     1      -7.441   5.492  70.593  1.00  0.00    -0.079 OA 
BRANCH   6   9
HETATM    9  C   UNL     1      -9.699   5.062  73.532  1.00  0.00    -0.152 C  
HETATM   10  C   UNL     1      -8.942   3.934  74.217  1.00  0.00    -0.098 C  
ENDBRANCH   6   9
ENDBRANCH   2   3
TORSDOF 2
ENDMDL
MODEL      224
REMARK 921   NORMALIZED FREE ENERGY PREDICTED BY IDOCK:   -1.20 KCAL/MOL
REMARK 922        TOTAL FREE ENERGY PREDICTED BY IDOCK:   -1.69 KCAL/MOL
REMARK 923 INTER-LIGAND FREE ENERGY PREDICTED BY IDOCK:   -2.30 KCAL/MOL
REMARK 924 INTRA-LIGAND FREE ENERGY PREDICTED BY IDOCK:    0.61 KCAL/MOL
REMARK 927      BINDING AFFINITY PREDICTED BY RF-SCORE:    0.00 PKD
ROOT
HETATM    1  C   UNL     1      -8.830   8.139  73.738  1.00  0.00    -0.265 C  
HETATM    2  C   UNL     1      -7.847   8.634  72.688  1.00  0.00     0.002 C  
ENDROOT
BRANCH   2   3
HETATM    3  C   UNL     1      -8.317   8.276  71.274  1.00  0.00    -0.156 C  
HETATM    4  C   UNL     1      -9.720   7.631  71.217  1.00  0.00    -0.176 C  
HETATM    5  C   UNL     1     -10.034   7.216  69.782  1.00  0.00    -0.178 C  
HETATM    6  C   UNL     1     -10.840   8.509  71.810  1.00  0.00    -0.374 C  
HETATM    7  O   UNL     1     -11.191   6.529  69.650  1.00  0.00    -0.337 OA 
HETATM    8  O   UNL     1      -9.313   7.433  68.819  1.00  0.00    -0.144 OA 
BRANCH   6   9
HETATM    9  C   UNL     1     -11.056   9.838  71.080  1.00  0.00    -0.431 C  
HETATM   10  C   UNL     1     -12.245  10.593  71.656  1.00  0.00    -0.243 C  
ENDBRANCH   6   9
ENDBRANCH   2   3
TORSDOF 2
ENDMDL
MODEL      225
REMARK 921   NORMALIZED FREE ENERGY PREDICTED BY IDOCK:   -1.19 KCAL/MOL
REMARK 922        TOTAL FREE ENERGY PREDICTED BY IDOCK:   -1.68 KCAL/MOL
REMARK 923 INTER-LIGAND FREE ENERGY PREDICTED BY IDOCK:   -1.43 KCAL/MOL
REMARK 924 INTRA-LIGAND FREE ENERGY PREDICTED BY IDOCK:   -0.25 KCAL/MOL
REMARK 927      BINDING AFFINITY PREDICTED BY RF-SCORE:    0.00 PKD
ROOT
HETATM    1  C   UNL     1      -9.459   7.192  66.470  1.00  0.00    -0.208 C  
HETATM    2  C   UNL     1      -8.345   7.474  67.467  1.00  0.00    -0.117 C  
ENDROOT
BRANCH   2   3
HETATM    3  C   UNL     1      -7.580   8.749  67.099  1.00  0.00    -0.088 C  
HETATM    4  C   UNL     1      -8.323  10.058  67.450  1.00  0.00    -0.118 C  
HETATM    5  C   UNL     1      -7.522  11.253  66.939  1.00  0.00    -0.145 C  
HETATM    6  C   UNL     1      -8.665  10.205  68.947  1.00  0.00    -0.149 C  
HETATM    7  O   UNL     1      -8.151  12.440  67.089  1.00  0.00    -0.178 OA 
HETATM    8  O   UNL     1      -6.426  11.181  66.404  1.00  0.00    -0.128 OA 
BRANCH   6   9
HETATM    9  C   UNL     1      -7.446  10.256  69.872  1.00  0.00    -0.165 C  
HETATM   10  C   UNL     1      -7.489   9.131  70.896  1.00  0.00    -0.136 C  
ENDBRANCH   6   9
ENDBRANCH   2   3
TORSDOF 2
ENDMDL
MODEL      226
REMARK 921   NORMALIZED FREE ENERGY PREDICTED BY IDOCK:   -1.19 KCAL/MOL
REMARK 922        TOTAL FREE ENERGY PREDICTED BY IDOCK:   -1.68 KCAL/MOL
REMARK 923 INTER-LIGAND FREE ENERGY PREDICTED BY IDOCK:   -1.51 KCAL/MOL
REMARK 924 INTRA-LIGAND FREE ENERGY PREDICTED BY IDOCK:   -0.17 KCAL/MOL
REMARK 927      BINDING AFFINITY PREDICTED BY RF-SCORE:    0.00 PKD
ROOT
HETATM    1  C   UNL     1      -6.777   7.147  73.266  1.00  0.00    -0.065 C  
HETATM    2  C   UNL     1      -6.844   6.763  71.794  1.00  0.00    -0.069 C  
ENDROOT
BRANCH   2   3
HETATM    3  C   UNL     1      -8.040   5.848  71.513  1.00  0.00    -0.115 C  
HETATM    4  C   UNL     1      -9.218   6.547  70.797  1.00  0.00    -0.156 C  
HETATM    5  C   UNL     1     -10.389   5.576  70.671  1.00  0.00    -0.262 C  
HETATM    6  C   UNL     1      -8.846   7.166  69.433  1.00  0.00    -0.136 C  
HETATM    7  O   UNL     1     -11.513   6.134  70.167  1.00  0.00    -0.391 OA 
HETATM    8  O   UNL     1     -10.364   4.405  71.017  1.00  0.00    -0.109 OA 
BRANCH   6   9
HETATM    9  C   UNL     1      -8.375   6.152  68.387  1.00  0.00    -0.114 C  
HETATM   10  C   UNL     1      -7.382   6.783  67.422  1.00  0.00    -0.095 C  
ENDBRANCH   6   9
ENDBRANCH   2   3
TORSDOF 2
ENDMDL
MODEL      227
REMARK 921   NORMALIZED FREE ENERGY PREDICTED BY IDOCK:   -1.19 KCAL/MOL
REMARK 922        TOTAL FREE ENERGY PREDICTED BY IDOCK:   -1.68 KCAL/MOL
REMARK 923 INTER-LIGAND FREE ENERGY PREDICTED BY IDOCK:   -1.44 KCAL/MOL
REMARK 924 INTRA-LIGAND FREE ENERGY PREDICTED BY IDOCK:   -0.24 KCAL/MOL
REMARK 927      BINDING AFFINITY PREDICTED BY RF-SCORE:    0.00 PKD
ROOT
HETATM    1  C   UNL     1      -7.292   9.837  68.160  1.00  0.00    -0.080 C  
HETATM    2  C   UNL     1      -7.619   8.381  67.863  1.00  0.00    -0.099 C  
ENDROOT
BRANCH   2   3
HETATM    3  C   UNL     1      -7.440   7.506  69.107  1.00  0.00    -0.098 C  
HETATM    4  C   UNL     1      -8.613   7.584  70.111  1.00  0.00    -0.141 C  
HETATM    5  C   UNL     1      -8.277   6.766  71.355  1.00  0.00    -0.111 C  
HETATM    6  C   UNL     1      -9.977   7.178  69.518  1.00  0.00    -0.165 C  
HETATM    7  O   UNL     1      -9.190   6.873  72.346  1.00  0.00    -0.135 OA 
HETATM    8  O   UNL     1      -7.267   6.092  71.495  1.00  0.00    -0.082 OA 
BRANCH   6   9
HETATM    9  C   UNL     1     -10.049   5.726  69.036  1.00  0.00    -0.249 C  
HETATM   10  C   UNL     1     -10.553   5.650  67.602  1.00  0.00    -0.279 C  
ENDBRANCH   6   9
ENDBRANCH   2   3
TORSDOF 2
ENDMDL
MODEL      228
REMARK 921   NORMALIZED FREE ENERGY PREDICTED BY IDOCK:   -1.18 KCAL/MOL
REMARK 922        TOTAL FREE ENERGY PREDICTED BY IDOCK:   -1.68 KCAL/MOL
REMARK 923 INTER-LIGAND FREE ENERGY PREDICTED BY IDOCK:   -1.57 KCAL/MOL
REMARK 924 INTRA-LIGAND FREE ENERGY PREDICTED BY IDOCK:   -0.10 KCAL/MOL
REMARK 927      BINDING AFFINITY PREDICTED BY RF-SCORE:    0.00 PKD
ROOT
HETATM    1  C   UNL     1      -7.754   4.330  72.751  1.00  0.00    -0.081 C  
HETATM    2  C   UNL     1      -8.709   5.083  71.837  1.00  0.00    -0.136 C  
ENDROOT
BRANCH   2   3
HETATM    3  C   UNL     1      -7.993   5.588  70.580  1.00  0.00    -0.103 C  
HETATM    4  C   UNL     1      -8.324   4.790  69.298  1.00  0.00    -0.083 C  
HETATM    5  C   UNL     1      -7.474   5.307  68.140  1.00  0.00    -0.076 C  
HETATM    6  C   UNL     1      -9.823   4.775  68.936  1.00  0.00    -0.230 C  
HETATM    7  O   UNL     1      -7.602   4.589  67.002  1.00  0.00    -0.084 OA 
HETATM    8  O   UNL     1      -6.708   6.257  68.207  1.00  0.00    -0.062 OA 
BRANCH   6   9
HETATM    9  C   UNL     1     -10.414   6.155  68.631  1.00  0.00    -0.285 C  
HETATM   10  C   UNL     1     -10.669   6.324  67.141  1.00  0.00    -0.432 C  
ENDBRANCH   6   9
ENDBRANCH   2   3
TORSDOF 2
ENDMDL
MODEL      229
REMARK 921   NORMALIZED FREE ENERGY PREDICTED BY IDOCK:   -1.18 KCAL/MOL
REMARK 922        TOTAL FREE ENERGY PREDICTED BY IDOCK:   -1.67 KCAL/MOL
REMARK 923 INTER-LIGAND FREE ENERGY PREDICTED BY IDOCK:   -1.42 KCAL/MOL
REMARK 924 INTRA-LIGAND FREE ENERGY PREDICTED BY IDOCK:   -0.25 KCAL/MOL
REMARK 927      BINDING AFFINITY PREDICTED BY RF-SCORE:    0.00 PKD
ROOT
HETATM    1  C   UNL     1      -8.791   8.812  69.259  1.00  0.00    -0.140 C  
HETATM    2  C   UNL     1      -9.763   7.642  69.220  1.00  0.00    -0.164 C  
ENDROOT
BRANCH   2   3
HETATM    3  C   UNL     1      -9.063   6.327  69.574  1.00  0.00    -0.137 C  
HETATM    4  C   UNL     1      -9.744   5.068  68.989  1.00  0.00    -0.238 C  
HETATM    5  C   UNL     1      -9.031   3.818  69.496  1.00  0.00    -0.106 C  
HETATM    6  C   UNL     1      -9.857   5.071  67.451  1.00  0.00    -0.207 C  
HETATM    7  O   UNL     1      -9.630   2.660  69.138  1.00  0.00    -0.123 OA 
HETATM    8  O   UNL     1      -8.028   3.822  70.195  1.00  0.00    -0.047 OA 
BRANCH   6   9
HETATM    9  C   UNL     1      -8.512   5.091  66.719  1.00  0.00    -0.106 C  
HETATM   10  C   UNL     1      -8.535   6.074  65.558  1.00  0.00    -0.151 C  
ENDBRANCH   6   9
ENDBRANCH   2   3
TORSDOF 2
ENDMDL
MODEL      230
REMARK 921   NORMALIZED FREE ENERGY PREDICTED BY IDOCK:   -1.17 KCAL/MOL
REMARK 922        TOTAL FREE ENERGY PREDICTED BY IDOCK:   -1.66 KCAL/MOL
REMARK 923 INTER-LIGAND FREE ENERGY PREDICTED BY IDOCK:   -1.43 KCAL/MOL
REMARK 924 INTRA-LIGAND FREE ENERGY PREDICTED BY IDOCK:   -0.23 KCAL/MOL
REMARK 927      BINDING AFFINITY PREDICTED BY RF-SCORE:    0.00 PKD
ROOT
HETATM    1  C   UNL     1      -8.869   8.280  67.634  1.00  0.00    -0.137 C  
HETATM    2  C   UNL     1      -9.753   7.431  66.732  1.00  0.00    -0.271 C  
ENDROOT
BRANCH   2   3
HETATM    3  C   UNL     1      -9.645   5.945  67.088  1.00  0.00    -0.136 C  
HETATM    4  C   UNL     1      -9.373   5.022  65.879  1.00  0.00    -0.165 C  
HETATM    5  C   UNL     1      -9.398   3.564  66.332  1.00  0.00    -0.171 C  
HETATM    6  C   UNL     1      -8.077   5.354  65.112  1.00  0.00    -0.121 C  
HETATM    7  O   UNL     1      -9.293   2.673  65.322  1.00  0.00    -0.146 OA 
HETATM    8  O   UNL     1      -9.535   3.196  67.490  1.00  0.00    -0.206 OA 
BRANCH   6   9
HETATM    9  C   UNL     1      -6.797   5.203  65.939  1.00  0.00    -0.061 C  
HETATM   10  C   UNL     1      -5.727   4.452  65.161  1.00  0.00    -0.014 C  
ENDBRANCH   6   9
ENDBRANCH   2   3
TORSDOF 2
ENDMDL
MODEL      231
REMARK 921   NORMALIZED FREE ENERGY PREDICTED BY IDOCK:   -1.17 KCAL/MOL
REMARK 922        TOTAL FREE ENERGY PREDICTED BY IDOCK:   -1.66 KCAL/MOL
REMARK 923 INTER-LIGAND FREE ENERGY PREDICTED BY IDOCK:   -1.49 KCAL/MOL
REMARK 924 INTRA-LIGAND FREE ENERGY PREDICTED BY IDOCK:   -0.17 KCAL/MOL
REMARK 927      BINDING AFFINITY PREDICTED BY RF-SCORE:    0.00 PKD
ROOT
HETATM    1  C   UNL     1     -10.238   4.662  72.974  1.00  0.00    -0.219 C  
HETATM    2  C   UNL     1     -10.067   6.167  72.830  1.00  0.00    -0.195 C  
ENDROOT
BRANCH   2   3
HETATM    3  C   UNL     1      -9.618   6.542  71.414  1.00  0.00    -0.174 C  
HETATM    4  C   UNL     1      -9.469   8.062  71.179  1.00  0.00    -0.181 C  
HETATM    5  C   UNL     1      -9.130   8.322  69.713  1.00  0.00    -0.147 C  
HETATM    6  C   UNL     1      -8.461   8.749  72.123  1.00  0.00    -0.072 C  
HETATM    7  O   UNL     1      -9.101   9.632  69.380  1.00  0.00    -0.163 OA 
HETATM    8  O   UNL     1      -8.933   7.452  68.878  1.00  0.00    -0.132 OA 
BRANCH   6   9
HETATM    9  C   UNL     1      -7.020   8.248  71.982  1.00  0.00    -0.094 C  
HETATM   10  C   UNL     1      -6.295   8.284  73.319  1.00  0.00    -0.111 C  
ENDBRANCH   6   9
ENDBRANCH   2   3
TORSDOF 2
ENDMDL
MODEL      232
REMARK 921   NORMALIZED FREE ENERGY PREDICTED BY IDOCK:   -1.16 KCAL/MOL
REMARK 922        TOTAL FREE ENERGY PREDICTED BY IDOCK:   -1.65 KCAL/MOL
REMARK 923 INTER-LIGAND FREE ENERGY PREDICTED BY IDOCK:   -1.45 KCAL/MOL
REMARK 924 INTRA-LIGAND FREE ENERGY PREDICTED BY IDOCK:   -0.20 KCAL/MOL
REMARK 927      BINDING AFFINITY PREDICTED BY RF-SCORE:    0.00 PKD
ROOT
HETATM    1  C   UNL     1     -11.473  11.218  69.699  1.00  0.00    -0.380 C  
HETATM    2  C   UNL     1     -12.248   9.913  69.591  1.00  0.00     0.318 C  
ENDROOT
BRANCH   2   3
HETATM    3  C   UNL     1     -11.576   8.800  70.400  1.00  0.00    -0.105 C  
HETATM    4  C   UNL     1     -11.241   7.533  69.580  1.00  0.00    -0.023 C  
HETATM    5  C   UNL     1     -10.683   6.456  70.507  1.00  0.00    -0.257 C  
HETATM    6  C   UNL     1     -10.305   7.789  68.382  1.00  0.00    -0.231 C  
HETATM    7  O   UNL     1     -10.475   5.265  69.903  1.00  0.00    -0.297 OA 
HETATM    8  O   UNL     1     -10.465   6.607  71.700  1.00  0.00    -0.205 OA 
BRANCH   6   9
HETATM    9  C   UNL     1      -8.918   8.313  68.764  1.00  0.00    -0.144 C  
HETATM   10  C   UNL     1      -7.853   7.246  68.560  1.00  0.00    -0.122 C  
ENDBRANCH   6   9
ENDBRANCH   2   3
TORSDOF 2
ENDMDL
MODEL      233
REMARK 921   NORMALIZED FREE ENERGY PREDICTED BY IDOCK:   -1.13 KCAL/MOL
REMARK 922        TOTAL FREE ENERGY PREDICTED BY IDOCK:   -1.62 KCAL/MOL
REMARK 923 INTER-LIGAND FREE ENERGY PREDICTED BY IDOCK:   -1.41 KCAL/MOL
REMARK 924 INTRA-LIGAND FREE ENERGY PREDICTED BY IDOCK:   -0.20 KCAL/MOL
REMARK 927      BINDING AFFINITY PREDICTED BY RF-SCORE:    0.00 PKD
ROOT
HETATM    1  C   UNL     1     -10.616  11.402  64.902  1.00  0.00    -0.368 C  
HETATM    2  C   UNL     1      -9.273  10.966  65.469  1.00  0.00    -0.232 C  
ENDROOT
BRANCH   2   3
HETATM    3  C   UNL     1      -9.042   9.466  65.260  1.00  0.00    -0.287 C  
HETATM    4  C   UNL     1      -7.763   9.128  64.460  1.00  0.00    -0.114 C  
HETATM    5  C   UNL     1      -7.696   7.622  64.217  1.00  0.00    -0.131 C  
HETATM    6  C   UNL     1      -6.463   9.656  65.100  1.00  0.00    -0.088 C  
HETATM    7  O   UNL     1      -6.674   7.240  63.418  1.00  0.00    -0.051 OA 
HETATM    8  O   UNL     1      -8.494   6.808  64.657  1.00  0.00    -0.019 OA 
BRANCH   6   9
HETATM    9  C   UNL     1      -6.156   9.072  66.482  1.00  0.00    -0.064 C  
HETATM   10  C   UNL     1      -6.116  10.164  67.541  1.00  0.00    -0.057 C  
ENDBRANCH   6   9
ENDBRANCH   2   3
TORSDOF 2
ENDMDL
MODEL      234
REMARK 921   NORMALIZED FREE ENERGY PREDICTED BY IDOCK:   -1.13 KCAL/MOL
REMARK 922        TOTAL FREE ENERGY PREDICTED BY IDOCK:   -1.61 KCAL/MOL
REMARK 923 INTER-LIGAND FREE ENERGY PREDICTED BY IDOCK:   -1.46 KCAL/MOL
REMARK 924 INTRA-LIGAND FREE ENERGY PREDICTED BY IDOCK:   -0.16 KCAL/MOL
REMARK 927      BINDING AFFINITY PREDICTED BY RF-SCORE:    0.00 PKD
ROOT
HETATM    1  C   UNL     1      -7.294   5.064  71.209  1.00  0.00    -0.073 C  
HETATM    2  C   UNL     1      -8.442   5.756  70.489  1.00  0.00    -0.127 C  
ENDROOT
BRANCH   2   3
HETATM    3  C   UNL     1      -7.965   6.421  69.194  1.00  0.00    -0.111 C  
HETATM    4  C   UNL     1      -9.105   6.817  68.228  1.00  0.00    -0.124 C  
HETATM    5  C   UNL     1      -8.510   7.364  66.932  1.00  0.00    -0.123 C  
HETATM    6  C   UNL     1     -10.133   7.793  68.835  1.00  0.00    -0.201 C  
HETATM    7  O   UNL     1      -9.427   7.623  65.974  1.00  0.00    -0.099 OA 
HETATM    8  O   UNL     1      -7.317   7.531  66.729  1.00  0.00    -0.088 OA 
BRANCH   6   9
HETATM    9  C   UNL     1      -9.553   9.152  69.239  1.00  0.00    -0.159 C  
HETATM   10  C   UNL     1     -10.326   9.752  70.404  1.00  0.00    -0.354 C  
ENDBRANCH   6   9
ENDBRANCH   2   3
TORSDOF 2
ENDMDL
MODEL      235
REMARK 921   NORMALIZED FREE ENERGY PREDICTED BY IDOCK:   -1.12 KCAL/MOL
REMARK 922        TOTAL FREE ENERGY PREDICTED BY IDOCK:   -1.61 KCAL/MOL
REMARK 923 INTER-LIGAND FREE ENERGY PREDICTED BY IDOCK:   -1.59 KCAL/MOL
REMARK 924 INTRA-LIGAND FREE ENERGY PREDICTED BY IDOCK:   -0.02 KCAL/MOL
REMARK 927      BINDING AFFINITY PREDICTED BY RF-SCORE:    0.00 PKD
ROOT
HETATM    1  C   UNL     1      -6.815   3.712  72.454  1.00  0.00    -0.040 C  
HETATM    2  C   UNL     1      -7.131   4.720  73.550  1.00  0.00    -0.073 C  
ENDROOT
BRANCH   2   3
HETATM    3  C   UNL     1      -7.562   6.066  72.958  1.00  0.00    -0.098 C  
HETATM    4  C   UNL     1      -8.342   5.954  71.629  1.00  0.00    -0.127 C  
HETATM    5  C   UNL     1      -8.619   7.350  71.078  1.00  0.00    -0.134 C  
HETATM    6  C   UNL     1      -9.634   5.117  71.725  1.00  0.00    -0.199 C  
HETATM    7  O   UNL     1      -9.190   7.355  69.853  1.00  0.00    -0.145 OA 
HETATM    8  O   UNL     1      -8.333   8.393  71.647  1.00  0.00    -0.129 OA 
BRANCH   6   9
HETATM    9  C   UNL     1     -10.686   5.687  72.680  1.00  0.00    -0.285 C  
HETATM   10  C   UNL     1     -10.880   4.780  73.887  1.00  0.00    -0.360 C  
ENDBRANCH   6   9
ENDBRANCH   2   3
TORSDOF 2
ENDMDL
MODEL      236
REMARK 921   NORMALIZED FREE ENERGY PREDICTED BY IDOCK:   -1.12 KCAL/MOL
REMARK 922        TOTAL FREE ENERGY PREDICTED BY IDOCK:   -1.61 KCAL/MOL
REMARK 923 INTER-LIGAND FREE ENERGY PREDICTED BY IDOCK:   -1.38 KCAL/MOL
REMARK 924 INTRA-LIGAND FREE ENERGY PREDICTED BY IDOCK:   -0.23 KCAL/MOL
REMARK 927      BINDING AFFINITY PREDICTED BY RF-SCORE:    0.00 PKD
ROOT
HETATM    1  C   UNL     1      -7.888   3.387  62.833  1.00  0.00    -0.071 C  
HETATM    2  C   UNL     1      -8.845   3.426  64.016  1.00  0.00    -0.096 C  
ENDROOT
BRANCH   2   3
HETATM    3  C   UNL     1      -8.729   4.748  64.781  1.00  0.00    -0.153 C  
HETATM    4  C   UNL     1      -9.743   4.903  65.937  1.00  0.00    -0.197 C  
HETATM    5  C   UNL     1      -9.611   6.295  66.550  1.00  0.00    -0.146 C  
HETATM    6  C   UNL     1      -9.645   3.800  67.010  1.00  0.00    -0.213 C  
HETATM    7  O   UNL     1     -10.542   6.571  67.491  1.00  0.00    -0.205 OA 
HETATM    8  O   UNL     1      -8.777   7.125  66.222  1.00  0.00    -0.135 OA 
BRANCH   6   9
HETATM    9  C   UNL     1      -8.304   3.752  67.749  1.00  0.00    -0.099 C  
HETATM   10  C   UNL     1      -7.599   2.425  67.517  1.00  0.00    -0.060 C  
ENDBRANCH   6   9
ENDBRANCH   2   3
TORSDOF 2
ENDMDL
MODEL      237
REMARK 921   NORMALIZED FREE ENERGY PREDICTED BY IDOCK:   -1.07 KCAL/MOL
REMARK 922        TOTAL FREE ENERGY PREDICTED BY IDOCK:   -1.55 KCAL/MOL
REMARK 923 INTER-LIGAND FREE ENERGY PREDICTED BY IDOCK:   -2.03 KCAL/MOL
REMARK 924 INTRA-LIGAND FREE ENERGY PREDICTED BY IDOCK:    0.48 KCAL/MOL
REMARK 927      BINDING AFFINITY PREDICTED BY RF-SCORE:    0.00 PKD
ROOT
HETATM    1  C   UNL     1      -7.389  15.636  69.205  1.00  0.00    -0.207 C  
HETATM    2  C   UNL     1      -7.724  14.580  68.162  1.00  0.00    -0.128 C  
ENDROOT
BRANCH   2   3
HETATM    3  C   UNL     1      -8.550  15.174  67.017  1.00  0.00    -0.265 C  
HETATM    4  C   UNL     1      -8.734  16.706  67.096  1.00  0.00    -0.215 C  
HETATM    5  C   UNL     1      -9.662  17.169  65.975  1.00  0.00    -0.189 C  
HETATM    6  C   UNL     1      -7.412  17.499  67.099  1.00  0.00    -0.218 C  
HETATM    7  O   UNL     1      -9.984  18.480  66.035  1.00  0.00    -0.485 OA 
HETATM    8  O   UNL     1     -10.122  16.443  65.106  1.00  0.00    -0.529 OA 
BRANCH   6   9
HETATM    9  C   UNL     1      -6.570  17.331  65.831  1.00  0.00     0.043 C  
HETATM   10  C   UNL     1      -5.131  16.977  66.172  1.00  0.00     0.159 C  
ENDBRANCH   6   9
ENDBRANCH   2   3
TORSDOF 2
ENDMDL
MODEL      238
REMARK 921   NORMALIZED FREE ENERGY PREDICTED BY IDOCK:   -1.04 KCAL/MOL
REMARK 922        TOTAL FREE ENERGY PREDICTED BY IDOCK:   -1.52 KCAL/MOL
REMARK 923 INTER-LIGAND FREE ENERGY PREDICTED BY IDOCK:   -1.84 KCAL/MOL
REMARK 924 INTRA-LIGAND FREE ENERGY PREDICTED BY IDOCK:    0.32 KCAL/MOL
REMARK 927      BINDING AFFINITY PREDICTED BY RF-SCORE:    0.00 PKD
ROOT
HETATM    1  C   UNL     1      -9.178   8.942  71.364  1.00  0.00    -0.328 C  
HETATM    2  C   UNL     1      -8.263   9.461  70.265  1.00  0.00    -0.194 C  
ENDROOT
BRANCH   2   3
HETATM    3  C   UNL     1      -7.684   8.311  69.435  1.00  0.00    -0.102 C  
HETATM    4  C   UNL     1      -8.464   6.983  69.563  1.00  0.00    -0.134 C  
HETATM    5  C   UNL     1      -7.737   5.886  68.788  1.00  0.00    -0.091 C  
HETATM    6  C   UNL     1      -9.946   7.081  69.148  1.00  0.00    -0.165 C  
HETATM    7  O   UNL     1      -8.276   4.656  68.941  1.00  0.00    -0.081 OA 
HETATM    8  O   UNL     1      -6.735   6.059  68.110  1.00  0.00    -0.059 OA 
BRANCH   6   9
HETATM    9  C   UNL     1     -10.169   7.457  67.681  1.00  0.00    -0.261 C  
HETATM   10  C   UNL     1     -10.872   6.337  66.929  1.00  0.00    -0.428 C  
ENDBRANCH   6   9
ENDBRANCH   2   3
TORSDOF 2
ENDMDL
MODEL      239
REMARK 921   NORMALIZED FREE ENERGY PREDICTED BY IDOCK:   -1.03 KCAL/MOL
REMARK 922        TOTAL FREE ENERGY PREDICTED BY IDOCK:   -1.51 KCAL/MOL
REMARK 923 INTER-LIGAND FREE ENERGY PREDICTED BY IDOCK:   -1.28 KCAL/MOL
REMARK 924 INTRA-LIGAND FREE ENERGY PREDICTED BY IDOCK:   -0.23 KCAL/MOL
REMARK 927      BINDING AFFINITY PREDICTED BY RF-SCORE:    0.00 PKD
ROOT
HETATM    1  C   UNL     1      -8.708   2.897  72.415  1.00  0.00    -0.093 C  
HETATM    2  C   UNL     1      -8.835   4.377  72.085  1.00  0.00    -0.132 C  
ENDROOT
BRANCH   2   3
HETATM    3  C   UNL     1      -9.186   4.588  70.609  1.00  0.00    -0.199 C  
HETATM    4  C   UNL     1      -9.423   6.064  70.218  1.00  0.00    -0.186 C  
HETATM    5  C   UNL     1      -9.873   6.143  68.762  1.00  0.00    -0.136 C  
HETATM    6  C   UNL     1      -8.217   6.988  70.489  1.00  0.00    -0.123 C  
HETATM    7  O   UNL     1     -10.225   7.385  68.362  1.00  0.00    -0.173 OA 
HETATM    8  O   UNL     1      -9.956   5.187  68.005  1.00  0.00    -0.150 OA 
BRANCH   6   9
HETATM    9  C   UNL     1      -6.958   6.632  69.694  1.00  0.00    -0.067 C  
HETATM   10  C   UNL     1      -5.806   6.277  70.622  1.00  0.00    -0.019 C  
ENDBRANCH   6   9
ENDBRANCH   2   3
TORSDOF 2
ENDMDL
MODEL      240
REMARK 921   NORMALIZED FREE ENERGY PREDICTED BY IDOCK:   -1.03 KCAL/MOL
REMARK 922        TOTAL FREE ENERGY PREDICTED BY IDOCK:   -1.51 KCAL/MOL
REMARK 923 INTER-LIGAND FREE ENERGY PREDICTED BY IDOCK:   -1.31 KCAL/MOL
REMARK 924 INTRA-LIGAND FREE ENERGY PREDICTED BY IDOCK:   -0.20 KCAL/MOL
REMARK 927      BINDING AFFINITY PREDICTED BY RF-SCORE:    0.00 PKD
ROOT
HETATM    1  C   UNL     1      -9.718   3.452  64.636  1.00  0.00    -0.164 C  
HETATM    2  C   UNL     1      -9.809   3.937  66.076  1.00  0.00    -0.133 C  
ENDROOT
BRANCH   2   3
HETATM    3  C   UNL     1      -8.593   4.790  66.452  1.00  0.00    -0.113 C  
HETATM    4  C   UNL     1      -8.926   6.013  67.336  1.00  0.00    -0.108 C  
HETATM    5  C   UNL     1      -7.666   6.847  67.552  1.00  0.00    -0.111 C  
HETATM    6  C   UNL     1      -9.605   5.656  68.674  1.00  0.00    -0.163 C  
HETATM    7  O   UNL     1      -7.881   8.007  68.213  1.00  0.00    -0.117 OA 
HETATM    8  O   UNL     1      -6.552   6.545  67.149  1.00  0.00    -0.050 OA 
BRANCH   6   9
HETATM    9  C   UNL     1      -8.749   4.795  69.607  1.00  0.00    -0.112 C  
HETATM   10  C   UNL     1      -9.363   3.416  69.797  1.00  0.00    -0.238 C  
ENDBRANCH   6   9
ENDBRANCH   2   3
TORSDOF 2
ENDMDL
MODEL      241
REMARK 921   NORMALIZED FREE ENERGY PREDICTED BY IDOCK:   -1.03 KCAL/MOL
REMARK 922        TOTAL FREE ENERGY PREDICTED BY IDOCK:   -1.50 KCAL/MOL
REMARK 923 INTER-LIGAND FREE ENERGY PREDICTED BY IDOCK:   -1.37 KCAL/MOL
REMARK 924 INTRA-LIGAND FREE ENERGY PREDICTED BY IDOCK:   -0.14 KCAL/MOL
REMARK 927      BINDING AFFINITY PREDICTED BY RF-SCORE:    0.00 PKD
ROOT
HETATM    1  C   UNL     1      -9.701   8.795  66.800  1.00  0.00    -0.286 C  
HETATM    2  C   UNL     1      -8.541   8.029  67.418  1.00  0.00    -0.125 C  
ENDROOT
BRANCH   2   3
HETATM    3  C   UNL     1      -8.931   7.426  68.771  1.00  0.00    -0.129 C  
HETATM    4  C   UNL     1      -9.152   5.896  68.743  1.00  0.00    -0.116 C  
HETATM    5  C   UNL     1      -9.643   5.425  70.110  1.00  0.00    -0.177 C  
HETATM    6  C   UNL     1      -7.922   5.092  68.276  1.00  0.00    -0.086 C  
HETATM    7  O   UNL     1      -9.983   4.118  70.150  1.00  0.00    -0.209 OA 
HETATM    8  O   UNL     1      -9.766   6.142  71.092  1.00  0.00    -0.174 OA 
BRANCH   6   9
HETATM    9  C   UNL     1      -6.693   5.233  69.179  1.00  0.00    -0.053 C  
HETATM   10  C   UNL     1      -5.642   6.126  68.536  1.00  0.00    -0.012 C  
ENDBRANCH   6   9
ENDBRANCH   2   3
TORSDOF 2
ENDMDL
MODEL      242
REMARK 921   NORMALIZED FREE ENERGY PREDICTED BY IDOCK:   -0.95 KCAL/MOL
REMARK 922        TOTAL FREE ENERGY PREDICTED BY IDOCK:   -1.41 KCAL/MOL
REMARK 923 INTER-LIGAND FREE ENERGY PREDICTED BY IDOCK:   -1.27 KCAL/MOL
REMARK 924 INTRA-LIGAND FREE ENERGY PREDICTED BY IDOCK:   -0.14 KCAL/MOL
REMARK 927      BINDING AFFINITY PREDICTED BY RF-SCORE:    0.00 PKD
ROOT
HETATM    1  C   UNL     1     -10.083   7.173  67.656  1.00  0.00    -0.229 C  
HETATM    2  C   UNL     1     -10.045   6.767  69.122  1.00  0.00    -0.180 C  
ENDROOT
BRANCH   2   3
HETATM    3  C   UNL     1      -8.674   6.203  69.507  1.00  0.00    -0.130 C  
HETATM    4  C   UNL     1      -8.296   6.414  70.991  1.00  0.00    -0.123 C  
HETATM    5  C   UNL     1      -6.873   5.917  71.232  1.00  0.00    -0.066 C  
HETATM    6  C   UNL     1      -9.291   5.787  71.988  1.00  0.00    -0.163 C  
HETATM    7  O   UNL     1      -6.405   6.172  72.474  1.00  0.00    -0.052 OA 
HETATM    8  O   UNL     1      -6.175   5.368  70.393  1.00  0.00    -0.021 OA 
BRANCH   6   9
HETATM    9  C   UNL     1      -9.410   4.264  71.889  1.00  0.00    -0.186 C  
HETATM   10  C   UNL     1      -9.287   3.615  73.260  1.00  0.00    -0.118 C  
ENDBRANCH   6   9
ENDBRANCH   2   3
TORSDOF 2
ENDMDL
MODEL      243
REMARK 921   NORMALIZED FREE ENERGY PREDICTED BY IDOCK:   -0.92 KCAL/MOL
REMARK 922        TOTAL FREE ENERGY PREDICTED BY IDOCK:   -1.38 KCAL/MOL
REMARK 923 INTER-LIGAND FREE ENERGY PREDICTED BY IDOCK:   -1.50 KCAL/MOL
REMARK 924 INTRA-LIGAND FREE ENERGY PREDICTED BY IDOCK:    0.12 KCAL/MOL
REMARK 927      BINDING AFFINITY PREDICTED BY RF-SCORE:    0.00 PKD
ROOT
HETATM    1  C   UNL     1      -9.969   4.218  73.282  1.00  0.00    -0.184 C  
HETATM    2  C   UNL     1      -9.245   5.305  74.063  1.00  0.00    -0.121 C  
ENDROOT
BRANCH   2   3
HETATM    3  C   UNL     1      -8.091   5.899  73.249  1.00  0.00    -0.116 C  
HETATM    4  C   UNL     1      -8.261   5.768  71.718  1.00  0.00    -0.119 C  
HETATM    5  C   UNL     1      -7.009   6.288  71.018  1.00  0.00    -0.068 C  
HETATM    6  C   UNL     1      -9.537   6.439  71.169  1.00  0.00    -0.187 C  
HETATM    7  O   UNL     1      -7.011   6.102  69.679  1.00  0.00    -0.065 OA 
HETATM    8  O   UNL     1      -6.054   6.798  71.585  1.00  0.00    -0.037 OA 
BRANCH   6   9
HETATM    9  C   UNL     1      -9.596   7.955  71.382  1.00  0.00    -0.187 C  
HETATM   10  C   UNL     1     -10.679   8.324  72.385  1.00  0.00    -0.411 C  
ENDBRANCH   6   9
ENDBRANCH   2   3
TORSDOF 2
ENDMDL
MODEL      244
REMARK 921   NORMALIZED FREE ENERGY PREDICTED BY IDOCK:   -0.91 KCAL/MOL
REMARK 922        TOTAL FREE ENERGY PREDICTED BY IDOCK:   -1.37 KCAL/MOL
REMARK 923 INTER-LIGAND FREE ENERGY PREDICTED BY IDOCK:   -1.19 KCAL/MOL
REMARK 924 INTRA-LIGAND FREE ENERGY PREDICTED BY IDOCK:   -0.18 KCAL/MOL
REMARK 927      BINDING AFFINITY PREDICTED BY RF-SCORE:    0.00 PKD
ROOT
HETATM    1  C   UNL     1     -10.326   7.987  67.611  1.00  0.00    -0.312 C  
HETATM    2  C   UNL     1      -8.811   8.056  67.483  1.00  0.00    -0.129 C  
ENDROOT
BRANCH   2   3
HETATM    3  C   UNL     1      -8.205   6.660  67.313  1.00  0.00    -0.121 C  
HETATM    4  C   UNL     1      -8.508   5.999  65.949  1.00  0.00    -0.143 C  
HETATM    5  C   UNL     1      -7.954   4.576  65.935  1.00  0.00    -0.099 C  
HETATM    6  C   UNL     1      -8.015   6.810  64.733  1.00  0.00    -0.120 C  
HETATM    7  O   UNL     1      -8.278   3.871  64.828  1.00  0.00    -0.092 OA 
HETATM    8  O   UNL     1      -7.304   4.072  66.839  1.00  0.00    -0.070 OA 
BRANCH   6   9
HETATM    9  C   UNL     1      -6.497   7.005  64.677  1.00  0.00    -0.036 C  
HETATM   10  C   UNL     1      -6.122   8.097  63.687  1.00  0.00    -0.071 C  
ENDBRANCH   6   9
ENDBRANCH   2   3
TORSDOF 2
ENDMDL
MODEL      245
REMARK 921   NORMALIZED FREE ENERGY PREDICTED BY IDOCK:   -0.80 KCAL/MOL
REMARK 922        TOTAL FREE ENERGY PREDICTED BY IDOCK:   -1.25 KCAL/MOL
REMARK 923 INTER-LIGAND FREE ENERGY PREDICTED BY IDOCK:   -1.06 KCAL/MOL
REMARK 924 INTRA-LIGAND FREE ENERGY PREDICTED BY IDOCK:   -0.19 KCAL/MOL
REMARK 927      BINDING AFFINITY PREDICTED BY RF-SCORE:    0.00 PKD
ROOT
HETATM    1  C   UNL     1      -6.997   8.450  73.474  1.00  0.00    -0.127 C  
HETATM    2  C   UNL     1      -6.791   8.502  71.967  1.00  0.00    -0.096 C  
ENDROOT
BRANCH   2   3
HETATM    3  C   UNL     1      -8.053   8.063  71.218  1.00  0.00    -0.110 C  
HETATM    4  C   UNL     1      -7.778   7.381  69.858  1.00  0.00    -0.099 C  
HETATM    5  C   UNL     1      -9.102   7.091  69.155  1.00  0.00    -0.136 C  
HETATM    6  C   UNL     1      -6.899   6.118  69.955  1.00  0.00    -0.058 C  
HETATM    7  O   UNL     1      -8.962   6.606  67.901  1.00  0.00    -0.115 OA 
HETATM    8  O   UNL     1     -10.206   7.298  69.634  1.00  0.00    -0.199 OA 
BRANCH   6   9
HETATM    9  C   UNL     1      -7.513   4.982  70.778  1.00  0.00    -0.069 C  
HETATM   10  C   UNL     1      -7.871   3.797  69.893  1.00  0.00    -0.051 C  
ENDBRANCH   6   9
ENDBRANCH   2   3
TORSDOF 2
ENDMDL
MODEL      246
REMARK 921   NORMALIZED FREE ENERGY PREDICTED BY IDOCK:   -0.74 KCAL/MOL
REMARK 922        TOTAL FREE ENERGY PREDICTED BY IDOCK:   -1.18 KCAL/MOL
REMARK 923 INTER-LIGAND FREE ENERGY PREDICTED BY IDOCK:   -1.02 KCAL/MOL
REMARK 924 INTRA-LIGAND FREE ENERGY PREDICTED BY IDOCK:   -0.15 KCAL/MOL
REMARK 927      BINDING AFFINITY PREDICTED BY RF-SCORE:    0.00 PKD
ROOT
HETATM    1  C   UNL     1     -10.499   7.669  68.214  1.00  0.00    -0.219 C  
HETATM    2  C   UNL     1      -9.982   6.663  67.196  1.00  0.00    -0.209 C  
ENDROOT
BRANCH   2   3
HETATM    3  C   UNL     1      -9.063   7.334  66.170  1.00  0.00    -0.160 C  
HETATM    4  C   UNL     1      -7.565   7.307  66.549  1.00  0.00    -0.092 C  
HETATM    5  C   UNL     1      -6.762   8.098  65.519  1.00  0.00    -0.052 C  
HETATM    6  C   UNL     1      -6.991   5.889  66.747  1.00  0.00    -0.068 C  
HETATM    7  O   UNL     1      -5.454   8.237  65.831  1.00  0.00    -0.031 OA 
HETATM    8  O   UNL     1      -7.230   8.605  64.510  1.00  0.00    -0.089 OA 
BRANCH   6   9
HETATM    9  C   UNL     1      -7.033   5.010  65.494  1.00  0.00    -0.062 C  
HETATM   10  C   UNL     1      -6.728   3.559  65.833  1.00  0.00    -0.041 C  
ENDBRANCH   6   9
ENDBRANCH   2   3
TORSDOF 2
ENDMDL
MODEL      247
REMARK 921   NORMALIZED FREE ENERGY PREDICTED BY IDOCK:   -0.65 KCAL/MOL
REMARK 922        TOTAL FREE ENERGY PREDICTED BY IDOCK:   -1.08 KCAL/MOL
REMARK 923 INTER-LIGAND FREE ENERGY PREDICTED BY IDOCK:   -0.96 KCAL/MOL
REMARK 924 INTRA-LIGAND FREE ENERGY PREDICTED BY IDOCK:   -0.12 KCAL/MOL
REMARK 927      BINDING AFFINITY PREDICTED BY RF-SCORE:    0.00 PKD
ROOT
HETATM    1  C   UNL     1      -5.699   9.004  72.421  1.00  0.00    -0.071 C  
HETATM    2  C   UNL     1      -5.874   8.910  70.912  1.00  0.00    -0.039 C  
ENDROOT
BRANCH   2   3
HETATM    3  C   UNL     1      -7.355   8.833  70.529  1.00  0.00    -0.066 C  
HETATM    4  C   UNL     1      -7.668   9.342  69.104  1.00  0.00    -0.079 C  
HETATM    5  C   UNL     1      -9.177   9.325  68.874  1.00  0.00    -0.143 C  
HETATM    6  C   UNL     1      -6.917   8.589  67.987  1.00  0.00    -0.074 C  
HETATM    7  O   UNL     1      -9.560   9.870  67.698  1.00  0.00    -0.146 OA 
HETATM    8  O   UNL     1      -9.999   8.899  69.672  1.00  0.00    -0.182 OA 
BRANCH   6   9
HETATM    9  C   UNL     1      -7.258   7.099  67.890  1.00  0.00    -0.091 C  
HETATM   10  C   UNL     1      -7.261   6.631  66.442  1.00  0.00    -0.072 C  
ENDBRANCH   6   9
ENDBRANCH   2   3
TORSDOF 2
ENDMDL
MODEL      248
REMARK 921   NORMALIZED FREE ENERGY PREDICTED BY IDOCK:   -0.61 KCAL/MOL
REMARK 922        TOTAL FREE ENERGY PREDICTED BY IDOCK:   -1.04 KCAL/MOL
REMARK 923 INTER-LIGAND FREE ENERGY PREDICTED BY IDOCK:   -1.43 KCAL/MOL
REMARK 924 INTRA-LIGAND FREE ENERGY PREDICTED BY IDOCK:    0.39 KCAL/MOL
REMARK 927      BINDING AFFINITY PREDICTED BY RF-SCORE:    0.00 PKD
ROOT
HETATM    1  C   UNL     1      -8.536  13.893  69.199  1.00  0.00     0.323 C  
HETATM    2  C   UNL     1      -7.695  15.013  68.603  1.00  0.00    -0.128 C  
ENDROOT
BRANCH   2   3
HETATM    3  C   UNL     1      -8.316  15.544  67.307  1.00  0.00    -0.218 C  
HETATM    4  C   UNL     1      -9.783  15.112  67.084  1.00  0.00    -0.230 C  
HETATM    5  C   UNL     1     -10.259  15.602  65.719  1.00  0.00    -0.367 C  
HETATM    6  C   UNL     1     -10.745  15.548  68.208  1.00  0.00    -0.271 C  
HETATM    7  O   UNL     1     -11.492  15.167  65.379  1.00  0.00    -0.324 OA 
HETATM    8  O   UNL     1      -9.600  16.295  64.958  1.00  0.00    -0.087 OA 
BRANCH   6   9
HETATM    9  C   UNL     1     -10.868  17.065  68.383  1.00  0.00    -0.333 C  
HETATM   10  C   UNL     1     -10.087  17.541  69.598  1.00  0.00     0.205 C  
ENDBRANCH   6   9
ENDBRANCH   2   3
TORSDOF 2
ENDMDL
MODEL      249
REMARK 921   NORMALIZED FREE ENERGY PREDICTED BY IDOCK:   -0.19 KCAL/MOL
REMARK 922        TOTAL FREE ENERGY PREDICTED BY IDOCK:   -0.56 KCAL/MOL
REMARK 923 INTER-LIGAND FREE ENERGY PREDICTED BY IDOCK:   -1.38 KCAL/MOL
REMARK 924 INTRA-LIGAND FREE ENERGY PREDICTED BY IDOCK:    0.81 KCAL/MOL
REMARK 927      BINDING AFFINITY PREDICTED BY RF-SCORE:    0.00 PKD
ROOT
HETATM    1  C   UNL     1      -6.940   4.544  71.975  1.00  0.00    -0.055 C  
HETATM    2  C   UNL     1      -7.226   5.742  72.868  1.00  0.00    -0.090 C  
ENDROOT
BRANCH   2   3
HETATM    3  C   UNL     1      -7.624   6.969  72.042  1.00  0.00    -0.091 C  
HETATM    4  C   UNL     1      -7.514   6.767  70.513  1.00  0.00    -0.086 C  
HETATM    5  C   UNL     1      -7.824   8.080  69.800  1.00  0.00    -0.106 C  
HETATM    6  C   UNL     1      -8.376   5.610  69.969  1.00  0.00    -0.121 C  
HETATM    7  O   UNL     1      -7.633   8.037  68.462  1.00  0.00    -0.099 OA 
HETATM    8  O   UNL     1      -8.179   9.109  70.356  1.00  0.00    -0.132 OA 
BRANCH   6   9
HETATM    9  C   UNL     1      -9.882   5.793  70.172  1.00  0.00    -0.240 C  
HETATM   10  C   UNL     1     -10.610   5.864  68.838  1.00  0.00    -0.357 C  
ENDBRANCH   6   9
ENDBRANCH   2   3
TORSDOF 2
ENDMDL
MODEL      250
REMARK 921   NORMALIZED FREE ENERGY PREDICTED BY IDOCK:    0.40 KCAL/MOL
REMARK 922        TOTAL FREE ENERGY PREDICTED BY IDOCK:    0.10 KCAL/MOL
REMARK 923 INTER-LIGAND FREE ENERGY PREDICTED BY IDOCK:   -1.50 KCAL/MOL
REMARK 924 INTRA-LIGAND FREE ENERGY PREDICTED BY IDOCK:    1.60 KCAL/MOL
REMARK 927      BINDING AFFINITY PREDICTED BY RF-SCORE:    0.00 PKD
ROOT
HETATM    1  C   UNL     1     -11.235   9.438  72.068  1.00  0.00    -0.066 C  
HETATM    2  C   UNL     1     -10.384   8.291  71.542  1.00  0.00    -0.276 C  
ENDROOT
BRANCH   2   3
HETATM    3  C   UNL     1     -10.191   8.394  70.026  1.00  0.00    -0.202 C  
HETATM    4  C   UNL     1      -9.305   9.579  69.578  1.00  0.00    -0.199 C  
HETATM    5  C   UNL     1      -9.276   9.648  68.053  1.00  0.00    -0.125 C  
HETATM    6  C   UNL     1      -7.882   9.559  70.171  1.00  0.00    -0.168 C  
HETATM    7  O   UNL     1      -8.626  10.728  67.565  1.00  0.00    -0.125 OA 
HETATM    8  O   UNL     1      -9.811   8.841  67.308  1.00  0.00    -0.172 OA 
BRANCH   6   9
HETATM    9  C   UNL     1      -7.043   8.345  69.763  1.00  0.00    -0.051 C  
HETATM   10  C   UNL     1      -7.921   7.240  69.193  1.00  0.00    -0.119 C  
ENDBRANCH   6   9
ENDBRANCH   2   3
TORSDOF 2
ENDMDL
MODEL      251
REMARK 921   NORMALIZED FREE ENERGY PREDICTED BY IDOCK:    0.60 KCAL/MOL
REMARK 922        TOTAL FREE ENERGY PREDICTED BY IDOCK:    0.32 KCAL/MOL
REMARK 923 INTER-LIGAND FREE ENERGY PREDICTED BY IDOCK:   -1.66 KCAL/MOL
REMARK 924 INTRA-LIGAND FREE ENERGY PREDICTED BY IDOCK:    1.98 KCAL/MOL
REMARK 927      BINDING AFFINITY PREDICTED BY RF-SCORE:    0.00 PKD
ROOT
HETATM    1  C   UNL     1     -10.309   8.653  72.210  1.00  0.00    -0.376 C  
HETATM    2  C   UNL     1      -9.161   7.704  72.525  1.00  0.00    -0.208 C  
ENDROOT
BRANCH   2   3
HETATM    3  C   UNL     1      -8.564   7.111  71.246  1.00  0.00    -0.124 C  
HETATM    4  C   UNL     1      -7.824   5.770  71.455  1.00  0.00    -0.112 C  
HETATM    5  C   UNL     1      -7.177   5.333  70.143  1.00  0.00    -0.062 C  
HETATM    6  C   UNL     1      -8.703   4.653  72.052  1.00  0.00    -0.132 C  
HETATM    7  O   UNL     1      -6.401   4.231  70.254  1.00  0.00    -0.025 OA 
HETATM    8  O   UNL     1      -7.295   5.920  69.078  1.00  0.00    -0.079 OA 
BRANCH   6   9
HETATM    9  C   UNL     1      -9.890   4.244  71.173  1.00  0.00    -0.250 C  
HETATM   10  C   UNL     1      -9.787   4.870  69.790  1.00  0.00    -0.292 C  
ENDBRANCH   6   9
ENDBRANCH   2   3
TORSDOF 2
ENDMDL
MODEL      252
REMARK 921   NORMALIZED FREE ENERGY PREDICTED BY IDOCK:    6.61 KCAL/MOL
REMARK 922        TOTAL FREE ENERGY PREDICTED BY IDOCK:    7.03 KCAL/MOL
REMARK 923 INTER-LIGAND FREE ENERGY PREDICTED BY IDOCK:    5.18 KCAL/MOL
REMARK 924 INTRA-LIGAND FREE ENERGY PREDICTED BY IDOCK:    1.85 KCAL/MOL
REMARK 927      BINDING AFFINITY PREDICTED BY RF-SCORE:    0.00 PKD
ROOT
HETATM    1  C   UNL     1      -7.425  16.367  66.474  1.00  0.00    -0.223 C  
HETATM    2  C   UNL     1      -8.648  15.785  67.167  1.00  0.00    -0.226 C  
ENDROOT
BRANCH   2   3
HETATM    3  C   UNL     1      -8.524  15.886  68.690  1.00  0.00    -0.200 C  
HETATM    4  C   UNL     1      -7.068  15.935  69.206  1.00  0.00    -0.206 C  
HETATM    5  C   UNL     1      -7.065  15.921  70.732  1.00  0.00     1.714 C  
HETATM    6  C   UNL     1      -6.243  17.113  68.649  1.00  0.00    -0.159 C  
HETATM    7  O   UNL     1      -5.832  15.837  71.278  1.00  0.00     0.257 OA 
HETATM    8  O   UNL     1      -8.067  15.946  71.432  1.00  0.00     4.042 OA 
BRANCH   6   9
HETATM    9  C   UNL     1      -6.777  18.496  69.032  1.00  0.00    -0.288 C  
HETATM   10  C   UNL     1      -6.439  18.833  70.476  1.00  0.00     0.467 C  
ENDBRANCH   6   9
ENDBRANCH   2   3
TORSDOF 2
ENDMDL
MODEL      253
REMARK 921   NORMALIZED FREE ENERGY PREDICTED BY IDOCK:   13.79 KCAL/MOL
REMARK 922        TOTAL FREE ENERGY PREDICTED BY IDOCK:   15.05 KCAL/MOL
REMARK 923 INTER-LIGAND FREE ENERGY PREDICTED BY IDOCK:   14.58 KCAL/MOL
REMARK 924 INTRA-LIGAND FREE ENERGY PREDICTED BY IDOCK:    0.46 KCAL/MOL
REMARK 927      BINDING AFFINITY PREDICTED BY RF-SCORE:    0.00 PKD
ROOT
HETATM    1  C   UNL     1      -7.425  16.367  66.474  1.00  0.00    -0.223 C  
HETATM    2  C   UNL     1      -8.649  15.792  67.172  1.00  0.00    -0.226 C  
ENDROOT
BRANCH   2   3
HETATM    3  C   UNL     1      -8.527  15.911  68.694  1.00  0.00    -0.200 C  
HETATM    4  C   UNL     1      -8.885  14.618  69.462  1.00  0.00     0.213 C  
HETATM    5  C   UNL     1      -8.839  14.886  70.964  1.00  0.00     2.929 C  
HETATM    6  C   UNL     1      -8.023  13.399  69.077  1.00  0.00     0.231 C  
HETATM    7  O   UNL     1      -9.258  13.847  71.720  1.00  0.00     7.079 OA 
HETATM    8  O   UNL     1      -8.495  15.942  71.474  1.00  0.00     4.607 OA 
BRANCH   6   9
HETATM    9  C   UNL     1      -6.530  13.561  69.377  1.00  0.00    -0.103 C  
HETATM   10  C   UNL     1      -6.249  13.396  70.863  1.00  0.00     0.275 C  
ENDBRANCH   6   9
ENDBRANCH   2   3
TORSDOF 2
ENDMDL
