MODEL        1
REMARK 921   NORMALIZED FREE ENERGY PREDICTED BY IDOCK:   -7.35 KCAL/MOL
REMARK 922        TOTAL FREE ENERGY PREDICTED BY IDOCK:  -15.62 KCAL/MOL
REMARK 923 INTER-LIGAND FREE ENERGY PREDICTED BY IDOCK:  -12.07 KCAL/MOL
REMARK 924 INTRA-LIGAND FREE ENERGY PREDICTED BY IDOCK:   -3.55 KCAL/MOL
REMARK 927      BINDING AFFINITY PREDICTED BY RF-SCORE:    0.00 PKD
ROOT
HETATM    1  C   UNL     1      -9.419   8.249  69.042  1.00  0.00    -0.155 C  
HETATM    2  O   UNL     1     -10.636  12.209  63.995  1.00  0.00    -0.321 OA 
HETATM    3  C   UNL     1      -9.144   6.815  68.507  1.00  0.00    -0.129 C  
HETATM    4  C   UNL     1     -10.280  12.449  65.150  1.00  0.00    -0.281 C  
HETATM    5  C   UNL     1     -10.120   6.460  67.389  1.00  0.00    -0.158 C  
HETATM    6  O   UNL     1     -11.444   6.548  67.947  1.00  0.00    -0.635 OA 
HETATM    7  C   UNL     1      -9.903   7.469  66.217  1.00  0.00    -0.059 C  
HETATM    8  C   UNL     1     -10.306  13.862  65.653  1.00  0.00    -0.337 A  
HETATM    9  C   UNL     1     -10.866  14.876  64.858  1.00  0.00    -0.431 A  
HETATM   10  C   UNL     1      -9.758   8.939  66.613  1.00  0.00    -0.303 A  
HETATM   11  C   UNL     1     -10.925  16.193  65.323  1.00  0.00    -0.280 A  
HETATM   12  C   UNL     1     -10.399  16.521  66.570  1.00  0.00    -0.307 A  
HETATM   13  H   UNL     1      -8.584  10.209  70.157  1.00  0.00     0.000 HD 
HETATM   14  H   UNL     1     -12.052   6.327  67.252  1.00  0.00     0.000 HD 
HETATM   15  C   UNL     1      -9.808  15.532  67.363  1.00  0.00    -0.224 A  
HETATM   16  O   UNL     1      -8.758  10.908  69.537  1.00  0.00     0.024 OA 
HETATM   17  C   UNL     1      -9.998   9.987  65.691  1.00  0.00    -0.285 A  
HETATM   18  C   UNL     1      -9.790  14.187  66.913  1.00  0.00    -0.265 A  
HETATM   19  O   UNL     1     -10.392   9.625  64.424  1.00  0.00    -0.109 OA 
HETATM   20  C   UNL     1      -9.886  11.353  66.063  1.00  0.00    -0.256 A  
HETATM   21  O   UNL     1      -8.652  13.301  68.799  1.00  0.00    -0.027 OA 
HETATM   22  C   UNL     1      -9.373   9.282  67.923  1.00  0.00    -0.143 A  
HETATM   23  C   UNL     1      -9.168  10.639  68.253  1.00  0.00    -0.153 A  
HETATM   24  C   UNL     1      -9.243  13.087  67.741  1.00  0.00    -0.200 C  
HETATM   25  C   UNL     1      -9.426  11.673  67.336  1.00  0.00    -0.171 A  
HETATM   26  H   UNL     1     -10.553  10.328  63.806  1.00  0.00     0.000 HD 
ENDROOT
BRANCH   1  27
HETATM   27  O   UNL     1     -10.725   8.509  69.586  1.00  0.00    -0.229 OA 
BRANCH  27  28
HETATM   28  C   UNL     1     -10.918   8.484  70.991  1.00  0.00    -0.249 C  
HETATM   29  O   UNL     1     -11.956   7.530  71.319  1.00  0.00    -0.290 OA 
HETATM   30  C   UNL     1     -14.314   6.870  71.282  1.00  0.00    -0.094 C  
HETATM   31  C   UNL     1     -13.636   9.242  71.709  1.00  0.00    -0.398 C  
HETATM   32  O   UNL     1     -13.507   9.073  73.132  1.00  0.00    -0.948 OA 
HETATM   33  H   UNL     1     -14.119   8.414  73.440  1.00  0.00     0.000 HD 
HETATM   34  C   UNL     1     -12.649  10.305  71.211  1.00  0.00    -0.418 C  
HETATM   35  C   UNL     1     -13.282   7.951  70.966  1.00  0.00     0.057 C  
HETATM   36  C   UNL     1     -11.219   9.882  71.555  1.00  0.00    -0.169 C  
BRANCH  34  37
HETATM   37  N   UNL     1     -12.995  11.631  71.717  1.00  0.00    -0.424 N  
HETATM   38  H   UNL     1     -13.560  11.728  72.559  1.00  0.00     0.000 HD 
HETATM   39  C   UNL     1     -13.037  14.116  71.590  1.00  0.00    -0.351 C  
HETATM   40  F   UNL     1     -12.029  14.866  72.108  1.00  0.00    -0.376 F  
HETATM   41  O   UNL     1     -11.812  12.672  70.049  1.00  0.00    -0.329 OA 
HETATM   42  F   UNL     1     -13.644  14.873  70.635  1.00  0.00    -0.377 F  
HETATM   43  F   UNL     1     -13.955  13.954  72.587  1.00  0.00    -0.556 F  
HETATM   44  C   UNL     1     -12.545  12.766  71.036  1.00  0.00    -0.271 C  
ENDBRANCH  34  37
ENDBRANCH  27  28
ENDBRANCH   1  27
BRANCH   5  45
HETATM   45  C   UNL     1     -10.215   5.026  66.816  1.00  0.00    -0.248 C  
HETATM   46  O   UNL     1     -11.020   4.801  65.896  1.00  0.00    -0.247 OA 
BRANCH  45  47
HETATM   47  C   UNL     1      -9.590   3.829  67.536  1.00  0.00    -0.155 C  
BRANCH  47  48
HETATM   48  O   UNL     1      -8.390   3.281  67.017  1.00  0.00    -0.092 OA 
BRANCH  48  49
HETATM   49  C   UNL     1      -7.260   3.867  67.495  1.00  0.00    -0.067 C  
HETATM   50  O   UNL     1      -6.982   3.992  68.678  1.00  0.00    -0.046 OA 
BRANCH  49  51
HETATM   51  C   UNL     1      -6.381   4.305  66.353  1.00  0.00    -0.036 C  
BRANCH  51  52
HETATM   52  C   UNL     1      -6.703   5.731  65.911  1.00  0.00    -0.056 C  
BRANCH  52  53
HETATM   53  C   UNL     1      -6.000   6.777  66.780  1.00  0.00    -0.025 C  
HETATM   54  C   UNL     1      -6.103   8.172  66.192  1.00  0.00    -0.045 C  
ENDBRANCH  52  53
ENDBRANCH  51  52
ENDBRANCH  49  51
ENDBRANCH  48  49
ENDBRANCH  47  48
ENDBRANCH  45  47
ENDBRANCH   5  45
BRANCH  15  55
HETATM   55  O   UNL     1      -9.308  15.814  68.610  1.00  0.00    -0.190 OA 
HETATM   56  C   UNL     1     -10.244  16.148  69.631  1.00  0.00    -0.243 C  
ENDBRANCH  15  55
TORSDOF 11
ENDMDL
MODEL        2
REMARK 921   NORMALIZED FREE ENERGY PREDICTED BY IDOCK:   -7.30 KCAL/MOL
REMARK 922        TOTAL FREE ENERGY PREDICTED BY IDOCK:  -15.54 KCAL/MOL
REMARK 923 INTER-LIGAND FREE ENERGY PREDICTED BY IDOCK:  -12.61 KCAL/MOL
REMARK 924 INTRA-LIGAND FREE ENERGY PREDICTED BY IDOCK:   -2.93 KCAL/MOL
REMARK 927      BINDING AFFINITY PREDICTED BY RF-SCORE:    0.00 PKD
ROOT
HETATM    1  C   UNL     1      -9.237   8.333  69.082  1.00  0.00    -0.151 C  
HETATM    2  O   UNL     1     -10.562  12.024  63.862  1.00  0.00    -0.323 OA 
HETATM    3  C   UNL     1      -8.906   6.888  68.611  1.00  0.00    -0.124 C  
HETATM    4  C   UNL     1     -10.223  12.326  65.007  1.00  0.00    -0.285 C  
HETATM    5  C   UNL     1      -9.861   6.450  67.505  1.00  0.00    -0.123 C  
HETATM    6  O   UNL     1     -11.191   6.514  68.052  1.00  0.00    -0.501 OA 
HETATM    7  C   UNL     1      -9.673   7.414  66.292  1.00  0.00    -0.083 C  
HETATM    8  C   UNL     1     -10.304  13.758  65.447  1.00  0.00    -0.347 A  
HETATM    9  C   UNL     1     -10.895  14.715  64.606  1.00  0.00    -0.332 A  
HETATM   10  C   UNL     1      -9.584   8.904  66.624  1.00  0.00    -0.281 A  
HETATM   11  C   UNL     1     -11.005  16.048  65.013  1.00  0.00    -0.393 A  
HETATM   12  C   UNL     1     -10.500  16.449  66.247  1.00  0.00    -0.298 A  
HETATM   13  H   UNL     1      -8.481  10.369  70.115  1.00  0.00     0.000 HD 
HETATM   14  H   UNL     1     -11.786   6.241  67.363  1.00  0.00     0.000 HD 
HETATM   15  C   UNL     1      -9.879  15.517  67.086  1.00  0.00    -0.235 A  
HETATM   16  O   UNL     1      -8.676  11.034  69.465  1.00  0.00     0.100 OA 
HETATM   17  C   UNL     1      -9.856   9.902  65.656  1.00  0.00    -0.298 A  
HETATM   18  C   UNL     1      -9.809  14.155  66.695  1.00  0.00    -0.289 A  
HETATM   19  O   UNL     1     -10.227   9.471  64.404  1.00  0.00    -0.139 OA 
HETATM   20  C   UNL     1      -9.796  11.286  65.968  1.00  0.00    -0.267 A  
HETATM   21  O   UNL     1      -8.652  13.394  68.624  1.00  0.00    -0.111 OA 
HETATM   22  C   UNL     1      -9.221   9.318  67.920  1.00  0.00    -0.140 A  
HETATM   23  C   UNL     1      -9.068  10.694  68.192  1.00  0.00    -0.148 A  
HETATM   24  C   UNL     1      -9.228  13.114  67.573  1.00  0.00    -0.206 C  
HETATM   25  C   UNL     1      -9.357  11.678  67.229  1.00  0.00    -0.170 A  
HETATM   26  H   UNL     1     -10.410  10.141  63.755  1.00  0.00     0.000 HD 
ENDROOT
BRANCH   1  27
HETATM   27  O   UNL     1     -10.555   8.569  69.608  1.00  0.00    -0.224 OA 
BRANCH  27  28
HETATM   28  C   UNL     1     -10.771   8.524  71.009  1.00  0.00    -0.228 C  
HETATM   29  O   UNL     1     -11.764   7.516  71.313  1.00  0.00    -0.273 OA 
HETATM   30  C   UNL     1     -14.083   6.735  71.231  1.00  0.00     0.024 C  
HETATM   31  C   UNL     1     -13.537   9.136  71.683  1.00  0.00    -0.390 C  
HETATM   32  O   UNL     1     -13.423   8.964  73.107  1.00  0.00    -0.968 OA 
HETATM   33  H   UNL     1     -14.006   8.273  73.401  1.00  0.00     0.000 HD 
HETATM   34  C   UNL     1     -12.597  10.252  71.209  1.00  0.00    -0.418 C  
HETATM   35  C   UNL     1     -13.104   7.870  70.939  1.00  0.00     0.172 C  
HETATM   36  C   UNL     1     -11.154   9.901  71.575  1.00  0.00    -0.068 C  
BRANCH  34  37
HETATM   37  N   UNL     1     -13.020  11.555  71.715  1.00  0.00    -0.438 N  
HETATM   38  H   UNL     1     -13.607  11.617  72.547  1.00  0.00     0.000 HD 
HETATM   39  C   UNL     1     -13.186  14.035  71.604  1.00  0.00    -0.368 C  
HETATM   40  F   UNL     1     -12.227  14.831  72.147  1.00  0.00    -0.358 F  
HETATM   41  O   UNL     1     -11.858  12.667  70.080  1.00  0.00    -0.329 OA 
HETATM   42  F   UNL     1     -13.811  14.768  70.641  1.00  0.00    -0.317 F  
HETATM   43  F   UNL     1     -14.114  13.820  72.581  1.00  0.00    -0.571 F  
HETATM   44  C   UNL     1     -12.615  12.716  71.052  1.00  0.00    -0.262 C  
ENDBRANCH  34  37
ENDBRANCH  27  28
ENDBRANCH   1  27
BRANCH   5  45
HETATM   45  C   UNL     1      -9.900   4.990  66.995  1.00  0.00    -0.185 C  
HETATM   46  O   UNL     1     -10.687   4.697  66.079  1.00  0.00    -0.295 OA 
BRANCH  45  47
HETATM   47  C   UNL     1      -9.240   3.848  67.771  1.00  0.00    -0.166 C  
BRANCH  47  48
HETATM   48  O   UNL     1      -9.905   3.334  68.913  1.00  0.00     0.011 OA 
BRANCH  48  49
HETATM   49  C   UNL     1      -9.205   3.473  70.070  1.00  0.00    -0.156 C  
HETATM   50  O   UNL     1      -8.144   2.922  70.319  1.00  0.00    -0.042 OA 
BRANCH  49  51
HETATM   51  C   UNL     1      -9.910   4.439  70.988  1.00  0.00    -0.260 C  
BRANCH  51  52
HETATM   52  C   UNL     1     -10.003   3.894  72.412  1.00  0.00    -0.232 C  
BRANCH  52  53
HETATM   53  C   UNL     1     -11.041   4.644  73.250  1.00  0.00    -0.403 C  
HETATM   54  C   UNL     1     -10.460   5.881  73.908  1.00  0.00    -0.288 C  
ENDBRANCH  52  53
ENDBRANCH  51  52
ENDBRANCH  49  51
ENDBRANCH  48  49
ENDBRANCH  47  48
ENDBRANCH  45  47
ENDBRANCH   5  45
BRANCH  15  55
HETATM   55  O   UNL     1      -9.398  15.871  68.322  1.00  0.00    -0.190 OA 
HETATM   56  C   UNL     1      -8.733  17.127  68.431  1.00  0.00    -0.246 C  
ENDBRANCH  15  55
TORSDOF 11
ENDMDL
MODEL        3
REMARK 921   NORMALIZED FREE ENERGY PREDICTED BY IDOCK:   -7.06 KCAL/MOL
REMARK 922        TOTAL FREE ENERGY PREDICTED BY IDOCK:  -15.15 KCAL/MOL
REMARK 923 INTER-LIGAND FREE ENERGY PREDICTED BY IDOCK:  -12.14 KCAL/MOL
REMARK 924 INTRA-LIGAND FREE ENERGY PREDICTED BY IDOCK:   -3.01 KCAL/MOL
REMARK 927      BINDING AFFINITY PREDICTED BY RF-SCORE:    0.00 PKD
ROOT
HETATM    1  C   UNL     1     -11.329  14.629  67.476  1.00  0.00    -0.348 C  
HETATM    2  O   UNL     1      -5.926  10.967  67.623  1.00  0.00    -0.043 OA 
HETATM    3  C   UNL     1     -10.980  16.025  66.886  1.00  0.00    -0.124 C  
HETATM    4  C   UNL     1      -7.118  10.659  67.654  1.00  0.00    -0.084 C  
HETATM    5  C   UNL     1      -9.651  16.528  67.441  1.00  0.00    -0.238 C  
HETATM    6  O   UNL     1      -9.797  16.603  68.870  1.00  0.00    -0.240 OA 
HETATM    7  C   UNL     1      -8.535  15.524  67.012  1.00  0.00    -0.266 C  
HETATM    8  C   UNL     1      -7.509   9.252  67.996  1.00  0.00    -0.083 A  
HETATM    9  C   UNL     1      -6.529   8.337  68.415  1.00  0.00    -0.059 A  
HETATM   10  C   UNL     1      -8.870  14.039  67.167  1.00  0.00    -0.239 A  
HETATM   11  C   UNL     1      -6.880   7.030  68.766  1.00  0.00    -0.076 A  
HETATM   12  C   UNL     1      -8.204   6.610  68.672  1.00  0.00    -0.119 A  
HETATM   13  H   UNL     1     -12.522  12.553  67.246  1.00  0.00     0.000 HD 
HETATM   14  H   UNL     1      -8.970  16.917  69.216  1.00  0.00     0.000 HD 
HETATM   15  C   UNL     1      -9.190   7.496  68.226  1.00  0.00    -0.138 A  
HETATM   16  O   UNL     1     -11.839  11.896  67.314  1.00  0.00    -0.576 OA 
HETATM   17  C   UNL     1      -7.859  13.051  67.250  1.00  0.00    -0.127 A  
HETATM   18  C   UNL     1      -8.843   8.836  67.916  1.00  0.00    -0.136 A  
HETATM   19  O   UNL     1      -6.556  13.487  67.208  1.00  0.00    -0.405 OA 
HETATM   20  C   UNL     1      -8.167  11.675  67.417  1.00  0.00    -0.153 A  
HETATM   21  O   UNL     1     -11.026   9.526  67.284  1.00  0.00    -0.203 OA 
HETATM   22  C   UNL     1     -10.213  13.621  67.228  1.00  0.00    -0.246 A  
HETATM   23  C   UNL     1     -10.509  12.243  67.293  1.00  0.00    -0.218 A  
HETATM   24  C   UNL     1      -9.856   9.837  67.508  1.00  0.00    -0.167 C  
HETATM   25  C   UNL     1      -9.499  11.271  67.393  1.00  0.00    -0.175 A  
HETATM   26  H   UNL     1      -5.877  12.824  67.264  1.00  0.00     0.000 HD 
ENDROOT
BRANCH   1  27
HETATM   27  O   UNL     1     -11.458  14.532  68.905  1.00  0.00    -0.267 OA 
BRANCH  27  28
HETATM   28  C   UNL     1     -12.739  14.640  69.504  1.00  0.00     0.139 C  
HETATM   29  O   UNL     1     -12.686  15.596  70.590  1.00  0.00    -0.454 OA 
HETATM   30  C   UNL     1     -11.914  16.218  72.829  1.00  0.00    -0.636 C  
HETATM   31  C   UNL     1     -12.670  13.886  72.316  1.00  0.00    -0.211 C  
HETATM   32  O   UNL     1     -14.054  14.144  72.612  1.00  0.00    -0.617 OA 
HETATM   33  H   UNL     1     -14.126  14.811  73.285  1.00  0.00     0.000 HD 
HETATM   34  C   UNL     1     -12.552  12.810  71.230  1.00  0.00    -0.250 C  
HETATM   35  C   UNL     1     -11.985  15.135  71.754  1.00  0.00    -0.382 C  
HETATM   36  C   UNL     1     -13.275  13.274  69.963  1.00  0.00     1.003 C  
BRANCH  34  37
HETATM   37  N   UNL     1     -13.015  11.512  71.714  1.00  0.00    -0.438 N  
HETATM   38  H   UNL     1     -13.847  11.450  72.300  1.00  0.00     0.000 HD 
HETATM   39  C   UNL     1     -12.817   9.048  72.002  1.00  0.00    -0.401 C  
HETATM   40  F   UNL     1     -13.327   8.188  71.082  1.00  0.00    -0.279 F  
HETATM   41  O   UNL     1     -11.335  10.403  70.615  1.00  0.00    -0.319 OA 
HETATM   42  F   UNL     1     -11.833   8.381  72.667  1.00  0.00    -0.432 F  
HETATM   43  F   UNL     1     -13.807   9.274  72.915  1.00  0.00    -0.449 F  
HETATM   44  C   UNL     1     -12.309  10.356  71.370  1.00  0.00    -0.397 C  
ENDBRANCH  34  37
ENDBRANCH  27  28
ENDBRANCH   1  27
BRANCH   5  45
HETATM   45  C   UNL     1      -9.159  17.973  67.191  1.00  0.00    -0.256 C  
HETATM   46  O   UNL     1      -8.787  18.290  66.048  1.00  0.00    -0.502 OA 
BRANCH  45  47
HETATM   47  C   UNL     1      -8.827  18.922  68.345  1.00  0.00    -0.344 C  
BRANCH  47  48
HETATM   48  O   UNL     1      -7.920  19.985  68.107  1.00  0.00    -0.287 OA 
BRANCH  48  49
HETATM   49  C   UNL     1      -6.737  19.862  68.765  1.00  0.00    -0.323 C  
HETATM   50  O   UNL     1      -6.578  20.045  69.962  1.00  0.00    -0.356 OA 
BRANCH  49  51
HETATM   51  C   UNL     1      -5.656  19.427  67.809  1.00  0.00    -0.191 C  
BRANCH  51  52
HETATM   52  C   UNL     1      -5.607  17.908  67.670  1.00  0.00    -0.145 C  
BRANCH  52  53
HETATM   53  C   UNL     1      -5.175  17.223  68.969  1.00  0.00    -0.152 C  
HETATM   54  C   UNL     1      -6.224  16.252  69.480  1.00  0.00    -0.186 C  
ENDBRANCH  52  53
ENDBRANCH  51  52
ENDBRANCH  49  51
ENDBRANCH  48  49
ENDBRANCH  47  48
ENDBRANCH  45  47
ENDBRANCH   5  45
BRANCH  15  55
HETATM   55  O   UNL     1     -10.510   7.125  68.152  1.00  0.00    -0.188 OA 
HETATM   56  C   UNL     1     -11.036   6.355  69.229  1.00  0.00    -0.356 C  
ENDBRANCH  15  55
TORSDOF 11
ENDMDL
MODEL        4
REMARK 921   NORMALIZED FREE ENERGY PREDICTED BY IDOCK:   -7.05 KCAL/MOL
REMARK 922        TOTAL FREE ENERGY PREDICTED BY IDOCK:  -15.13 KCAL/MOL
REMARK 923 INTER-LIGAND FREE ENERGY PREDICTED BY IDOCK:  -12.55 KCAL/MOL
REMARK 924 INTRA-LIGAND FREE ENERGY PREDICTED BY IDOCK:   -2.59 KCAL/MOL
REMARK 927      BINDING AFFINITY PREDICTED BY RF-SCORE:    0.00 PKD
ROOT
HETATM    1  C   UNL     1     -10.788  11.496  68.464  1.00  0.00    -0.215 C  
HETATM    2  O   UNL     1      -9.996   5.022  68.179  1.00  0.00    -0.153 OA 
HETATM    3  C   UNL     1     -11.254  11.888  69.895  1.00  0.00    -0.051 C  
HETATM    4  C   UNL     1      -9.551   5.928  67.471  1.00  0.00    -0.112 C  
HETATM    5  C   UNL     1     -12.295  10.900  70.412  1.00  0.00    -0.351 C  
HETATM    6  O   UNL     1     -13.400  10.938  69.491  1.00  0.00    -0.046 OA 
HETATM    7  C   UNL     1     -11.632   9.489  70.484  1.00  0.00    -0.316 C  
HETATM    8  C   UNL     1      -8.879   5.589  66.174  1.00  0.00    -0.139 A  
HETATM    9  C   UNL     1      -8.886   4.264  65.708  1.00  0.00    -0.121 A  
HETATM   10  C   UNL     1     -10.783   9.083  69.278  1.00  0.00    -0.189 A  
HETATM   11  C   UNL     1      -8.290   3.936  64.487  1.00  0.00    -0.098 A  
HETATM   12  C   UNL     1      -7.652   4.918  63.732  1.00  0.00    -0.066 A  
HETATM   13  H   UNL     1      -9.088  11.606  66.766  1.00  0.00     0.000 HD 
HETATM   14  H   UNL     1     -14.049  10.323  69.813  1.00  0.00     0.000 HD 
HETATM   15  C   UNL     1      -7.606   6.238  64.194  1.00  0.00    -0.098 A  
HETATM   16  O   UNL     1      -8.908  10.694  66.572  1.00  0.00    -0.145 OA 
HETATM   17  C   UNL     1     -10.496   7.726  68.991  1.00  0.00    -0.205 A  
HETATM   18  C   UNL     1      -8.252   6.580  65.410  1.00  0.00    -0.135 A  
HETATM   19  O   UNL     1     -11.034   6.783  69.835  1.00  0.00    -0.251 OA 
HETATM   20  C   UNL     1      -9.728   7.345  67.859  1.00  0.00    -0.166 A  
HETATM   21  O   UNL     1      -7.662   8.880  65.374  1.00  0.00    -0.088 OA 
HETATM   22  C   UNL     1     -10.261  10.068  68.418  1.00  0.00    -0.196 A  
HETATM   23  C   UNL     1      -9.417   9.684  67.355  1.00  0.00    -0.142 A  
HETATM   24  C   UNL     1      -8.298   7.974  65.910  1.00  0.00    -0.134 C  
HETATM   25  C   UNL     1      -9.152   8.333  67.067  1.00  0.00    -0.172 A  
HETATM   26  H   UNL     1     -10.842   5.872  69.642  1.00  0.00     0.000 HD 
ENDROOT
BRANCH   1  27
HETATM   27  O   UNL     1     -11.793  11.439  67.437  1.00  0.00    -0.609 OA 
BRANCH  27  28
HETATM   28  C   UNL     1     -12.282  12.640  66.864  1.00  0.00     0.037 C  
HETATM   29  O   UNL     1     -12.619  12.412  65.475  1.00  0.00    -0.616 OA 
HETATM   30  C   UNL     1     -11.920  11.949  63.174  1.00  0.00    -0.287 C  
HETATM   31  C   UNL     1     -10.623  13.514  64.636  1.00  0.00    -0.427 C  
HETATM   32  O   UNL     1     -11.391  14.675  64.276  1.00  0.00    -0.608 OA 
HETATM   33  H   UNL     1     -11.710  14.593  63.385  1.00  0.00     0.000 HD 
HETATM   34  C   UNL     1     -10.108  13.646  66.076  1.00  0.00    -0.312 C  
HETATM   35  C   UNL     1     -11.487  12.250  64.608  1.00  0.00    -0.336 C  
HETATM   36  C   UNL     1     -11.290  13.802  67.034  1.00  0.00    -0.345 C  
BRANCH  34  37
HETATM   37  N   UNL     1      -9.125  14.720  66.192  1.00  0.00    -0.496 N  
HETATM   38  H   UNL     1      -9.096  15.467  65.500  1.00  0.00     0.000 HD 
HETATM   39  C   UNL     1      -7.166  15.834  67.248  1.00  0.00    -0.219 C  
HETATM   40  F   UNL     1      -7.323  16.710  68.276  1.00  0.00    -0.157 F  
HETATM   41  O   UNL     1      -8.278  13.852  68.140  1.00  0.00    -0.139 OA 
HETATM   42  F   UNL     1      -5.898  15.345  67.333  1.00  0.00    -0.149 F  
HETATM   43  F   UNL     1      -7.215  16.569  66.099  1.00  0.00    -0.241 F  
HETATM   44  C   UNL     1      -8.223  14.715  67.260  1.00  0.00    -0.212 C  
ENDBRANCH  34  37
ENDBRANCH  27  28
ENDBRANCH   1  27
BRANCH   5  45
HETATM   45  C   UNL     1     -13.085  11.159  71.717  1.00  0.00    -0.431 C  
HETATM   46  O   UNL     1     -13.475  10.186  72.384  1.00  0.00    -0.338 OA 
BRANCH  45  47
HETATM   47  C   UNL     1     -13.660  12.537  72.050  1.00  0.00    -0.291 C  
BRANCH  47  48
HETATM   48  O   UNL     1     -12.962  13.356  72.973  1.00  0.00    -0.248 OA 
BRANCH  48  49
HETATM   49  C   UNL     1     -12.977  14.680  72.661  1.00  0.00    -0.443 C  
HETATM   50  O   UNL     1     -13.921  15.433  72.843  1.00  0.00    -0.462 OA 
BRANCH  49  51
HETATM   51  C   UNL     1     -11.643  15.093  72.094  1.00  0.00    -0.490 C  
BRANCH  51  52
HETATM   52  C   UNL     1     -11.786  15.674  70.689  1.00  0.00    -0.398 C  
BRANCH  52  53
HETATM   53  C   UNL     1     -10.429  15.893  70.015  1.00  0.00    -0.295 C  
HETATM   54  C   UNL     1     -10.510  16.895  68.878  1.00  0.00    -0.346 C  
ENDBRANCH  52  53
ENDBRANCH  51  52
ENDBRANCH  49  51
ENDBRANCH  48  49
ENDBRANCH  47  48
ENDBRANCH  45  47
ENDBRANCH   5  45
BRANCH  15  55
HETATM   55  O   UNL     1      -7.014   7.235  63.461  1.00  0.00    -0.057 OA 
HETATM   56  C   UNL     1      -5.761   6.943  62.848  1.00  0.00    -0.039 C  
ENDBRANCH  15  55
TORSDOF 11
ENDMDL
MODEL        5
REMARK 921   NORMALIZED FREE ENERGY PREDICTED BY IDOCK:   -7.00 KCAL/MOL
REMARK 922        TOTAL FREE ENERGY PREDICTED BY IDOCK:  -15.05 KCAL/MOL
REMARK 923 INTER-LIGAND FREE ENERGY PREDICTED BY IDOCK:  -12.00 KCAL/MOL
REMARK 924 INTRA-LIGAND FREE ENERGY PREDICTED BY IDOCK:   -3.05 KCAL/MOL
REMARK 927      BINDING AFFINITY PREDICTED BY RF-SCORE:    0.00 PKD
ROOT
HETATM    1  C   UNL     1      -8.976  11.503  68.237  1.00  0.00    -0.177 C  
HETATM    2  O   UNL     1     -13.134   8.020  71.870  1.00  0.00    -0.324 OA 
HETATM    3  C   UNL     1      -9.601  12.897  67.944  1.00  0.00    -0.215 C  
HETATM    4  C   UNL     1     -11.920   7.907  71.689  1.00  0.00    -0.294 C  
HETATM    5  C   UNL     1     -11.084  12.761  67.610  1.00  0.00    -0.258 C  
HETATM    6  O   UNL     1     -11.176  11.910  66.453  1.00  0.00    -0.307 OA 
HETATM    7  C   UNL     1     -11.807  12.152  68.852  1.00  0.00    -0.358 C  
HETATM    8  C   UNL     1     -11.216   6.670  72.162  1.00  0.00    -0.299 A  
HETATM    9  C   UNL     1     -11.959   5.596  72.677  1.00  0.00    -0.120 A  
HETATM   10  C   UNL     1     -11.106  10.973  69.528  1.00  0.00    -0.322 A  
HETATM   11  C   UNL     1     -11.320   4.425  73.096  1.00  0.00    -0.282 A  
HETATM   12  C   UNL     1      -9.933   4.323  73.036  1.00  0.00    -0.196 A  
HETATM   13  H   UNL     1      -7.240  10.226  69.307  1.00  0.00     0.000 HD 
HETATM   14  H   UNL     1     -12.099  11.827  66.245  1.00  0.00     0.000 HD 
HETATM   15  C   UNL     1      -9.172   5.395  72.556  1.00  0.00    -0.136 A  
HETATM   16  O   UNL     1      -7.720   9.608  69.846  1.00  0.00    -0.106 OA 
HETATM   17  C   UNL     1     -11.810  10.057  70.347  1.00  0.00    -0.262 A  
HETATM   18  C   UNL     1      -9.822   6.565  72.087  1.00  0.00    -0.167 A  
HETATM   19  O   UNL     1     -13.162  10.261  70.493  1.00  0.00    -0.542 OA 
HETATM   20  C   UNL     1     -11.166   8.948  70.957  1.00  0.00    -0.342 A  
HETATM   21  O   UNL     1      -7.842   7.747  71.520  1.00  0.00    -0.082 OA 
HETATM   22  C   UNL     1      -9.724  10.775  69.346  1.00  0.00    -0.088 A  
HETATM   23  C   UNL     1      -9.076   9.728  70.036  1.00  0.00    -0.223 A  
HETATM   24  C   UNL     1      -9.072   7.700  71.502  1.00  0.00    -0.132 C  
HETATM   25  C   UNL     1      -9.786   8.814  70.834  1.00  0.00    -0.278 A  
HETATM   26  H   UNL     1     -13.634   9.647  71.043  1.00  0.00     0.000 HD 
ENDROOT
BRANCH   1  27
HETATM   27  O   UNL     1      -9.037  10.520  67.189  1.00  0.00    -0.143 OA 
BRANCH  27  28
HETATM   28  C   UNL     1      -7.882  10.249  66.411  1.00  0.00    -0.119 C  
HETATM   29  O   UNL     1      -8.051  10.804  65.085  1.00  0.00    -0.113 OA 
HETATM   30  C   UNL     1      -9.163  10.778  62.903  1.00  0.00    -0.336 C  
HETATM   31  C   UNL     1      -8.527   8.652  64.062  1.00  0.00    -0.066 C  
HETATM   32  O   UNL     1      -7.204   8.603  63.501  1.00  0.00    -0.092 OA 
HETATM   33  H   UNL     1      -7.199   9.002  62.639  1.00  0.00     0.000 HD 
HETATM   34  C   UNL     1      -8.535   8.008  65.455  1.00  0.00    -0.144 C  
HETATM   35  C   UNL     1      -8.989  10.098  64.260  1.00  0.00    -0.237 C  
HETATM   36  C   UNL     1      -7.557   8.747  66.371  1.00  0.00    -0.091 C  
BRANCH  34  37
HETATM   37  N   UNL     1      -8.281   6.572  65.378  1.00  0.00    -0.132 N  
HETATM   38  H   UNL     1      -7.429   6.224  64.940  1.00  0.00     0.000 HD 
HETATM   39  C   UNL     1      -8.905   4.185  65.701  1.00  0.00    -0.122 C  
HETATM   40  F   UNL     1      -8.640   3.538  66.867  1.00  0.00    -0.099 F  
HETATM   41  O   UNL     1     -10.222   6.079  66.497  1.00  0.00    -0.181 OA 
HETATM   42  F   UNL     1      -9.936   3.524  65.106  1.00  0.00    -0.169 F  
HETATM   43  F   UNL     1      -7.818   3.997  64.896  1.00  0.00    -0.084 F  
HETATM   44  C   UNL     1      -9.214   5.678  65.911  1.00  0.00    -0.132 C  
ENDBRANCH  34  37
ENDBRANCH  27  28
ENDBRANCH   1  27
BRANCH   5  45
HETATM   45  C   UNL     1     -11.909  13.955  67.074  1.00  0.00    -0.415 C  
HETATM   46  O   UNL     1     -12.640  13.782  66.084  1.00  0.00    -0.438 OA 
BRANCH  45  47
HETATM   47  C   UNL     1     -11.629  15.392  67.520  1.00  0.00    -0.169 C  
BRANCH  47  48
HETATM   48  O   UNL     1     -11.947  15.761  68.852  1.00  0.00    -0.382 OA 
BRANCH  48  49
HETATM   49  C   UNL     1     -10.861  15.969  69.644  1.00  0.00    -0.329 C  
HETATM   50  O   UNL     1      -9.788  16.408  69.260  1.00  0.00    -0.259 OA 
BRANCH  49  51
HETATM   51  C   UNL     1     -11.188  15.617  71.072  1.00  0.00    -0.411 C  
BRANCH  51  52
HETATM   52  C   UNL     1     -12.682  15.364  71.261  1.00  0.00    -0.501 C  
BRANCH  52  53
HETATM   53  C   UNL     1     -12.976  14.572  72.537  1.00  0.00    -0.500 C  
HETATM   54  C   UNL     1     -13.871  13.375  72.273  1.00  0.00    -0.671 C  
ENDBRANCH  52  53
ENDBRANCH  51  52
ENDBRANCH  49  51
ENDBRANCH  48  49
ENDBRANCH  47  48
ENDBRANCH  45  47
ENDBRANCH   5  45
BRANCH  15  55
HETATM   55  O   UNL     1      -7.805   5.316  72.454  1.00  0.00    -0.099 OA 
HETATM   56  C   UNL     1      -7.261   4.179  71.790  1.00  0.00    -0.054 C  
ENDBRANCH  15  55
TORSDOF 11
ENDMDL
MODEL        6
REMARK 921   NORMALIZED FREE ENERGY PREDICTED BY IDOCK:   -6.93 KCAL/MOL
REMARK 922        TOTAL FREE ENERGY PREDICTED BY IDOCK:  -14.93 KCAL/MOL
REMARK 923 INTER-LIGAND FREE ENERGY PREDICTED BY IDOCK:  -11.99 KCAL/MOL
REMARK 924 INTRA-LIGAND FREE ENERGY PREDICTED BY IDOCK:   -2.94 KCAL/MOL
REMARK 927      BINDING AFFINITY PREDICTED BY RF-SCORE:    0.00 PKD
ROOT
HETATM    1  C   UNL     1      -9.593  13.862  67.104  1.00  0.00    -0.247 C  
HETATM    2  O   UNL     1      -5.341   9.096  68.458  1.00  0.00    -0.037 OA 
HETATM    3  C   UNL     1      -8.814  15.192  66.892  1.00  0.00    -0.284 C  
HETATM    4  C   UNL     1      -6.500   9.057  68.041  1.00  0.00    -0.060 C  
HETATM    5  C   UNL     1      -7.705  15.337  67.931  1.00  0.00    -0.136 C  
HETATM    6  O   UNL     1      -8.339  15.320  69.223  1.00  0.00    -0.219 OA 
HETATM    7  C   UNL     1      -6.707  14.152  67.744  1.00  0.00    -0.190 C  
HETATM    8  C   UNL     1      -7.230   7.748  68.006  1.00  0.00    -0.087 A  
HETATM    9  C   UNL     1      -6.644   6.606  68.577  1.00  0.00    -0.051 A  
HETATM   10  C   UNL     1      -7.332  12.771  67.541  1.00  0.00    -0.153 A  
HETATM   11  C   UNL     1      -7.323   5.383  68.579  1.00  0.00    -0.075 A  
HETATM   12  C   UNL     1      -8.578   5.277  67.984  1.00  0.00    -0.103 A  
HETATM   13  H   UNL     1     -10.972  12.130  66.164  1.00  0.00     0.000 HD 
HETATM   14  H   UNL     1      -7.649  15.411  69.869  1.00  0.00     0.000 HD 
HETATM   15  C   UNL     1      -9.164   6.395  67.382  1.00  0.00    -0.117 A  
HETATM   16  O   UNL     1     -10.487  11.335  66.349  1.00  0.00    -0.241 OA 
HETATM   17  C   UNL     1      -6.611  11.580  67.798  1.00  0.00    -0.068 A  
HETATM   18  C   UNL     1      -8.498   7.647  67.421  1.00  0.00    -0.122 A  
HETATM   19  O   UNL     1      -5.324  11.719  68.262  1.00  0.00    -0.043 OA 
HETATM   20  C   UNL     1      -7.197  10.297  67.632  1.00  0.00    -0.087 A  
HETATM   21  O   UNL     1     -10.150   8.855  66.217  1.00  0.00    -0.293 OA 
HETATM   22  C   UNL     1      -8.659  12.658  67.084  1.00  0.00    -0.199 A  
HETATM   23  C   UNL     1      -9.198  11.379  66.828  1.00  0.00    -0.177 A  
HETATM   24  C   UNL     1      -9.103   8.878  66.864  1.00  0.00    -0.133 C  
HETATM   25  C   UNL     1      -8.480  10.202  67.103  1.00  0.00    -0.125 A  
HETATM   26  H   UNL     1      -4.839  10.920  68.435  1.00  0.00     0.000 HD 
ENDROOT
BRANCH   1  27
HETATM   27  O   UNL     1     -10.240  13.673  68.374  1.00  0.00    -0.236 OA 
BRANCH  27  28
HETATM   28  C   UNL     1     -11.636  13.892  68.491  1.00  0.00    -0.332 C  
HETATM   29  O   UNL     1     -11.875  15.073  69.292  1.00  0.00    -0.299 OA 
HETATM   30  C   UNL     1     -11.816  16.209  71.461  1.00  0.00    -0.528 C  
HETATM   31  C   UNL     1     -12.502  13.809  71.270  1.00  0.00    -0.345 C  
HETATM   32  O   UNL     1     -13.891  14.102  71.041  1.00  0.00    -0.236 OA 
HETATM   33  H   UNL     1     -14.135  14.904  71.488  1.00  0.00     0.000 HD 
HETATM   34  C   UNL     1     -12.109  12.513  70.549  1.00  0.00    -0.274 C  
HETATM   35  C   UNL     1     -11.605  14.906  70.692  1.00  0.00    -0.291 C  
HETATM   36  C   UNL     1     -12.366  12.659  69.048  1.00  0.00     0.169 C  
BRANCH  34  37
HETATM   37  N   UNL     1     -12.774  11.353  71.138  1.00  0.00    -0.401 N  
HETATM   38  H   UNL     1     -13.724  11.434  71.498  1.00  0.00     0.000 HD 
HETATM   39  C   UNL     1     -12.843   8.993  71.924  1.00  0.00    -0.387 C  
HETATM   40  F   UNL     1     -13.184   7.980  71.084  1.00  0.00    -0.289 F  
HETATM   41  O   UNL     1     -10.971   9.997  70.721  1.00  0.00    -0.313 OA 
HETATM   42  F   UNL     1     -12.102   8.446  72.926  1.00  0.00    -0.455 F  
HETATM   43  F   UNL     1     -14.002   9.427  72.501  1.00  0.00    -0.455 F  
HETATM   44  C   UNL     1     -12.098  10.132  71.204  1.00  0.00    -0.388 C  
ENDBRANCH  34  37
ENDBRANCH  27  28
ENDBRANCH   1  27
BRANCH   5  45
HETATM   45  C   UNL     1      -6.909  16.654  68.091  1.00  0.00    -0.144 C  
HETATM   46  O   UNL     1      -6.641  17.056  69.236  1.00  0.00    -0.215 OA 
BRANCH  45  47
HETATM   47  C   UNL     1      -6.711  17.622  66.922  1.00  0.00    -0.177 C  
BRANCH  47  48
HETATM   48  O   UNL     1      -6.667  19.013  67.197  1.00  0.00    -0.197 OA 
BRANCH  48  49
HETATM   49  C   UNL     1      -7.520  19.754  66.442  1.00  0.00    -0.284 C  
HETATM   50  O   UNL     1      -7.492  19.830  65.223  1.00  0.00    -0.378 OA 
BRANCH  49  51
HETATM   51  C   UNL     1      -8.532  20.438  67.325  1.00  0.00    -0.405 C  
BRANCH  51  52
HETATM   52  C   UNL     1      -9.961  20.130  66.884  1.00  0.00    -0.600 C  
BRANCH  52  53
HETATM   53  C   UNL     1     -10.405  18.727  67.303  1.00  0.00    -0.469 C  
HETATM   54  C   UNL     1     -10.006  18.403  68.731  1.00  0.00    -0.404 C  
ENDBRANCH  52  53
ENDBRANCH  51  52
ENDBRANCH  49  51
ENDBRANCH  48  49
ENDBRANCH  47  48
ENDBRANCH  45  47
ENDBRANCH   5  45
BRANCH  15  55
HETATM   55  O   UNL     1     -10.413   6.334  66.815  1.00  0.00    -0.228 OA 
HETATM   56  C   UNL     1     -10.784   5.114  66.177  1.00  0.00    -0.185 C  
ENDBRANCH  15  55
TORSDOF 11
ENDMDL
MODEL        7
REMARK 921   NORMALIZED FREE ENERGY PREDICTED BY IDOCK:   -6.70 KCAL/MOL
REMARK 922        TOTAL FREE ENERGY PREDICTED BY IDOCK:  -14.55 KCAL/MOL
REMARK 923 INTER-LIGAND FREE ENERGY PREDICTED BY IDOCK:  -12.45 KCAL/MOL
REMARK 924 INTRA-LIGAND FREE ENERGY PREDICTED BY IDOCK:   -2.10 KCAL/MOL
REMARK 927      BINDING AFFINITY PREDICTED BY RF-SCORE:    0.00 PKD
ROOT
HETATM    1  C   UNL     1      -8.962  11.453  67.064  1.00  0.00    -0.166 C  
HETATM    2  O   UNL     1     -12.702   8.723  71.666  1.00  0.00    -0.321 OA 
HETATM    3  C   UNL     1      -9.772  12.571  66.348  1.00  0.00    -0.253 C  
HETATM    4  C   UNL     1     -11.479   8.741  71.517  1.00  0.00    -0.305 C  
HETATM    5  C   UNL     1     -11.206  12.117  66.092  1.00  0.00    -0.338 C  
HETATM    6  O   UNL     1     -11.130  10.939  65.268  1.00  0.00    -0.040 OA 
HETATM    7  C   UNL     1     -11.879  11.833  67.471  1.00  0.00    -0.227 C  
HETATM    8  C   UNL     1     -10.620   7.839  72.352  1.00  0.00    -0.336 A  
HETATM    9  C   UNL     1     -11.218   6.885  73.192  1.00  0.00    -0.156 A  
HETATM   10  C   UNL     1     -11.040  11.048  68.480  1.00  0.00    -0.297 A  
HETATM   11  C   UNL     1     -10.432   6.017  73.955  1.00  0.00    -0.272 A  
HETATM   12  C   UNL     1      -9.043   6.111  73.915  1.00  0.00    -0.133 A  
HETATM   13  H   UNL     1      -7.101  10.857  68.466  1.00  0.00     0.000 HD 
HETATM   14  H   UNL     1     -12.022  10.657  65.108  1.00  0.00     0.000 HD 
HETATM   15  C   UNL     1      -8.428   7.075  73.110  1.00  0.00    -0.117 A  
HETATM   16  O   UNL     1      -7.505  10.378  69.179  1.00  0.00    -0.090 OA 
HETATM   17  C   UNL     1     -11.633  10.345  69.557  1.00  0.00    -0.219 A  
HETATM   18  C   UNL     1      -9.224   7.925  72.299  1.00  0.00    -0.223 A  
HETATM   19  O   UNL     1     -13.004  10.380  69.645  1.00  0.00    -0.616 OA 
HETATM   20  C   UNL     1     -10.857   9.596  70.482  1.00  0.00    -0.371 A  
HETATM   21  O   UNL     1      -7.418   9.148  71.361  1.00  0.00    -0.280 OA 
HETATM   22  C   UNL     1      -9.638  11.011  68.356  1.00  0.00    -0.181 A  
HETATM   23  C   UNL     1      -8.870  10.348  69.336  1.00  0.00    -0.123 A  
HETATM   24  C   UNL     1      -8.626   8.914  71.373  1.00  0.00    -0.172 C  
HETATM   25  C   UNL     1      -9.469   9.638  70.392  1.00  0.00    -0.280 A  
HETATM   26  H   UNL     1     -13.402   9.909  70.368  1.00  0.00     0.000 HD 
ENDROOT
BRANCH   1  27
HETATM   27  O   UNL     1      -8.840  10.191  66.385  1.00  0.00    -0.141 OA 
BRANCH  27  28
HETATM   28  C   UNL     1      -7.564   9.739  65.965  1.00  0.00    -0.102 C  
HETATM   29  O   UNL     1      -7.499   9.746  64.520  1.00  0.00    -0.122 OA 
HETATM   30  C   UNL     1      -8.205   8.826  62.363  1.00  0.00    -0.176 C  
HETATM   31  C   UNL     1      -7.766   7.339  64.328  1.00  0.00    -0.124 C  
HETATM   32  O   UNL     1      -6.363   7.186  64.049  1.00  0.00    -0.042 OA 
HETATM   33  H   UNL     1      -6.209   7.234  63.112  1.00  0.00     0.000 HD 
HETATM   34  C   UNL     1      -8.015   7.260  65.840  1.00  0.00    -0.115 C  
HETATM   35  C   UNL     1      -8.269   8.715  63.885  1.00  0.00    -0.146 C  
HETATM   36  C   UNL     1      -7.223   8.359  66.551  1.00  0.00    -0.076 C  
BRANCH  34  37
HETATM   37  N   UNL     1      -7.738   5.922  66.356  1.00  0.00    -0.098 N  
HETATM   38  H   UNL     1      -6.815   5.695  66.723  1.00  0.00     0.000 HD 
HETATM   39  C   UNL     1      -8.336   3.552  66.821  1.00  0.00    -0.100 C  
HETATM   40  F   UNL     1      -8.951   3.194  67.979  1.00  0.00    -0.118 F  
HETATM   41  O   UNL     1      -9.888   5.228  65.959  1.00  0.00    -0.164 OA 
HETATM   42  F   UNL     1      -8.629   2.590  65.903  1.00  0.00    -0.094 F  
HETATM   43  F   UNL     1      -6.993   3.464  67.049  1.00  0.00    -0.050 F  
HETATM   44  C   UNL     1      -8.748   4.957  66.344  1.00  0.00    -0.113 C  
ENDBRANCH  34  37
ENDBRANCH  27  28
ENDBRANCH   1  27
BRANCH   5  45
HETATM   45  C   UNL     1     -12.176  12.941  65.212  1.00  0.00    -0.476 C  
HETATM   46  O   UNL     1     -13.142  12.365  64.684  1.00  0.00    -0.825 OA 
BRANCH  45  47
HETATM   47  C   UNL     1     -11.822  14.348  64.724  1.00  0.00    -0.433 C  
BRANCH  47  48
HETATM   48  O   UNL     1     -11.351  15.293  65.671  1.00  0.00    -0.301 OA 
BRANCH  48  49
HETATM   49  C   UNL     1     -10.902  16.453  65.121  1.00  0.00    -0.275 C  
HETATM   50  O   UNL     1     -11.322  16.946  64.085  1.00  0.00    -1.208 OA 
BRANCH  49  51
HETATM   51  C   UNL     1      -9.839  17.063  65.997  1.00  0.00    -0.263 C  
BRANCH  51  52
HETATM   52  C   UNL     1     -10.120  18.538  66.276  1.00  0.00    -0.422 C  
BRANCH  52  53
HETATM   53  C   UNL     1     -10.541  18.780  67.728  1.00  0.00    -0.452 C  
HETATM   54  C   UNL     1     -10.436  17.524  68.571  1.00  0.00    -0.361 C  
ENDBRANCH  52  53
ENDBRANCH  51  52
ENDBRANCH  49  51
ENDBRANCH  48  49
ENDBRANCH  47  48
ENDBRANCH  45  47
ENDBRANCH   5  45
BRANCH  15  55
HETATM   55  O   UNL     1      -7.062   7.174  73.023  1.00  0.00    -0.072 OA 
HETATM   56  C   UNL     1      -6.298   6.026  73.381  1.00  0.00    -0.064 C  
ENDBRANCH  15  55
TORSDOF 11
ENDMDL
MODEL        8
REMARK 921   NORMALIZED FREE ENERGY PREDICTED BY IDOCK:   -6.07 KCAL/MOL
REMARK 922        TOTAL FREE ENERGY PREDICTED BY IDOCK:  -13.53 KCAL/MOL
REMARK 923 INTER-LIGAND FREE ENERGY PREDICTED BY IDOCK:  -10.70 KCAL/MOL
REMARK 924 INTRA-LIGAND FREE ENERGY PREDICTED BY IDOCK:   -2.83 KCAL/MOL
REMARK 927      BINDING AFFINITY PREDICTED BY RF-SCORE:    0.00 PKD
ROOT
HETATM    1  C   UNL     1     -10.174   7.179  69.364  1.00  0.00    -0.189 C  
HETATM    2  O   UNL     1     -13.236  12.049  72.451  1.00  0.00    -0.354 OA 
HETATM    3  C   UNL     1     -10.608   5.825  69.995  1.00  0.00    -0.380 C  
HETATM    4  C   UNL     1     -12.698  11.999  71.343  1.00  0.00    -0.275 C  
HETATM    5  C   UNL     1     -10.671   5.936  71.515  1.00  0.00    -0.256 C  
HETATM    6  O   UNL     1      -9.354   6.304  71.962  1.00  0.00    -0.152 OA 
HETATM    7  C   UNL     1     -11.743   7.011  71.880  1.00  0.00    -0.333 C  
HETATM    8  C   UNL     1     -12.460  13.268  70.580  1.00  0.00    -0.332 A  
HETATM    9  C   UNL     1     -12.720  14.508  71.186  1.00  0.00    -0.408 A  
HETATM   10  C   UNL     1     -11.707   8.302  71.061  1.00  0.00    -0.293 A  
HETATM   11  C   UNL     1     -12.476  15.701  70.499  1.00  0.00    -0.440 A  
HETATM   12  C   UNL     1     -12.002  15.672  69.190  1.00  0.00    -0.329 A  
HETATM   13  H   UNL     1     -10.165   8.630  67.446  1.00  0.00     0.000 HD 
HETATM   14  H   UNL     1      -9.393   6.373  72.909  1.00  0.00     0.000 HD 
HETATM   15  C   UNL     1     -11.768  14.447  68.557  1.00  0.00    -0.335 A  
HETATM   16  O   UNL     1     -10.544   9.437  67.776  1.00  0.00    -0.252 OA 
HETATM   17  C   UNL     1     -12.284   9.504  71.537  1.00  0.00    -0.386 A  
HETATM   18  C   UNL     1     -11.969  13.237  69.269  1.00  0.00    -0.354 A  
HETATM   19  O   UNL     1     -12.862   9.467  72.784  1.00  0.00    -0.332 OA 
HETATM   20  C   UNL     1     -12.231  10.710  70.788  1.00  0.00    -0.474 A  
HETATM   21  O   UNL     1     -11.363  11.787  67.488  1.00  0.00    -0.274 OA 
HETATM   22  C   UNL     1     -11.090   8.317  69.795  1.00  0.00    -0.056 A  
HETATM   23  C   UNL     1     -11.131   9.494  69.017  1.00  0.00    -0.027 A  
HETATM   24  C   UNL     1     -11.669  11.914  68.674  1.00  0.00    -0.323 C  
HETATM   25  C   UNL     1     -11.691  10.688  69.506  1.00  0.00    -0.356 A  
HETATM   26  H   UNL     1     -13.249  10.274  73.104  1.00  0.00     0.000 HD 
ENDROOT
BRANCH   1  27
HETATM   27  O   UNL     1      -8.895   7.708  69.756  1.00  0.00    -0.139 OA 
BRANCH  27  28
HETATM   28  C   UNL     1      -7.713   7.207  69.153  1.00  0.00    -0.109 C  
HETATM   29  O   UNL     1      -6.580   8.000  69.579  1.00  0.00    -0.037 OA 
HETATM   30  C   UNL     1      -5.343  10.114  69.551  1.00  0.00    -0.038 C  
HETATM   31  C   UNL     1      -6.432   9.219  67.481  1.00  0.00    -0.063 C  
HETATM   32  O   UNL     1      -5.296   8.432  67.082  1.00  0.00    -0.035 OA 
HETATM   33  H   UNL     1      -4.492   8.849  67.370  1.00  0.00     0.000 HD 
HETATM   34  C   UNL     1      -7.731   8.547  67.016  1.00  0.00    -0.092 C  
HETATM   35  C   UNL     1      -6.526   9.315  69.006  1.00  0.00    -0.047 C  
HETATM   36  C   UNL     1      -7.832   7.145  67.621  1.00  0.00    -0.113 C  
BRANCH  34  37
HETATM   37  N   UNL     1      -7.841   8.555  65.559  1.00  0.00    -0.099 N  
HETATM   38  H   UNL     1      -7.609   7.721  65.022  1.00  0.00     0.000 HD 
HETATM   39  C   UNL     1      -8.265   9.659  63.370  1.00  0.00    -0.160 C  
HETATM   40  F   UNL     1      -9.516   9.722  62.843  1.00  0.00    -0.300 F  
HETATM   41  O   UNL     1      -8.611  10.716  65.543  1.00  0.00    -0.178 OA 
HETATM   42  F   UNL     1      -7.550  10.678  62.819  1.00  0.00    -0.145 F  
HETATM   43  F   UNL     1      -7.704   8.505  62.903  1.00  0.00    -0.102 F  
HETATM   44  C   UNL     1      -8.269   9.715  64.908  1.00  0.00    -0.143 C  
ENDBRANCH  34  37
ENDBRANCH  27  28
ENDBRANCH   1  27
BRANCH   5  45
HETATM   45  C   UNL     1     -10.871   4.692  72.414  1.00  0.00    -0.060 C  
HETATM   46  O   UNL     1     -11.746   4.725  73.296  1.00  0.00    -0.312 OA 
BRANCH  45  47
HETATM   47  C   UNL     1      -9.843   3.559  72.460  1.00  0.00    -0.155 C  
BRANCH  47  48
HETATM   48  O   UNL     1      -9.721   2.711  71.330  1.00  0.00    -0.153 OA 
BRANCH  48  49
HETATM   49  C   UNL     1      -8.679   3.021  70.514  1.00  0.00    -0.072 C  
HETATM   50  O   UNL     1      -7.821   3.855  70.759  1.00  0.00    -0.050 OA 
BRANCH  49  51
HETATM   51  C   UNL     1      -8.713   2.158  69.279  1.00  0.00    -0.125 C  
BRANCH  51  52
HETATM   52  C   UNL     1      -9.382   2.877  68.110  1.00  0.00    -0.258 C  
BRANCH  52  53
HETATM   53  C   UNL     1      -8.467   2.963  66.886  1.00  0.00    -0.102 C  
HETATM   54  C   UNL     1      -8.921   4.028  65.906  1.00  0.00    -0.128 C  
ENDBRANCH  52  53
ENDBRANCH  51  52
ENDBRANCH  49  51
ENDBRANCH  48  49
ENDBRANCH  47  48
ENDBRANCH  45  47
ENDBRANCH   5  45
BRANCH  15  55
HETATM   55  O   UNL     1     -11.271  14.382  67.278  1.00  0.00    -0.300 OA 
HETATM   56  C   UNL     1     -10.302  15.355  66.902  1.00  0.00    -0.277 C  
ENDBRANCH  15  55
TORSDOF 11
ENDMDL
MODEL        9
REMARK 921   NORMALIZED FREE ENERGY PREDICTED BY IDOCK:   -5.95 KCAL/MOL
REMARK 922        TOTAL FREE ENERGY PREDICTED BY IDOCK:  -13.32 KCAL/MOL
REMARK 923 INTER-LIGAND FREE ENERGY PREDICTED BY IDOCK:  -10.44 KCAL/MOL
REMARK 924 INTRA-LIGAND FREE ENERGY PREDICTED BY IDOCK:   -2.88 KCAL/MOL
REMARK 927      BINDING AFFINITY PREDICTED BY RF-SCORE:    0.00 PKD
ROOT
HETATM    1  C   UNL     1     -10.064   7.055  69.665  1.00  0.00    -0.186 C  
HETATM    2  O   UNL     1     -13.165  12.330  71.941  1.00  0.00    -0.473 OA 
HETATM    3  C   UNL     1     -10.598   5.794  70.402  1.00  0.00    -0.365 C  
HETATM    4  C   UNL     1     -12.546  12.140  70.893  1.00  0.00    -0.247 C  
HETATM    5  C   UNL     1     -10.774   6.076  71.892  1.00  0.00    -0.234 C  
HETATM    6  O   UNL     1      -9.482   6.453  72.401  1.00  0.00    -0.145 OA 
HETATM    7  C   UNL     1     -11.828   7.217  72.048  1.00  0.00    -0.333 C  
HETATM    8  C   UNL     1     -12.200  13.307  70.017  1.00  0.00    -0.345 A  
HETATM    9  C   UNL     1     -12.458  14.615  70.461  1.00  0.00    -0.408 A  
HETATM   10  C   UNL     1     -11.679   8.406  71.098  1.00  0.00    -0.315 A  
HETATM   11  C   UNL     1     -12.116  15.715  69.670  1.00  0.00    -0.329 A  
HETATM   12  C   UNL     1     -11.544  15.525  68.415  1.00  0.00    -0.368 A  
HETATM   13  H   UNL     1      -9.851   8.281  67.606  1.00  0.00     0.000 HD 
HETATM   14  H   UNL     1      -9.592   6.628  73.328  1.00  0.00     0.000 HD 
HETATM   15  C   UNL     1     -11.309  14.230  67.940  1.00  0.00    -0.297 A  
HETATM   16  O   UNL     1     -10.222   9.130  67.814  1.00  0.00    -0.197 OA 
HETATM   17  C   UNL     1     -12.244   9.671  71.392  1.00  0.00    -0.385 A  
HETATM   18  C   UNL     1     -11.611  13.115  68.762  1.00  0.00    -0.348 A  
HETATM   19  O   UNL     1     -12.918   9.791  72.584  1.00  0.00    -0.408 OA 
HETATM   20  C   UNL     1     -12.087  10.783  70.522  1.00  0.00    -0.459 A  
HETATM   21  O   UNL     1     -10.926  11.457  67.206  1.00  0.00    -0.249 OA 
HETATM   22  C   UNL     1     -10.966   8.261  69.893  1.00  0.00    -0.166 A  
HETATM   23  C   UNL     1     -10.901   9.344  68.990  1.00  0.00    -0.136 A  
HETATM   24  C   UNL     1     -11.317  11.725  68.341  1.00  0.00    -0.270 C  
HETATM   25  C   UNL     1     -11.451  10.601  69.298  1.00  0.00    -0.351 A  
HETATM   26  H   UNL     1     -13.298  10.640  72.781  1.00  0.00     0.000 HD 
ENDROOT
BRANCH   1  27
HETATM   27  O   UNL     1      -8.800   7.586  70.099  1.00  0.00    -0.145 OA 
BRANCH  27  28
HETATM   28  C   UNL     1      -7.598   6.932  69.726  1.00  0.00    -0.104 C  
HETATM   29  O   UNL     1      -6.645   7.909  69.244  1.00  0.00    -0.035 OA 
HETATM   30  C   UNL     1      -5.945   9.524  67.541  1.00  0.00    -0.052 C  
HETATM   31  C   UNL     1      -6.990   7.339  66.907  1.00  0.00    -0.077 C  
HETATM   32  O   UNL     1      -5.746   6.618  66.879  1.00  0.00    -0.013 OA 
HETATM   33  H   UNL     1      -5.037   7.197  66.624  1.00  0.00     0.000 HD 
HETATM   34  C   UNL     1      -8.135   6.404  67.319  1.00  0.00    -0.113 C  
HETATM   35  C   UNL     1      -6.956   8.456  67.954  1.00  0.00    -0.078 C  
HETATM   36  C   UNL     1      -7.847   5.814  68.701  1.00  0.00    -0.097 C  
BRANCH  34  37
HETATM   37  N   UNL     1      -8.385   5.388  66.299  1.00  0.00    -0.113 N  
HETATM   38  H   UNL     1      -7.626   5.063  65.701  1.00  0.00     0.000 HD 
HETATM   39  C   UNL     1      -9.860   3.872  64.989  1.00  0.00    -0.192 C  
HETATM   40  F   UNL     1     -10.139   2.613  65.421  1.00  0.00     0.151 F  
HETATM   41  O   UNL     1     -10.591   5.203  66.900  1.00  0.00    -0.245 OA 
HETATM   42  F   UNL     1     -10.872   4.238  64.155  1.00  0.00    -0.216 F  
HETATM   43  F   UNL     1      -8.741   3.777  64.212  1.00  0.00    -0.101 F  
HETATM   44  C   UNL     1      -9.673   4.866  66.149  1.00  0.00    -0.190 C  
ENDBRANCH  34  37
ENDBRANCH  27  28
ENDBRANCH   1  27
BRANCH   5  45
HETATM   45  C   UNL     1     -11.091   4.948  72.901  1.00  0.00    -0.256 C  
HETATM   46  O   UNL     1     -12.278   4.702  73.172  1.00  0.00    -0.035 OA 
BRANCH  45  47
HETATM   47  C   UNL     1     -10.007   4.341  73.796  1.00  0.00    -0.133 C  
BRANCH  47  48
HETATM   48  O   UNL     1      -8.878   3.745  73.181  1.00  0.00    -0.093 OA 
BRANCH  48  49
HETATM   49  C   UNL     1      -9.165   2.634  72.452  1.00  0.00    -0.089 C  
HETATM   50  O   UNL     1      -9.832   1.690  72.846  1.00  0.00    -0.084 OA 
BRANCH  49  51
HETATM   51  C   UNL     1      -8.574   2.754  71.070  1.00  0.00    -0.107 C  
BRANCH  51  52
HETATM   52  C   UNL     1      -9.269   1.824  70.080  1.00  0.00    -0.169 C  
BRANCH  52  53
HETATM   53  C   UNL     1      -9.119   2.304  68.634  1.00  0.00    -0.202 C  
HETATM   54  C   UNL     1      -7.700   2.142  68.122  1.00  0.00    -0.054 C  
ENDBRANCH  52  53
ENDBRANCH  51  52
ENDBRANCH  49  51
ENDBRANCH  48  49
ENDBRANCH  47  48
ENDBRANCH  45  47
ENDBRANCH   5  45
BRANCH  15  55
HETATM   55  O   UNL     1     -10.718  14.008  66.721  1.00  0.00    -0.282 OA 
HETATM   56  C   UNL     1      -9.473  14.654  66.469  1.00  0.00    -0.297 C  
ENDBRANCH  15  55
TORSDOF 11
ENDMDL
MODEL       10
REMARK 921   NORMALIZED FREE ENERGY PREDICTED BY IDOCK:   -5.86 KCAL/MOL
REMARK 922        TOTAL FREE ENERGY PREDICTED BY IDOCK:  -13.18 KCAL/MOL
REMARK 923 INTER-LIGAND FREE ENERGY PREDICTED BY IDOCK:  -12.39 KCAL/MOL
REMARK 924 INTRA-LIGAND FREE ENERGY PREDICTED BY IDOCK:   -0.79 KCAL/MOL
REMARK 927      BINDING AFFINITY PREDICTED BY RF-SCORE:    0.00 PKD
ROOT
HETATM    1  C   UNL     1      -9.422  12.096  67.397  1.00  0.00    -0.179 C  
HETATM    2  O   UNL     1      -7.019   8.821  72.508  1.00  0.00    -0.279 OA 
HETATM    3  C   UNL     1      -8.280  12.927  66.744  1.00  0.00     0.084 C  
HETATM    4  C   UNL     1      -8.033   8.642  71.831  1.00  0.00    -0.076 C  
HETATM    5  C   UNL     1      -7.409  13.579  67.814  1.00  0.00    -0.163 C  
HETATM    6  O   UNL     1      -8.271  14.427  68.594  1.00  0.00    -0.147 OA 
HETATM    7  C   UNL     1      -6.761  12.446  68.669  1.00  0.00    -0.083 C  
HETATM    8  C   UNL     1      -9.073   7.670  72.302  1.00  0.00    -0.183 A  
HETATM    9  C   UNL     1      -8.954   7.079  73.571  1.00  0.00    -0.178 A  
HETATM   10  C   UNL     1      -7.688  11.304  69.086  1.00  0.00    -0.047 A  
HETATM   11  C   UNL     1      -9.930   6.192  74.037  1.00  0.00    -0.255 A  
HETATM   12  C   UNL     1     -11.017   5.860  73.233  1.00  0.00    -0.267 A  
HETATM   13  H   UNL     1     -11.005  10.296  67.206  1.00  0.00     0.000 HD 
HETATM   14  H   UNL     1      -7.729  14.833  69.260  1.00  0.00     0.000 HD 
HETATM   15  C   UNL     1     -11.137   6.413  71.954  1.00  0.00    -0.268 A  
HETATM   16  O   UNL     1     -10.806   9.745  67.954  1.00  0.00    -0.266 OA 
HETATM   17  C   UNL     1      -7.391  10.467  70.190  1.00  0.00    -0.036 A  
HETATM   18  C   UNL     1     -10.173   7.349  71.498  1.00  0.00    -0.205 A  
HETATM   19  O   UNL     1      -6.238  10.740  70.887  1.00  0.00    -0.342 OA 
HETATM   20  C   UNL     1      -8.262   9.420  70.594  1.00  0.00    -0.207 A  
HETATM   21  O   UNL     1     -11.147   7.700  69.361  1.00  0.00    -0.126 OA 
HETATM   22  C   UNL     1      -8.874  11.058  68.367  1.00  0.00    -0.151 A  
HETATM   23  C   UNL     1      -9.681   9.954  68.716  1.00  0.00    -0.160 A  
HETATM   24  C   UNL     1     -10.289   8.020  70.183  1.00  0.00    -0.215 C  
HETATM   25  C   UNL     1      -9.387   9.140  69.824  1.00  0.00    -0.190 A  
HETATM   26  H   UNL     1      -6.039  10.179  71.627  1.00  0.00     0.000 HD 
ENDROOT
BRANCH   1  27
HETATM   27  O   UNL     1     -10.340  12.798  68.253  1.00  0.00    -0.231 OA 
BRANCH  27  28
HETATM   28  C   UNL     1     -11.615  13.173  67.758  1.00  0.00    -0.337 C  
HETATM   29  O   UNL     1     -11.898  12.438  66.544  1.00  0.00    -0.491 OA 
HETATM   30  C   UNL     1     -11.440  11.999  64.179  1.00  0.00    -0.460 C  
HETATM   31  C   UNL     1     -11.429  14.330  65.092  1.00  0.00    -0.351 C  
HETATM   32  O   UNL     1     -12.836  14.544  64.884  1.00  0.00    -0.588 OA 
HETATM   33  H   UNL     1     -13.134  14.050  64.129  1.00  0.00     0.000 HD 
HETATM   34  C   UNL     1     -10.948  15.128  66.311  1.00  0.00    -0.335 C  
HETATM   35  C   UNL     1     -11.136  12.860  65.403  1.00  0.00    -0.281 C  
HETATM   36  C   UNL     1     -11.727  14.692  67.553  1.00  0.00    -0.403 C  
BRANCH  34  37
HETATM   37  N   UNL     1     -11.012  16.566  66.064  1.00  0.00    -0.039 N  
HETATM   38  H   UNL     1     -11.490  16.924  65.239  1.00  0.00     0.000 HD 
HETATM   39  C   UNL     1     -10.450  18.935  66.578  1.00  0.00    -0.432 C  
HETATM   40  F   UNL     1     -11.220  19.676  67.419  1.00  0.00    -0.554 F  
HETATM   41  O   UNL     1      -9.880  17.038  68.003  1.00  0.00    -0.259 OA 
HETATM   42  F   UNL     1      -9.211  19.499  66.574  1.00  0.00    -0.312 F  
HETATM   43  F   UNL     1     -10.956  19.120  65.323  1.00  0.00    -0.510 F  
HETATM   44  C   UNL     1     -10.412  17.447  66.969  1.00  0.00    -0.284 C  
ENDBRANCH  34  37
ENDBRANCH  27  28
ENDBRANCH   1  27
BRANCH   5  45
HETATM   45  C   UNL     1      -6.330  14.628  67.456  1.00  0.00    -0.016 C  
HETATM   46  O   UNL     1      -5.143  14.383  67.728  1.00  0.00    -0.258 OA 
BRANCH  45  47
HETATM   47  C   UNL     1      -6.699  16.062  67.067  1.00  0.00    -0.103 C  
BRANCH  47  48
HETATM   48  O   UNL     1      -5.727  16.854  66.405  1.00  0.00    -0.330 OA 
BRANCH  48  49
HETATM   49  C   UNL     1      -6.187  18.065  65.992  1.00  0.00    -0.242 C  
HETATM   50  O   UNL     1      -7.145  18.237  65.255  1.00  0.00    -0.516 OA 
BRANCH  49  51
HETATM   51  C   UNL     1      -5.366  19.168  66.608  1.00  0.00    -0.161 C  
BRANCH  51  52
HETATM   52  C   UNL     1      -5.218  18.982  68.117  1.00  0.00    -0.177 C  
BRANCH  52  53
HETATM   53  C   UNL     1      -5.554  20.259  68.891  1.00  0.00    -0.302 C  
HETATM   54  C   UNL     1      -6.011  19.966  70.308  1.00  0.00    -0.362 C  
ENDBRANCH  52  53
ENDBRANCH  51  52
ENDBRANCH  49  51
ENDBRANCH  48  49
ENDBRANCH  47  48
ENDBRANCH  45  47
ENDBRANCH   5  45
BRANCH  15  55
HETATM   55  O   UNL     1     -12.212   6.132  71.147  1.00  0.00    -0.033 OA 
HETATM   56  C   UNL     1     -13.455   6.747  71.474  1.00  0.00    -0.082 C  
ENDBRANCH  15  55
TORSDOF 11
ENDMDL
MODEL       11
REMARK 921   NORMALIZED FREE ENERGY PREDICTED BY IDOCK:   -5.82 KCAL/MOL
REMARK 922        TOTAL FREE ENERGY PREDICTED BY IDOCK:  -13.11 KCAL/MOL
REMARK 923 INTER-LIGAND FREE ENERGY PREDICTED BY IDOCK:  -12.16 KCAL/MOL
REMARK 924 INTRA-LIGAND FREE ENERGY PREDICTED BY IDOCK:   -0.95 KCAL/MOL
REMARK 927      BINDING AFFINITY PREDICTED BY RF-SCORE:    0.00 PKD
ROOT
HETATM    1  C   UNL     1      -9.125  12.758  67.017  1.00  0.00    -0.220 C  
HETATM    2  O   UNL     1      -6.912   8.202  71.137  1.00  0.00    -0.047 OA 
HETATM    3  C   UNL     1      -8.176  13.989  67.064  1.00  0.00    -0.078 C  
HETATM    4  C   UNL     1      -7.675   8.125  70.172  1.00  0.00    -0.085 C  
HETATM    5  C   UNL     1      -7.765  14.298  68.501  1.00  0.00    -0.137 C  
HETATM    6  O   UNL     1      -8.974  14.561  69.234  1.00  0.00    -0.384 OA 
HETATM    7  C   UNL     1      -6.991  13.063  69.059  1.00  0.00    -0.056 C  
HETATM    8  C   UNL     1      -8.451   6.862  69.944  1.00  0.00    -0.140 A  
HETATM    9  C   UNL     1      -8.414   5.836  70.902  1.00  0.00    -0.126 A  
HETATM   10  C   UNL     1      -7.601  11.693  68.759  1.00  0.00    -0.119 A  
HETATM   11  C   UNL     1      -9.155   4.665  70.719  1.00  0.00    -0.181 A  
HETATM   12  C   UNL     1      -9.915   4.489  69.565  1.00  0.00    -0.235 A  
HETATM   13  H   UNL     1     -10.034  10.926  65.751  1.00  0.00     0.000 HD 
HETATM   14  H   UNL     1      -8.719  14.753  70.128  1.00  0.00     0.000 HD 
HETATM   15  C   UNL     1      -9.940   5.486  68.584  1.00  0.00    -0.166 A  
HETATM   16  O   UNL     1      -9.832  10.166  66.284  1.00  0.00    -0.204 OA 
HETATM   17  C   UNL     1      -7.293  10.551  69.537  1.00  0.00    -0.148 A  
HETATM   18  C   UNL     1      -9.227   6.694  68.791  1.00  0.00    -0.129 A  
HETATM   19  O   UNL     1      -6.432  10.731  70.595  1.00  0.00    -0.326 OA 
HETATM   20  C   UNL     1      -7.876   9.284  69.274  1.00  0.00    -0.085 A  
HETATM   21  O   UNL     1      -9.822   7.699  66.723  1.00  0.00    -0.207 OA 
HETATM   22  C   UNL     1      -8.496  11.540  67.682  1.00  0.00    -0.135 A  
HETATM   23  C   UNL     1      -8.992  10.257  67.368  1.00  0.00    -0.135 A  
HETATM   24  C   UNL     1      -9.276   7.812  67.820  1.00  0.00    -0.136 C  
HETATM   25  C   UNL     1      -8.693   9.132  68.158  1.00  0.00    -0.129 A  
HETATM   26  H   UNL     1      -6.225   9.965  71.117  1.00  0.00     0.000 HD 
ENDROOT
BRANCH   1  27
HETATM   27  O   UNL     1     -10.359  12.850  67.749  1.00  0.00    -0.215 OA 
BRANCH  27  28
HETATM   28  C   UNL     1     -11.553  13.209  67.073  1.00  0.00    -0.359 C  
HETATM   29  O   UNL     1     -11.568  12.598  65.761  1.00  0.00    -0.345 OA 
HETATM   30  C   UNL     1     -10.677  12.446  63.485  1.00  0.00    -0.473 C  
HETATM   31  C   UNL     1     -10.991  14.660  64.612  1.00  0.00    -0.325 C  
HETATM   32  O   UNL     1     -12.353  14.821  64.176  1.00  0.00    -0.758 OA 
HETATM   33  H   UNL     1     -12.479  14.398  63.335  1.00  0.00     0.000 HD 
HETATM   34  C   UNL     1     -10.786  15.343  65.970  1.00  0.00    -0.322 C  
HETATM   35  C   UNL     1     -10.652  13.182  64.824  1.00  0.00    -0.372 C  
HETATM   36  C   UNL     1     -11.736  14.734  67.003  1.00  0.00    -0.330 C  
BRANCH  34  37
HETATM   37  N   UNL     1     -10.909  16.795  65.859  1.00  0.00    -0.135 N  
HETATM   38  H   UNL     1     -11.337  17.212  65.034  1.00  0.00     0.000 HD 
HETATM   39  C   UNL     1     -10.522  19.123  66.646  1.00  0.00    -0.443 C  
HETATM   40  F   UNL     1     -11.396  19.739  67.485  1.00  0.00    -0.454 F  
HETATM   41  O   UNL     1      -9.965  17.120  67.925  1.00  0.00    -0.272 OA 
HETATM   42  F   UNL     1      -9.319  19.742  66.803  1.00  0.00    -0.351 F  
HETATM   43  F   UNL     1     -10.934  19.411  65.376  1.00  0.00    -0.540 F  
HETATM   44  C   UNL     1     -10.434  17.607  66.893  1.00  0.00    -0.290 C  
ENDBRANCH  34  37
ENDBRANCH  27  28
ENDBRANCH   1  27
BRANCH   5  45
HETATM   45  C   UNL     1      -6.996  15.589  68.868  1.00  0.00    -0.130 C  
HETATM   46  O   UNL     1      -6.939  15.934  70.060  1.00  0.00    -0.057 OA 
BRANCH  45  47
HETATM   47  C   UNL     1      -6.575  16.605  67.803  1.00  0.00    -0.141 C  
BRANCH  47  48
HETATM   48  O   UNL     1      -5.652  17.619  68.164  1.00  0.00    -0.147 OA 
BRANCH  48  49
HETATM   49  C   UNL     1      -6.203  18.856  68.278  1.00  0.00    -0.216 C  
HETATM   50  O   UNL     1      -7.176  19.130  68.964  1.00  0.00    -0.331 OA 
BRANCH  49  51
HETATM   51  C   UNL     1      -5.414  19.851  67.466  1.00  0.00    -0.180 C  
BRANCH  51  52
HETATM   52  C   UNL     1      -6.325  20.877  66.797  1.00  0.00    -0.346 C  
BRANCH  52  53
HETATM   53  C   UNL     1      -6.369  20.705  65.276  1.00  0.00    -0.293 C  
HETATM   54  C   UNL     1      -6.225  19.253  64.860  1.00  0.00    -0.308 C  
ENDBRANCH  52  53
ENDBRANCH  51  52
ENDBRANCH  49  51
ENDBRANCH  48  49
ENDBRANCH  47  48
ENDBRANCH  45  47
ENDBRANCH   5  45
BRANCH  15  55
HETATM   55  O   UNL     1     -10.704   5.359  67.450  1.00  0.00    -0.201 OA 
HETATM   56  C   UNL     1     -10.226   4.483  66.433  1.00  0.00    -0.217 C  
ENDBRANCH  15  55
TORSDOF 11
ENDMDL
MODEL       12
REMARK 921   NORMALIZED FREE ENERGY PREDICTED BY IDOCK:   -5.81 KCAL/MOL
REMARK 922        TOTAL FREE ENERGY PREDICTED BY IDOCK:  -13.10 KCAL/MOL
REMARK 923 INTER-LIGAND FREE ENERGY PREDICTED BY IDOCK:  -11.18 KCAL/MOL
REMARK 924 INTRA-LIGAND FREE ENERGY PREDICTED BY IDOCK:   -1.92 KCAL/MOL
REMARK 927      BINDING AFFINITY PREDICTED BY RF-SCORE:    0.00 PKD
ROOT
HETATM    1  C   UNL     1     -10.276  10.772  68.384  1.00  0.00    -0.175 C  
HETATM    2  O   UNL     1     -11.594  16.823  70.448  1.00  0.00     0.150 OA 
HETATM    3  C   UNL     1     -11.329   9.792  68.976  1.00  0.00    -0.013 C  
HETATM    4  C   UNL     1     -10.933  16.416  69.490  1.00  0.00    -0.317 C  
HETATM    5  C   UNL     1     -11.614  10.128  70.437  1.00  0.00    -0.316 C  
HETATM    6  O   UNL     1     -10.365  10.018  71.142  1.00  0.00    -0.235 OA 
HETATM    7  C   UNL     1     -12.203  11.573  70.497  1.00  0.00    -0.469 C  
HETATM    8  C   UNL     1     -10.067  17.376  68.730  1.00  0.00    -0.346 A  
HETATM    9  C   UNL     1      -9.904  18.691  69.196  1.00  0.00    -0.238 A  
HETATM   10  C   UNL     1     -11.498  12.622  69.636  1.00  0.00    -0.252 A  
HETATM   11  C   UNL     1      -9.077  19.589  68.515  1.00  0.00    -0.406 A  
HETATM   12  C   UNL     1      -8.429  19.198  67.346  1.00  0.00    -0.308 A  
HETATM   13  H   UNL     1      -9.332  11.825  66.438  1.00  0.00     0.000 HD 
HETATM   14  H   UNL     1     -10.543  10.226  72.052  1.00  0.00     0.000 HD 
HETATM   15  C   UNL     1      -8.603  17.903  66.848  1.00  0.00    -0.245 A  
HETATM   16  O   UNL     1      -9.403  12.753  66.632  1.00  0.00    -0.238 OA 
HETATM   17  C   UNL     1     -11.612  14.008  69.907  1.00  0.00    -0.254 A  
HETATM   18  C   UNL     1      -9.404  16.976  67.564  1.00  0.00    -0.233 A  
HETATM   19  O   UNL     1     -12.369  14.370  70.996  1.00  0.00    -0.312 OA 
HETATM   20  C   UNL     1     -10.939  14.983  69.124  1.00  0.00    -0.265 A  
HETATM   21  O   UNL     1      -9.130  15.173  66.043  1.00  0.00    -0.289 OA 
HETATM   22  C   UNL     1     -10.711  12.223  68.539  1.00  0.00    -0.261 A  
HETATM   23  C   UNL     1     -10.129  13.204  67.708  1.00  0.00    -0.226 A  
HETATM   24  C   UNL     1      -9.565  15.571  67.122  1.00  0.00    -0.222 C  
HETATM   25  C   UNL     1     -10.234  14.577  67.995  1.00  0.00    -0.233 A  
HETATM   26  H   UNL     1     -12.446  15.300  71.178  1.00  0.00     0.000 HD 
ENDROOT
BRANCH   1  27
HETATM   27  O   UNL     1      -8.986  10.814  69.018  1.00  0.00    -0.169 OA 
BRANCH  27  28
HETATM   28  C   UNL     1      -7.880  10.171  68.407  1.00  0.00    -0.093 C  
HETATM   29  O   UNL     1      -8.060  10.160  66.971  1.00  0.00    -0.116 OA 
HETATM   30  C   UNL     1      -9.248   9.344  64.991  1.00  0.00    -0.280 C  
HETATM   31  C   UNL     1      -8.709   7.819  66.903  1.00  0.00    -0.132 C  
HETATM   32  O   UNL     1      -7.413   7.454  66.399  1.00  0.00    -0.081 OA 
HETATM   33  H   UNL     1      -7.413   7.472  65.449  1.00  0.00     0.000 HD 
HETATM   34  C   UNL     1      -8.709   7.789  68.437  1.00  0.00    -0.127 C  
HETATM   35  C   UNL     1      -9.071   9.253  66.506  1.00  0.00    -0.154 C  
HETATM   36  C   UNL     1      -7.653   8.759  68.971  1.00  0.00    -0.090 C  
BRANCH  34  37
HETATM   37  N   UNL     1      -8.550   6.428  68.942  1.00  0.00    -0.123 N  
HETATM   38  H   UNL     1      -7.622   6.064  69.155  1.00  0.00     0.000 HD 
HETATM   39  C   UNL     1      -9.406   4.180  69.578  1.00  0.00    -0.168 C  
HETATM   40  F   UNL     1      -9.859   3.927  70.834  1.00  0.00    -0.234 F  
HETATM   41  O   UNL     1     -10.815   6.067  68.937  1.00  0.00    -0.286 OA 
HETATM   42  F   UNL     1      -9.993   3.268  68.754  1.00  0.00    -0.138 F  
HETATM   43  F   UNL     1      -8.073   3.889  69.579  1.00  0.00    -0.055 F  
HETATM   44  C   UNL     1      -9.680   5.628  69.132  1.00  0.00    -0.145 C  
ENDBRANCH  34  37
ENDBRANCH  27  28
ENDBRANCH   1  27
BRANCH   5  45
HETATM   45  C   UNL     1     -12.461   9.196  71.336  1.00  0.00    -0.328 C  
HETATM   46  O   UNL     1     -13.697   9.324  71.336  1.00  0.00    -0.370 OA 
BRANCH  45  47
HETATM   47  C   UNL     1     -11.825   8.344  72.437  1.00  0.00    -0.384 C  
BRANCH  47  48
HETATM   48  O   UNL     1     -10.979   7.272  72.059  1.00  0.00    -0.229 OA 
BRANCH  48  49
HETATM   49  C   UNL     1     -10.992   6.223  72.925  1.00  0.00    -0.254 C  
HETATM   50  O   UNL     1     -11.700   5.234  72.818  1.00  0.00    -0.275 OA 
BRANCH  49  51
HETATM   51  C   UNL     1      -9.974   6.441  74.015  1.00  0.00    -0.301 C  
BRANCH  51  52
HETATM   52  C   UNL     1      -8.608   6.809  73.442  1.00  0.00    -0.137 C  
BRANCH  52  53
HETATM   53  C   UNL     1      -7.892   5.601  72.833  1.00  0.00    -0.098 C  
HETATM   54  C   UNL     1      -6.734   6.010  71.943  1.00  0.00    -0.064 C  
ENDBRANCH  52  53
ENDBRANCH  51  52
ENDBRANCH  49  51
ENDBRANCH  48  49
ENDBRANCH  47  48
ENDBRANCH  45  47
ENDBRANCH   5  45
BRANCH  15  55
HETATM   55  O   UNL     1      -7.955  17.475  65.717  1.00  0.00    -0.548 OA 
HETATM   56  C   UNL     1      -6.573  17.800  65.590  1.00  0.00    -0.102 C  
ENDBRANCH  15  55
TORSDOF 11
ENDMDL
MODEL       13
REMARK 921   NORMALIZED FREE ENERGY PREDICTED BY IDOCK:   -5.81 KCAL/MOL
REMARK 922        TOTAL FREE ENERGY PREDICTED BY IDOCK:  -13.10 KCAL/MOL
REMARK 923 INTER-LIGAND FREE ENERGY PREDICTED BY IDOCK:  -11.08 KCAL/MOL
REMARK 924 INTRA-LIGAND FREE ENERGY PREDICTED BY IDOCK:   -2.02 KCAL/MOL
REMARK 927      BINDING AFFINITY PREDICTED BY RF-SCORE:    0.00 PKD
ROOT
HETATM    1  C   UNL     1      -9.156   7.855  69.896  1.00  0.00    -0.146 C  
HETATM    2  O   UNL     1     -10.222  10.306  63.939  1.00  0.00    -0.145 OA 
HETATM    3  C   UNL     1      -8.574   6.419  69.757  1.00  0.00    -0.138 C  
HETATM    4  C   UNL     1     -10.088  10.857  65.034  1.00  0.00    -0.300 C  
HETATM    5  C   UNL     1      -9.300   5.647  68.659  1.00  0.00    -0.123 C  
HETATM    6  O   UNL     1     -10.689   5.598  69.031  1.00  0.00    -0.267 OA 
HETATM    7  C   UNL     1      -9.075   6.398  67.309  1.00  0.00    -0.117 C  
HETATM    8  C   UNL     1     -10.419  12.313  65.173  1.00  0.00    -0.320 A  
HETATM    9  C   UNL     1     -11.009  13.001  64.100  1.00  0.00    -0.438 A  
HETATM   10  C   UNL     1      -9.231   7.919  67.350  1.00  0.00    -0.160 A  
HETATM   11  C   UNL     1     -11.351  14.352  64.223  1.00  0.00    -0.167 A  
HETATM   12  C   UNL     1     -11.079  15.039  65.403  1.00  0.00    -0.377 A  
HETATM   13  H   UNL     1      -8.827  10.135  70.588  1.00  0.00     0.000 HD 
HETATM   14  H   UNL     1     -11.141   5.118  68.348  1.00  0.00     0.000 HD 
HETATM   15  C   UNL     1     -10.462  14.380  66.472  1.00  0.00    -0.289 A  
HETATM   16  O   UNL     1      -9.017  10.634  69.802  1.00  0.00     0.032 OA 
HETATM   17  C   UNL     1      -9.496   8.674  66.182  1.00  0.00    -0.240 A  
HETATM   18  C   UNL     1     -10.159  12.998  66.365  1.00  0.00    -0.279 A  
HETATM   19  O   UNL     1      -9.629   7.975  65.005  1.00  0.00     0.253 OA 
HETATM   20  C   UNL     1      -9.664  10.083  66.222  1.00  0.00    -0.272 A  
HETATM   21  O   UNL     1      -9.190  12.782  68.523  1.00  0.00    -0.164 OA 
HETATM   22  C   UNL     1      -9.109   8.608  68.572  1.00  0.00    -0.138 A  
HETATM   23  C   UNL     1      -9.179  10.017  68.585  1.00  0.00    -0.152 A  
HETATM   24  C   UNL     1      -9.573  12.233  67.490  1.00  0.00    -0.184 C  
HETATM   25  C   UNL     1      -9.460  10.756  67.422  1.00  0.00    -0.171 A  
HETATM   26  H   UNL     1      -9.808   8.481  64.221  1.00  0.00     0.000 HD 
ENDROOT
BRANCH   1  27
HETATM   27  O   UNL     1     -10.553   7.971  70.216  1.00  0.00    -0.222 OA 
BRANCH  27  28
HETATM   28  C   UNL     1     -10.962   8.018  71.573  1.00  0.00    -0.234 C  
HETATM   29  O   UNL     1     -12.066   7.105  71.778  1.00  0.00    -0.298 OA 
HETATM   30  C   UNL     1     -14.408   6.494  71.403  1.00  0.00     0.263 C  
HETATM   31  C   UNL     1     -13.736   8.869  71.824  1.00  0.00    -0.422 C  
HETATM   32  O   UNL     1     -13.833   8.767  73.255  1.00  0.00    -1.115 OA 
HETATM   33  H   UNL     1     -14.504   8.138  73.493  1.00  0.00     0.000 HD 
HETATM   34  C   UNL     1     -12.652   9.885  71.438  1.00  0.00    -0.398 C  
HETATM   35  C   UNL     1     -13.308   7.536  71.204  1.00  0.00    -0.161 C  
HETATM   36  C   UNL     1     -11.306   9.449  72.019  1.00  0.00    -0.122 C  
BRANCH  34  37
HETATM   37  N   UNL     1     -13.034  11.242  71.823  1.00  0.00    -0.454 N  
HETATM   38  H   UNL     1     -13.645  11.395  72.624  1.00  0.00     0.000 HD 
HETATM   39  C   UNL     1     -13.085  13.709  71.508  1.00  0.00    -0.350 C  
HETATM   40  F   UNL     1     -12.111  14.506  72.022  1.00  0.00    -0.373 F  
HETATM   41  O   UNL     1     -11.769  12.167  70.148  1.00  0.00    -0.303 OA 
HETATM   42  F   UNL     1     -13.644  14.387  70.467  1.00  0.00    -0.291 F  
HETATM   43  F   UNL     1     -14.054  13.613  72.464  1.00  0.00    -0.579 F  
HETATM   44  C   UNL     1     -12.555  12.327  71.085  1.00  0.00    -0.253 C  
ENDBRANCH  34  37
ENDBRANCH  27  28
ENDBRANCH   1  27
BRANCH   5  45
HETATM   45  C   UNL     1      -9.073   4.132  68.443  1.00  0.00    -0.132 C  
HETATM   46  O   UNL     1      -9.893   3.495  67.761  1.00  0.00    -0.098 OA 
BRANCH  45  47
HETATM   47  C   UNL     1      -8.064   3.342  69.280  1.00  0.00    -0.052 C  
BRANCH  47  48
HETATM   48  O   UNL     1      -7.262   4.046  70.213  1.00  0.00    -0.041 OA 
BRANCH  48  49
HETATM   49  C   UNL     1      -6.884   3.305  71.289  1.00  0.00    -0.032 C  
HETATM   50  O   UNL     1      -5.908   2.571  71.327  1.00  0.00    -0.012 OA 
BRANCH  49  51
HETATM   51  C   UNL     1      -7.821   3.552  72.443  1.00  0.00    -0.067 C  
BRANCH  51  52
HETATM   52  C   UNL     1      -8.659   2.316  72.760  1.00  0.00    -0.063 C  
BRANCH  52  53
HETATM   53  C   UNL     1      -9.813   2.630  73.715  1.00  0.00    -0.143 C  
HETATM   54  C   UNL     1     -10.474   3.958  73.396  1.00  0.00    -0.254 C  
ENDBRANCH  52  53
ENDBRANCH  51  52
ENDBRANCH  49  51
ENDBRANCH  48  49
ENDBRANCH  47  48
ENDBRANCH  45  47
ENDBRANCH   5  45
BRANCH  15  55
HETATM   55  O   UNL     1     -10.209  15.019  67.660  1.00  0.00    -0.234 OA 
HETATM   56  C   UNL     1     -11.329  15.372  68.466  1.00  0.00    -0.335 C  
ENDBRANCH  15  55
TORSDOF 11
ENDMDL
MODEL       14
REMARK 921   NORMALIZED FREE ENERGY PREDICTED BY IDOCK:   -5.79 KCAL/MOL
REMARK 922        TOTAL FREE ENERGY PREDICTED BY IDOCK:  -13.05 KCAL/MOL
REMARK 923 INTER-LIGAND FREE ENERGY PREDICTED BY IDOCK:  -10.36 KCAL/MOL
REMARK 924 INTRA-LIGAND FREE ENERGY PREDICTED BY IDOCK:   -2.69 KCAL/MOL
REMARK 927      BINDING AFFINITY PREDICTED BY RF-SCORE:    0.00 PKD
ROOT
HETATM    1  C   UNL     1     -11.001   9.363  68.037  1.00  0.00    -0.059 C  
HETATM    2  O   UNL     1      -5.938   7.740  64.248  1.00  0.00    -0.050 OA 
HETATM    3  C   UNL     1     -11.264  10.891  67.907  1.00  0.00    -0.387 C  
HETATM    4  C   UNL     1      -6.846   7.059  64.728  1.00  0.00    -0.047 C  
HETATM    5  C   UNL     1      -9.949  11.664  67.901  1.00  0.00    -0.182 C  
HETATM    6  O   UNL     1      -9.285  11.368  69.142  1.00  0.00    -0.405 OA 
HETATM    7  C   UNL     1      -9.121  11.204  66.661  1.00  0.00    -0.180 C  
HETATM    8  C   UNL     1      -6.753   5.563  64.676  1.00  0.00    -0.043 A  
HETATM    9  C   UNL     1      -5.578   4.951  64.212  1.00  0.00    -0.017 A  
HETATM   10  C   UNL     1      -9.076   9.697  66.404  1.00  0.00    -0.191 A  
HETATM   11  C   UNL     1      -5.464   3.558  64.184  1.00  0.00    -0.009 A  
HETATM   12  C   UNL     1      -6.531   2.759  64.587  1.00  0.00    -0.027 A  
HETATM   13  H   UNL     1     -11.778   7.117  67.666  1.00  0.00     0.000 HD 
HETATM   14  H   UNL     1      -8.466  11.850  69.139  1.00  0.00     0.000 HD 
HETATM   15  C   UNL     1      -7.722   3.349  65.022  1.00  0.00    -0.081 A  
HETATM   16  O   UNL     1     -11.081   6.723  67.156  1.00  0.00    -0.384 OA 
HETATM   17  C   UNL     1      -8.050   9.102  65.629  1.00  0.00    -0.113 A  
HETATM   18  C   UNL     1      -7.822   4.762  65.096  1.00  0.00    -0.091 A  
HETATM   19  O   UNL     1      -7.078   9.940  65.133  1.00  0.00    -0.115 OA 
HETATM   20  C   UNL     1      -7.993   7.701  65.408  1.00  0.00    -0.123 A  
HETATM   21  O   UNL     1     -10.062   4.820  65.881  1.00  0.00    -0.208 OA 
HETATM   22  C   UNL     1     -10.072   8.859  66.940  1.00  0.00    -0.343 A  
HETATM   23  C   UNL     1     -10.061   7.482  66.632  1.00  0.00    -0.193 A  
HETATM   24  C   UNL     1      -9.032   5.439  65.617  1.00  0.00    -0.156 C  
HETATM   25  C   UNL     1      -9.029   6.898  65.876  1.00  0.00    -0.092 A  
HETATM   26  H   UNL     1      -6.390   9.541  64.613  1.00  0.00     0.000 HD 
ENDROOT
BRANCH   1  27
HETATM   27  O   UNL     1     -10.296   8.914  69.207  1.00  0.00    -0.205 OA 
BRANCH  27  28
HETATM   28  C   UNL     1     -11.017   8.349  70.290  1.00  0.00    -0.232 C  
HETATM   29  O   UNL     1     -10.377   8.708  71.537  1.00  0.00    -0.222 OA 
HETATM   30  C   UNL     1      -8.487   8.509  73.082  1.00  0.00    -0.086 C  
HETATM   31  C   UNL     1      -9.362   6.520  71.838  1.00  0.00    -0.148 C  
HETATM   32  O   UNL     1     -10.343   6.181  72.834  1.00  0.00    -0.184 OA 
HETATM   33  H   UNL     1     -10.034   6.433  73.697  1.00  0.00     0.000 HD 
HETATM   34  C   UNL     1      -9.861   6.113  70.445  1.00  0.00    -0.178 C  
HETATM   35  C   UNL     1      -9.134   8.033  71.782  1.00  0.00    -0.158 C  
HETATM   36  C   UNL     1     -11.179   6.828  70.140  1.00  0.00    -0.387 C  
BRANCH  34  37
HETATM   37  N   UNL     1      -9.949   4.661  70.315  1.00  0.00    -0.241 N  
HETATM   38  H   UNL     1     -10.615   4.134  70.879  1.00  0.00     0.000 HD 
HETATM   39  C   UNL     1      -9.212   2.462  69.412  1.00  0.00    -0.123 C  
HETATM   40  F   UNL     1      -9.717   1.972  68.249  1.00  0.00    -0.257 F  
HETATM   41  O   UNL     1      -8.342   4.622  68.679  1.00  0.00    -0.082 OA 
HETATM   42  F   UNL     1      -8.001   1.868  69.599  1.00  0.00    -0.042 F  
HETATM   43  F   UNL     1     -10.020   2.003  70.412  1.00  0.00    -0.132 F  
HETATM   44  C   UNL     1      -9.113   3.999  69.412  1.00  0.00    -0.127 C  
ENDBRANCH  34  37
ENDBRANCH  27  28
ENDBRANCH   1  27
BRANCH   5  45
HETATM   45  C   UNL     1      -9.913  13.208  67.992  1.00  0.00    -0.233 C  
HETATM   46  O   UNL     1      -9.122  13.743  68.787  1.00  0.00    -0.108 OA 
BRANCH  45  47
HETATM   47  C   UNL     1     -11.013  14.077  67.377  1.00  0.00    -0.293 C  
BRANCH  47  48
HETATM   48  O   UNL     1     -10.667  15.363  66.891  1.00  0.00    -0.306 OA 
BRANCH  48  49
HETATM   49  C   UNL     1     -10.766  15.490  65.541  1.00  0.00    -0.381 C  
HETATM   50  O   UNL     1     -10.751  16.550  64.934  1.00  0.00    -0.702 OA 
BRANCH  49  51
HETATM   51  C   UNL     1     -10.858  14.130  64.898  1.00  0.00    -0.423 C  
BRANCH  51  52
HETATM   52  C   UNL     1     -12.127  13.989  64.060  1.00  0.00    -0.413 C  
BRANCH  52  53
HETATM   53  C   UNL     1     -12.553  12.528  63.899  1.00  0.00    -0.485 C  
HETATM   54  C   UNL     1     -11.362  11.593  63.802  1.00  0.00    -0.482 C  
ENDBRANCH  52  53
ENDBRANCH  51  52
ENDBRANCH  49  51
ENDBRANCH  48  49
ENDBRANCH  47  48
ENDBRANCH  45  47
ENDBRANCH   5  45
BRANCH  15  55
HETATM   55  O   UNL     1      -8.782   2.592  65.456  1.00  0.00    -0.108 OA 
HETATM   56  C   UNL     1      -9.269   1.580  64.578  1.00  0.00    -0.125 C  
ENDBRANCH  15  55
TORSDOF 11
ENDMDL
MODEL       15
REMARK 921   NORMALIZED FREE ENERGY PREDICTED BY IDOCK:   -5.76 KCAL/MOL
REMARK 922        TOTAL FREE ENERGY PREDICTED BY IDOCK:  -13.02 KCAL/MOL
REMARK 923 INTER-LIGAND FREE ENERGY PREDICTED BY IDOCK:  -11.01 KCAL/MOL
REMARK 924 INTRA-LIGAND FREE ENERGY PREDICTED BY IDOCK:   -2.01 KCAL/MOL
REMARK 927      BINDING AFFINITY PREDICTED BY RF-SCORE:    0.00 PKD
ROOT
HETATM    1  C   UNL     1      -7.798  11.807  67.501  1.00  0.00    -0.148 C  
HETATM    2  O   UNL     1     -13.174   9.991  70.729  1.00  0.00    -0.348 OA 
HETATM    3  C   UNL     1      -7.952  13.287  67.049  1.00  0.00     0.013 C  
HETATM    4  C   UNL     1     -12.034   9.523  70.720  1.00  0.00    -0.252 C  
HETATM    5  C   UNL     1      -9.362  13.546  66.526  1.00  0.00    -0.215 C  
HETATM    6  O   UNL     1      -9.567  12.653  65.417  1.00  0.00    -0.450 OA 
HETATM    7  C   UNL     1     -10.367  13.283  67.691  1.00  0.00    -0.230 C  
HETATM    8  C   UNL     1     -11.779   8.187  71.352  1.00  0.00    -0.321 A  
HETATM    9  C   UNL     1     -12.857   7.419  71.821  1.00  0.00    -0.365 A  
HETATM   10  C   UNL     1     -10.122  12.022  68.520  1.00  0.00    -0.201 A  
HETATM   11  C   UNL     1     -12.639   6.159  72.387  1.00  0.00     0.110 A  
HETATM   12  C   UNL     1     -11.344   5.665  72.521  1.00  0.00    -0.349 A  
HETATM   13  H   UNL     1      -6.643  10.197  68.865  1.00  0.00     0.000 HD 
HETATM   14  H   UNL     1     -10.444  12.814  65.091  1.00  0.00     0.000 HD 
HETATM   15  C   UNL     1     -10.254   6.428  72.089  1.00  0.00    -0.186 A  
HETATM   16  O   UNL     1      -7.340   9.792  69.368  1.00  0.00    -0.072 OA 
HETATM   17  C   UNL     1     -11.150  11.421  69.287  1.00  0.00    -0.254 A  
HETATM   18  C   UNL     1     -10.478   7.686  71.471  1.00  0.00    -0.231 A  
HETATM   19  O   UNL     1     -12.391  12.012  69.238  1.00  0.00    -0.133 OA 
HETATM   20  C   UNL     1     -10.931  10.237  70.039  1.00  0.00    -0.371 A  
HETATM   21  O   UNL     1      -8.188   8.204  71.111  1.00  0.00    -0.099 OA 
HETATM   22  C   UNL     1      -8.847  11.426  68.538  1.00  0.00    -0.151 A  
HETATM   23  C   UNL     1      -8.614  10.307  69.366  1.00  0.00    -0.156 A  
HETATM   24  C   UNL     1      -9.368   8.505  70.930  1.00  0.00    -0.174 C  
HETATM   25  C   UNL     1      -9.646   9.708  70.111  1.00  0.00    -0.300 A  
HETATM   26  H   UNL     1     -13.081  11.609  69.752  1.00  0.00     0.000 HD 
ENDROOT
BRANCH   1  27
HETATM   27  O   UNL     1      -8.024  10.789  66.511  1.00  0.00    -0.132 OA 
BRANCH  27  28
HETATM   28  C   UNL     1      -6.953   9.951  66.107  1.00  0.00    -0.102 C  
HETATM   29  O   UNL     1      -6.605  10.239  64.732  1.00  0.00    -0.128 OA 
HETATM   30  C   UNL     1      -7.161  10.177  62.348  1.00  0.00    -0.142 C  
HETATM   31  C   UNL     1      -7.711   8.259  63.861  1.00  0.00    -0.141 C  
HETATM   32  O   UNL     1      -6.442   7.604  63.686  1.00  0.00    -0.053 OA 
HETATM   33  H   UNL     1      -6.098   7.783  62.818  1.00  0.00     0.000 HD 
HETATM   34  C   UNL     1      -8.266   7.970  65.262  1.00  0.00    -0.146 C  
HETATM   35  C   UNL     1      -7.563   9.780  63.768  1.00  0.00    -0.131 C  
HETATM   36  C   UNL     1      -7.278   8.463  66.320  1.00  0.00    -0.078 C  
BRANCH  34  37
HETATM   37  N   UNL     1      -8.618   6.560  65.414  1.00  0.00    -0.291 N  
HETATM   38  H   UNL     1      -8.039   5.838  64.988  1.00  0.00     0.000 HD 
HETATM   39  C   UNL     1     -10.097   4.710  66.175  1.00  0.00    -0.266 C  
HETATM   40  F   UNL     1      -9.968   4.168  67.415  1.00  0.00    -0.229 F  
HETATM   41  O   UNL     1     -10.436   7.065  66.719  1.00  0.00    -0.262 OA 
HETATM   42  F   UNL     1     -11.373   4.465  65.766  1.00  0.00    -0.034 F  
HETATM   43  F   UNL     1      -9.288   3.986  65.347  1.00  0.00    -0.130 F  
HETATM   44  C   UNL     1      -9.755   6.210  66.148  1.00  0.00     0.007 C  
ENDBRANCH  34  37
ENDBRANCH  27  28
ENDBRANCH   1  27
BRANCH   5  45
HETATM   45  C   UNL     1      -9.737  14.869  65.818  1.00  0.00    -0.324 C  
HETATM   46  O   UNL     1     -10.296  14.818  64.709  1.00  0.00    -0.382 OA 
BRANCH  45  47
HETATM   47  C   UNL     1      -9.179  16.217  66.282  1.00  0.00    -0.331 C  
BRANCH  47  48
HETATM   48  O   UNL     1      -9.835  16.892  67.341  1.00  0.00    -0.250 OA 
BRANCH  48  49
HETATM   49  C   UNL     1      -9.004  17.307  68.334  1.00  0.00    -0.269 C  
HETATM   50  O   UNL     1      -8.457  16.572  69.143  1.00  0.00    -0.232 OA 
BRANCH  49  51
HETATM   51  C   UNL     1      -8.824  18.801  68.268  1.00  0.00    -0.363 C  
BRANCH  51  52
HETATM   52  C   UNL     1     -10.155  19.535  68.410  1.00  0.00    -0.546 C  
BRANCH  52  53
HETATM   53  C   UNL     1     -10.957  19.533  67.107  1.00  0.00    -0.459 C  
HETATM   54  C   UNL     1     -10.165  20.109  65.947  1.00  0.00    -0.452 C  
ENDBRANCH  52  53
ENDBRANCH  51  52
ENDBRANCH  49  51
ENDBRANCH  48  49
ENDBRANCH  47  48
ENDBRANCH  45  47
ENDBRANCH   5  45
BRANCH  15  55
HETATM   55  O   UNL     1      -8.967   5.959  72.177  1.00  0.00    -0.142 OA 
HETATM   56  C   UNL     1      -8.714   4.646  71.683  1.00  0.00    -0.121 C  
ENDBRANCH  15  55
TORSDOF 11
ENDMDL
MODEL       16
REMARK 921   NORMALIZED FREE ENERGY PREDICTED BY IDOCK:   -5.73 KCAL/MOL
REMARK 922        TOTAL FREE ENERGY PREDICTED BY IDOCK:  -12.97 KCAL/MOL
REMARK 923 INTER-LIGAND FREE ENERGY PREDICTED BY IDOCK:  -10.80 KCAL/MOL
REMARK 924 INTRA-LIGAND FREE ENERGY PREDICTED BY IDOCK:   -2.17 KCAL/MOL
REMARK 927      BINDING AFFINITY PREDICTED BY RF-SCORE:    0.00 PKD
ROOT
HETATM    1  C   UNL     1     -10.378  10.769  68.422  1.00  0.00    -0.180 C  
HETATM    2  O   UNL     1     -11.675  16.834  70.460  1.00  0.00     0.248 OA 
HETATM    3  C   UNL     1     -11.436   9.796  69.017  1.00  0.00     0.079 C  
HETATM    4  C   UNL     1     -11.015  16.420  69.505  1.00  0.00    -0.317 C  
HETATM    5  C   UNL     1     -11.722  10.139  70.476  1.00  0.00    -0.322 C  
HETATM    6  O   UNL     1     -10.474  10.026  71.184  1.00  0.00    -0.260 OA 
HETATM    7  C   UNL     1     -12.304  11.585  70.529  1.00  0.00    -0.432 C  
HETATM    8  C   UNL     1     -10.144  17.373  68.742  1.00  0.00    -0.346 A  
HETATM    9  C   UNL     1      -9.977  18.690  69.202  1.00  0.00    -0.237 A  
HETATM   10  C   UNL     1     -11.595  12.629  69.665  1.00  0.00    -0.321 A  
HETATM   11  C   UNL     1      -9.145  19.582  68.519  1.00  0.00    -0.406 A  
HETATM   12  C   UNL     1      -8.497  19.184  67.353  1.00  0.00    -0.308 A  
HETATM   13  H   UNL     1      -9.428  11.811  66.473  1.00  0.00     0.000 HD 
HETATM   14  H   UNL     1     -10.652  10.239  72.092  1.00  0.00     0.000 HD 
HETATM   15  C   UNL     1      -8.676  17.887  66.860  1.00  0.00    -0.246 A  
HETATM   16  O   UNL     1      -9.495  12.739  66.663  1.00  0.00    -0.239 OA 
HETATM   17  C   UNL     1     -11.703  14.016  69.931  1.00  0.00    -0.303 A  
HETATM   18  C   UNL     1      -9.481  16.966  67.578  1.00  0.00    -0.241 A  
HETATM   19  O   UNL     1     -12.461  14.386  71.017  1.00  0.00    -0.308 OA 
HETATM   20  C   UNL     1     -11.026  14.986  69.144  1.00  0.00    -0.265 A  
HETATM   21  O   UNL     1      -9.212  15.156  66.065  1.00  0.00    -0.301 OA 
HETATM   22  C   UNL     1     -10.808  12.222  68.571  1.00  0.00    -0.267 A  
HETATM   23  C   UNL     1     -10.221  13.198  67.737  1.00  0.00    -0.231 A  
HETATM   24  C   UNL     1      -9.648  15.560  67.142  1.00  0.00    -0.222 C  
HETATM   25  C   UNL     1     -10.321  14.572  68.018  1.00  0.00    -0.229 A  
HETATM   26  H   UNL     1     -12.534  15.316  71.195  1.00  0.00     0.000 HD 
ENDROOT
BRANCH   1  27
HETATM   27  O   UNL     1      -9.089  10.809  69.058  1.00  0.00    -0.179 OA 
BRANCH  27  28
HETATM   28  C   UNL     1      -8.020  10.040  68.531  1.00  0.00    -0.102 C  
HETATM   29  O   UNL     1      -8.514   9.192  67.467  1.00  0.00    -0.115 OA 
HETATM   30  C   UNL     1      -9.858   7.282  66.731  1.00  0.00    -0.281 C  
HETATM   31  C   UNL     1      -8.507   7.185  68.837  1.00  0.00    -0.126 C  
HETATM   32  O   UNL     1      -7.310   6.722  68.187  1.00  0.00    -0.091 OA 
HETATM   33  H   UNL     1      -7.533   6.193  67.430  1.00  0.00     0.000 HD 
HETATM   34  C   UNL     1      -8.148   8.038  70.061  1.00  0.00    -0.116 C  
HETATM   35  C   UNL     1      -9.321   8.091  67.910  1.00  0.00    -0.138 C  
HETATM   36  C   UNL     1      -7.299   9.234  69.624  1.00  0.00    -0.068 C  
BRANCH  34  37
HETATM   37  N   UNL     1      -7.518   7.234  71.104  1.00  0.00    -0.078 N  
HETATM   38  H   UNL     1      -6.903   6.460  70.854  1.00  0.00     0.000 HD 
HETATM   39  C   UNL     1      -7.131   6.574  73.472  1.00  0.00    -0.081 C  
HETATM   40  F   UNL     1      -6.170   7.174  74.223  1.00  0.00    -0.074 F  
HETATM   41  O   UNL     1      -8.457   8.500  72.770  1.00  0.00    -0.336 OA 
HETATM   42  F   UNL     1      -8.051   6.065  74.337  1.00  0.00    -0.107 F  
HETATM   43  F   UNL     1      -6.541   5.500  72.870  1.00  0.00    -0.061 F  
HETATM   44  C   UNL     1      -7.764   7.533  72.447  1.00  0.00    -0.094 C  
ENDBRANCH  34  37
ENDBRANCH  27  28
ENDBRANCH   1  27
BRANCH   5  45
HETATM   45  C   UNL     1     -12.573   9.213  71.377  1.00  0.00    -0.323 C  
HETATM   46  O   UNL     1     -13.751   9.527  71.616  1.00  0.00    -0.357 OA 
BRANCH  45  47
HETATM   47  C   UNL     1     -11.937   8.106  72.223  1.00  0.00    -0.377 C  
BRANCH  47  48
HETATM   48  O   UNL     1     -12.074   6.763  71.791  1.00  0.00    -0.321 OA 
BRANCH  48  49
HETATM   49  C   UNL     1     -11.127   5.922  72.285  1.00  0.00    -0.280 C  
HETATM   50  O   UNL     1     -10.857   5.789  73.469  1.00  0.00    -0.268 OA 
BRANCH  49  51
HETATM   51  C   UNL     1     -10.486   5.148  71.162  1.00  0.00    -0.240 C  
BRANCH  51  52
HETATM   52  C   UNL     1      -9.435   4.170  71.683  1.00  0.00    -0.216 C  
BRANCH  52  53
HETATM   53  C   UNL     1      -8.566   3.603  70.558  1.00  0.00    -0.112 C  
HETATM   54  C   UNL     1      -7.747   2.410  71.014  1.00  0.00    -0.036 C  
ENDBRANCH  52  53
ENDBRANCH  51  52
ENDBRANCH  49  51
ENDBRANCH  48  49
ENDBRANCH  47  48
ENDBRANCH  45  47
ENDBRANCH   5  45
BRANCH  15  55
HETATM   55  O   UNL     1      -8.028  17.452  65.731  1.00  0.00    -0.538 OA 
HETATM   56  C   UNL     1      -6.603  17.492  65.736  1.00  0.00    -0.032 C  
ENDBRANCH  15  55
TORSDOF 11
ENDMDL
MODEL       17
REMARK 921   NORMALIZED FREE ENERGY PREDICTED BY IDOCK:   -5.71 KCAL/MOL
REMARK 922        TOTAL FREE ENERGY PREDICTED BY IDOCK:  -12.92 KCAL/MOL
REMARK 923 INTER-LIGAND FREE ENERGY PREDICTED BY IDOCK:  -10.67 KCAL/MOL
REMARK 924 INTRA-LIGAND FREE ENERGY PREDICTED BY IDOCK:   -2.25 KCAL/MOL
REMARK 927      BINDING AFFINITY PREDICTED BY RF-SCORE:    0.00 PKD
ROOT
HETATM    1  C   UNL     1     -11.073   9.088  69.112  1.00  0.00     0.098 C  
HETATM    2  O   UNL     1      -7.315   6.890  64.247  1.00  0.00    -0.072 OA 
HETATM    3  C   UNL     1     -11.537  10.536  68.782  1.00  0.00    -0.252 C  
HETATM    4  C   UNL     1      -7.941   6.293  65.125  1.00  0.00    -0.115 C  
HETATM    5  C   UNL     1     -10.388  11.346  68.188  1.00  0.00    -0.188 C  
HETATM    6  O   UNL     1      -9.336  11.362  69.170  1.00  0.00    -0.408 OA 
HETATM    7  C   UNL     1      -9.947  10.659  66.858  1.00  0.00    -0.245 C  
HETATM    8  C   UNL     1      -7.699   4.828  65.337  1.00  0.00    -0.086 A  
HETATM    9  C   UNL     1      -6.669   4.181  64.637  1.00  0.00    -0.045 A  
HETATM   10  C   UNL     1      -9.813   9.136  66.899  1.00  0.00    -0.280 A  
HETATM   11  C   UNL     1      -6.411   2.822  64.845  1.00  0.00    -0.031 A  
HETATM   12  C   UNL     1      -7.198   2.087  65.727  1.00  0.00    -0.056 A  
HETATM   13  H   UNL     1     -11.665   6.784  69.466  1.00  0.00     0.000 HD 
HETATM   14  H   UNL     1      -8.622  11.866  68.800  1.00  0.00     0.000 HD 
HETATM   15  C   UNL     1      -8.250   2.705  66.411  1.00  0.00    -0.087 A  
HETATM   16  O   UNL     1     -11.125   6.317  68.840  1.00  0.00    -0.336 OA 
HETATM   17  C   UNL     1      -9.024   8.431  65.959  1.00  0.00    -0.184 A  
HETATM   18  C   UNL     1      -8.481   4.094  66.237  1.00  0.00    -0.109 A  
HETATM   19  O   UNL     1      -8.361   9.179  65.014  1.00  0.00    -0.139 OA 
HETATM   20  C   UNL     1      -8.880   7.019  66.009  1.00  0.00    -0.155 A  
HETATM   21  O   UNL     1     -10.351   4.226  67.696  1.00  0.00     0.085 OA 
HETATM   22  C   UNL     1     -10.487   8.395  67.889  1.00  0.00    -0.255 A  
HETATM   23  C   UNL     1     -10.417   6.986  67.869  1.00  0.00    -0.214 A  
HETATM   24  C   UNL     1      -9.534   4.816  66.989  1.00  0.00    -0.152 C  
HETATM   25  C   UNL     1      -9.616   6.295  66.942  1.00  0.00    -0.173 A  
HETATM   26  H   UNL     1      -7.831   8.706  64.383  1.00  0.00     0.000 HD 
ENDROOT
BRANCH   1  27
HETATM   27  O   UNL     1      -9.988   8.941  70.044  1.00  0.00    -0.179 OA 
BRANCH  27  28
HETATM   28  C   UNL     1     -10.239   9.035  71.437  1.00  0.00    -0.329 C  
HETATM   29  O   UNL     1      -8.999   9.295  72.136  1.00  0.00    -0.197 OA 
HETATM   30  C   UNL     1      -6.793   8.542  72.887  1.00  0.00    -0.062 C  
HETATM   31  C   UNL     1      -8.772   7.008  72.927  1.00  0.00    -0.118 C  
HETATM   32  O   UNL     1      -9.198   7.401  74.243  1.00  0.00    -0.352 OA 
HETATM   33  H   UNL     1      -8.447   7.648  74.770  1.00  0.00     0.000 HD 
HETATM   34  C   UNL     1      -9.984   6.608  72.076  1.00  0.00    -0.165 C  
HETATM   35  C   UNL     1      -8.104   8.175  72.193  1.00  0.00    -0.138 C  
HETATM   36  C   UNL     1     -10.955   7.786  71.976  1.00  0.00    -0.305 C  
BRANCH  34  37
HETATM   37  N   UNL     1     -10.608   5.387  72.579  1.00  0.00    -0.217 N  
HETATM   38  H   UNL     1     -11.526   5.424  73.019  1.00  0.00     0.000 HD 
HETATM   39  C   UNL     1     -10.628   2.953  73.094  1.00  0.00    -0.164 C  
HETATM   40  F   UNL     1     -11.040   2.041  72.173  1.00  0.00    -0.028 F  
HETATM   41  O   UNL     1      -8.851   4.093  71.870  1.00  0.00    -0.110 OA 
HETATM   42  F   UNL     1      -9.814   2.297  73.966  1.00  0.00    -0.101 F  
HETATM   43  F   UNL     1     -11.736   3.314  73.806  1.00  0.00    -0.268 F  
HETATM   44  C   UNL     1      -9.936   4.168  72.452  1.00  0.00    -0.166 C  
ENDBRANCH  34  37
ENDBRANCH  27  28
ENDBRANCH   1  27
BRANCH   5  45
HETATM   45  C   UNL     1     -10.502  12.872  67.960  1.00  0.00    -0.230 C  
HETATM   46  O   UNL     1      -9.746  13.630  68.590  1.00  0.00    -0.202 OA 
BRANCH  45  47
HETATM   47  C   UNL     1     -11.698  13.490  67.232  1.00  0.00    -0.383 C  
BRANCH  47  48
HETATM   48  O   UNL     1     -11.450  14.344  66.127  1.00  0.00    -0.343 OA 
BRANCH  48  49
HETATM   49  C   UNL     1     -12.320  14.182  65.095  1.00  0.00    -0.451 C  
HETATM   50  O   UNL     1     -12.656  15.061  64.317  1.00  0.00    -0.677 OA 
BRANCH  49  51
HETATM   51  C   UNL     1     -12.780  12.748  65.026  1.00  0.00    -0.455 C  
BRANCH  51  52
HETATM   52  C   UNL     1     -12.508  12.138  63.653  1.00  0.00    -0.658 C  
BRANCH  52  53
HETATM   53  C   UNL     1     -11.052  12.322  63.217  1.00  0.00    -0.389 C  
HETATM   54  C   UNL     1     -10.230  11.063  63.422  1.00  0.00    -0.404 C  
ENDBRANCH  52  53
ENDBRANCH  51  52
ENDBRANCH  49  51
ENDBRANCH  48  49
ENDBRANCH  47  48
ENDBRANCH  45  47
ENDBRANCH   5  45
BRANCH  15  55
HETATM   55  O   UNL     1      -9.024   2.018  67.312  1.00  0.00    -0.127 OA 
HETATM   56  C   UNL     1      -8.372   1.473  68.456  1.00  0.00    -0.053 C  
ENDBRANCH  15  55
TORSDOF 11
ENDMDL
MODEL       18
REMARK 921   NORMALIZED FREE ENERGY PREDICTED BY IDOCK:   -5.68 KCAL/MOL
REMARK 922        TOTAL FREE ENERGY PREDICTED BY IDOCK:  -12.88 KCAL/MOL
REMARK 923 INTER-LIGAND FREE ENERGY PREDICTED BY IDOCK:   -9.89 KCAL/MOL
REMARK 924 INTRA-LIGAND FREE ENERGY PREDICTED BY IDOCK:   -2.99 KCAL/MOL
REMARK 927      BINDING AFFINITY PREDICTED BY RF-SCORE:    0.00 PKD
ROOT
HETATM    1  C   UNL     1      -6.677   8.015  68.659  1.00  0.00    -0.062 C  
HETATM    2  O   UNL     1     -10.472  10.597  64.016  1.00  0.00    -0.311 OA 
HETATM    3  C   UNL     1      -5.796   6.898  68.031  1.00  0.00    -0.024 C  
HETATM    4  C   UNL     1     -10.119  11.033  65.113  1.00  0.00    -0.289 C  
HETATM    5  C   UNL     1      -6.612   6.051  67.059  1.00  0.00    -0.056 C  
HETATM    6  O   UNL     1      -7.697   5.479  67.812  1.00  0.00    -0.090 OA 
HETATM    7  C   UNL     1      -7.115   6.980  65.910  1.00  0.00    -0.073 C  
HETATM    8  C   UNL     1     -10.783  12.257  65.670  1.00  0.00    -0.302 A  
HETATM    9  C   UNL     1     -11.891  12.813  65.010  1.00  0.00    -0.423 A  
HETATM   10  C   UNL     1      -7.677   8.336  66.338  1.00  0.00    -0.091 A  
HETATM   11  C   UNL     1     -12.540  13.936  65.531  1.00  0.00    -0.560 A  
HETATM   12  C   UNL     1     -12.073  14.537  66.697  1.00  0.00    -0.319 A  
HETATM   13  H   UNL     1      -6.795  10.173  69.714  1.00  0.00     0.000 HD 
HETATM   14  H   UNL     1      -8.205   4.952  67.208  1.00  0.00     0.000 HD 
HETATM   15  C   UNL     1     -10.951  14.019  67.353  1.00  0.00    -0.293 A  
HETATM   16  O   UNL     1      -7.390  10.661  69.157  1.00  0.00    -0.089 OA 
HETATM   17  C   UNL     1      -8.551   9.078  65.506  1.00  0.00    -0.168 A  
HETATM   18  C   UNL     1     -10.322  12.851  66.851  1.00  0.00    -0.247 A  
HETATM   19  O   UNL     1      -8.891   8.514  64.299  1.00  0.00    -0.408 OA 
HETATM   20  C   UNL     1      -9.093  10.327  65.911  1.00  0.00    -0.194 A  
HETATM   21  O   UNL     1      -8.624  12.744  68.508  1.00  0.00    -0.144 OA 
HETATM   22  C   UNL     1      -7.329   8.882  67.589  1.00  0.00    -0.085 A  
HETATM   23  C   UNL     1      -7.794  10.167  67.939  1.00  0.00    -0.101 A  
HETATM   24  C   UNL     1      -9.176  12.216  67.543  1.00  0.00    -0.182 C  
HETATM   25  C   UNL     1      -8.674  10.889  67.113  1.00  0.00    -0.132 A  
HETATM   26  H   UNL     1      -9.477   9.012  63.741  1.00  0.00     0.000 HD 
ENDROOT
BRANCH   1  27
HETATM   27  O   UNL     1      -7.836   7.601  69.403  1.00  0.00    -0.117 OA 
BRANCH  27  28
HETATM   28  C   UNL     1      -7.793   7.587  70.821  1.00  0.00    -0.098 C  
HETATM   29  O   UNL     1      -7.730   6.220  71.290  1.00  0.00    -0.099 OA 
HETATM   30  C   UNL     1      -8.791   4.035  71.598  1.00  0.00    -0.144 C  
HETATM   31  C   UNL     1     -10.069   6.160  71.945  1.00  0.00    -0.189 C  
HETATM   32  O   UNL     1      -9.705   6.291  73.330  1.00  0.00    -0.153 OA 
HETATM   33  H   UNL     1      -9.583   5.433  73.719  1.00  0.00     0.000 HD 
HETATM   34  C   UNL     1     -10.266   7.546  71.316  1.00  0.00    -0.188 C  
HETATM   35  C   UNL     1      -8.953   5.484  71.144  1.00  0.00    -0.141 C  
HETATM   36  C   UNL     1      -8.973   8.355  71.438  1.00  0.00    -0.237 C  
BRANCH  34  37
HETATM   37  N   UNL     1     -11.428   8.226  71.882  1.00  0.00    -0.288 N  
HETATM   38  H   UNL     1     -11.833   7.906  72.760  1.00  0.00     0.000 HD 
HETATM   39  C   UNL     1     -13.257   9.913  71.832  1.00  0.00    -0.458 C  
HETATM   40  F   UNL     1     -13.068  11.172  72.309  1.00  0.00    -0.581 F  
HETATM   41  O   UNL     1     -11.470   9.760  70.176  1.00  0.00    -0.245 OA 
HETATM   42  F   UNL     1     -14.284   9.976  70.940  1.00  0.00    -0.069 F  
HETATM   43  F   UNL     1     -13.709   9.164  72.880  1.00  0.00    -0.477 F  
HETATM   44  C   UNL     1     -11.980   9.320  71.209  1.00  0.00    -0.340 C  
ENDBRANCH  34  37
ENDBRANCH  27  28
ENDBRANCH   1  27
BRANCH   5  45
HETATM   45  C   UNL     1      -6.052   4.744  66.450  1.00  0.00    -0.031 C  
HETATM   46  O   UNL     1      -5.782   4.717  65.237  1.00  0.00    -0.013 OA 
BRANCH  45  47
HETATM   47  C   UNL     1      -6.107   3.415  67.206  1.00  0.00    -0.028 C  
BRANCH  47  48
HETATM   48  O   UNL     1      -6.781   2.323  66.605  1.00  0.00    -0.038 OA 
BRANCH  48  49
HETATM   49  C   UNL     1      -8.131   2.351  66.761  1.00  0.00    -0.082 C  
HETATM   50  O   UNL     1      -8.712   2.696  67.778  1.00  0.00    -0.091 OA 
BRANCH  49  51
HETATM   51  C   UNL     1      -8.809   1.932  65.481  1.00  0.00    -0.121 C  
BRANCH  51  52
HETATM   52  C   UNL     1      -8.427   2.845  64.319  1.00  0.00    -0.086 C  
BRANCH  52  53
HETATM   53  C   UNL     1      -9.302   4.099  64.258  1.00  0.00    -0.159 C  
HETATM   54  C   UNL     1     -10.782   3.766  64.296  1.00  0.00    -0.216 C  
ENDBRANCH  52  53
ENDBRANCH  51  52
ENDBRANCH  49  51
ENDBRANCH  48  49
ENDBRANCH  47  48
ENDBRANCH  45  47
ENDBRANCH   5  45
BRANCH  15  55
HETATM   55  O   UNL     1     -10.483  14.567  68.521  1.00  0.00    -0.236 OA 
HETATM   56  C   UNL     1     -11.308  15.532  69.168  1.00  0.00    -0.328 C  
ENDBRANCH  15  55
TORSDOF 11
ENDMDL
MODEL       19
REMARK 921   NORMALIZED FREE ENERGY PREDICTED BY IDOCK:   -5.58 KCAL/MOL
REMARK 922        TOTAL FREE ENERGY PREDICTED BY IDOCK:  -12.71 KCAL/MOL
REMARK 923 INTER-LIGAND FREE ENERGY PREDICTED BY IDOCK:  -10.09 KCAL/MOL
REMARK 924 INTRA-LIGAND FREE ENERGY PREDICTED BY IDOCK:   -2.62 KCAL/MOL
REMARK 927      BINDING AFFINITY PREDICTED BY RF-SCORE:    0.00 PKD
ROOT
HETATM    1  C   UNL     1      -9.464  12.971  67.335  1.00  0.00    -0.210 C  
HETATM    2  O   UNL     1      -5.140   9.274  70.538  1.00  0.00    -0.026 OA 
HETATM    3  C   UNL     1      -8.716  14.152  66.652  1.00  0.00    -0.073 C  
HETATM    4  C   UNL     1      -6.278   9.029  70.133  1.00  0.00    -0.038 C  
HETATM    5  C   UNL     1      -7.658  14.731  67.586  1.00  0.00    -0.174 C  
HETATM    6  O   UNL     1      -8.345  15.182  68.767  1.00  0.00    -0.153 OA 
HETATM    7  C   UNL     1      -6.619  13.609  67.898  1.00  0.00    -0.158 C  
HETATM    8  C   UNL     1      -6.967   7.776  70.583  1.00  0.00    -0.046 A  
HETATM    9  C   UNL     1      -6.374   6.965  71.565  1.00  0.00    -0.041 A  
HETATM   10  C   UNL     1      -7.194  12.230  68.222  1.00  0.00    -0.101 A  
HETATM   11  C   UNL     1      -7.017   5.809  72.017  1.00  0.00    -0.078 A  
HETATM   12  C   UNL     1      -8.241   5.429  71.472  1.00  0.00    -0.118 A  
HETATM   13  H   UNL     1     -10.751  10.954  67.092  1.00  0.00     0.000 HD 
HETATM   14  H   UNL     1      -7.687  15.543  69.349  1.00  0.00     0.000 HD 
HETATM   15  C   UNL     1      -8.833   6.205  70.470  1.00  0.00    -0.146 A  
HETATM   16  O   UNL     1     -10.251  10.312  67.583  1.00  0.00    -0.184 OA 
HETATM   17  C   UNL     1      -6.450  11.260  68.938  1.00  0.00    -0.063 A  
HETATM   18  C   UNL     1      -8.205   7.404  70.046  1.00  0.00    -0.131 A  
HETATM   19  O   UNL     1      -5.189  11.621  69.350  1.00  0.00    -0.051 OA 
HETATM   20  C   UNL     1      -6.991   9.987  69.260  1.00  0.00    -0.063 A  
HETATM   21  O   UNL     1      -9.837   7.987  68.422  1.00  0.00    -0.161 OA 
HETATM   22  C   UNL     1      -8.496  11.893  67.806  1.00  0.00    -0.154 A  
HETATM   23  C   UNL     1      -8.987  10.591  68.045  1.00  0.00    -0.135 A  
HETATM   24  C   UNL     1      -8.821   8.301  69.041  1.00  0.00    -0.143 C  
HETATM   25  C   UNL     1      -8.247   9.641  68.772  1.00  0.00    -0.106 A  
HETATM   26  H   UNL     1      -4.690  10.971  69.830  1.00  0.00     0.000 HD 
ENDROOT
BRANCH   1  27
HETATM   27  O   UNL     1     -10.160  13.255  68.561  1.00  0.00    -0.239 OA 
BRANCH  27  28
HETATM   28  C   UNL     1     -11.557  13.497  68.536  1.00  0.00    -0.333 C  
HETATM   29  O   UNL     1     -11.837  14.778  69.148  1.00  0.00    -0.292 OA 
HETATM   30  C   UNL     1     -11.927  16.201  71.139  1.00  0.00    -0.357 C  
HETATM   31  C   UNL     1     -12.636  13.801  71.224  1.00  0.00    -0.362 C  
HETATM   32  O   UNL     1     -13.999  14.068  70.848  1.00  0.00    -0.120 OA 
HETATM   33  H   UNL     1     -14.262  14.926  71.161  1.00  0.00     0.000 HD 
HETATM   34  C   UNL     1     -12.211  12.416  70.720  1.00  0.00    -0.242 C  
HETATM   35  C   UNL     1     -11.679  14.803  70.574  1.00  0.00    -0.293 C  
HETATM   36  C   UNL     1     -12.349  12.356  69.197  1.00  0.00     0.126 C  
BRANCH  34  37
HETATM   37  N   UNL     1     -12.939  11.352  71.407  1.00  0.00    -0.412 N  
HETATM   38  H   UNL     1     -13.750  11.575  71.983  1.00  0.00     0.000 HD 
HETATM   39  C   UNL     1     -13.286   8.989  72.104  1.00  0.00    -0.446 C  
HETATM   40  F   UNL     1     -13.995   8.123  71.333  1.00  0.00    -0.370 F  
HETATM   41  O   UNL     1     -11.572   9.731  70.532  1.00  0.00    -0.268 OA 
HETATM   42  F   UNL     1     -12.459   8.240  72.885  1.00  0.00    -0.360 F  
HETATM   43  F   UNL     1     -14.180   9.578  72.952  1.00  0.00    -0.314 F  
HETATM   44  C   UNL     1     -12.514  10.028  71.270  1.00  0.00    -0.392 C  
ENDBRANCH  34  37
ENDBRANCH  27  28
ENDBRANCH   1  27
BRANCH   5  45
HETATM   45  C   UNL     1      -6.907  16.042  67.252  1.00  0.00    -0.201 C  
HETATM   46  O   UNL     1      -5.806  16.254  67.786  1.00  0.00    -0.117 OA 
BRANCH  45  47
HETATM   47  C   UNL     1      -7.600  17.207  66.541  1.00  0.00    -0.285 C  
BRANCH  47  48
HETATM   48  O   UNL     1      -9.012  17.303  66.618  1.00  0.00    -0.236 OA 
BRANCH  48  49
HETATM   49  C   UNL     1      -9.461  18.036  67.672  1.00  0.00    -0.264 C  
HETATM   50  O   UNL     1     -10.327  17.679  68.456  1.00  0.00    -0.351 OA 
BRANCH  49  51
HETATM   51  C   UNL     1      -8.705  19.337  67.757  1.00  0.00    -0.345 C  
BRANCH  51  52
HETATM   52  C   UNL     1      -7.932  19.452  69.069  1.00  0.00    -0.301 C  
BRANCH  52  53
HETATM   53  C   UNL     1      -6.608  20.199  68.895  1.00  0.00    -0.328 C  
HETATM   54  C   UNL     1      -5.471  19.532  69.647  1.00  0.00    -0.230 C  
ENDBRANCH  52  53
ENDBRANCH  51  52
ENDBRANCH  49  51
ENDBRANCH  48  49
ENDBRANCH  47  48
ENDBRANCH  45  47
ENDBRANCH   5  45
BRANCH  15  55
HETATM   55  O   UNL     1     -10.054   5.877  69.934  1.00  0.00    -0.173 OA 
HETATM   56  C   UNL     1     -11.085   5.492  70.839  1.00  0.00    -0.037 C  
ENDBRANCH  15  55
TORSDOF 11
ENDMDL
MODEL       20
REMARK 921   NORMALIZED FREE ENERGY PREDICTED BY IDOCK:   -5.48 KCAL/MOL
REMARK 922        TOTAL FREE ENERGY PREDICTED BY IDOCK:  -12.56 KCAL/MOL
REMARK 923 INTER-LIGAND FREE ENERGY PREDICTED BY IDOCK:  -10.67 KCAL/MOL
REMARK 924 INTRA-LIGAND FREE ENERGY PREDICTED BY IDOCK:   -1.89 KCAL/MOL
REMARK 927      BINDING AFFINITY PREDICTED BY RF-SCORE:    0.00 PKD
ROOT
HETATM    1  C   UNL     1     -11.032   8.927  69.201  1.00  0.00     0.024 C  
HETATM    2  O   UNL     1      -7.088   7.475  64.204  1.00  0.00    -0.058 OA 
HETATM    3  C   UNL     1     -11.571  10.375  69.018  1.00  0.00    -0.220 C  
HETATM    4  C   UNL     1      -7.692   6.754  65.000  1.00  0.00    -0.108 C  
HETATM    5  C   UNL     1     -10.462  11.306  68.537  1.00  0.00    -0.197 C  
HETATM    6  O   UNL     1      -9.427  11.273  69.536  1.00  0.00    -0.367 OA 
HETATM    7  C   UNL     1      -9.964  10.792  67.150  1.00  0.00    -0.230 C  
HETATM    8  C   UNL     1      -7.371   5.290  65.060  1.00  0.00    -0.068 A  
HETATM    9  C   UNL     1      -6.296   4.779  64.314  1.00  0.00    -0.033 A  
HETATM   10  C   UNL     1      -9.746   9.283  67.031  1.00  0.00    -0.241 A  
HETATM   11  C   UNL     1      -5.965   3.422  64.381  1.00  0.00    -0.018 A  
HETATM   12  C   UNL     1      -6.721   2.554  65.164  1.00  0.00    -0.039 A  
HETATM   13  H   UNL     1     -11.498   6.570  69.294  1.00  0.00     0.000 HD 
HETATM   14  H   UNL     1      -8.736  11.852  69.237  1.00  0.00     0.000 HD 
HETATM   15  C   UNL     1      -7.816   3.037  65.888  1.00  0.00    -0.081 A  
HETATM   16  O   UNL     1     -10.923   6.204  68.632  1.00  0.00    -0.307 OA 
HETATM   17  C   UNL     1      -8.905   8.727  66.036  1.00  0.00    -0.175 A  
HETATM   18  C   UNL     1      -8.123   4.422  65.859  1.00  0.00    -0.102 A  
HETATM   19  O   UNL     1      -8.272   9.608  65.191  1.00  0.00    -0.122 OA 
HETATM   20  C   UNL     1      -8.682   7.327  65.938  1.00  0.00    -0.150 A  
HETATM   21  O   UNL     1     -10.017   4.294  67.286  1.00  0.00    -0.179 OA 
HETATM   22  C   UNL     1     -10.390   8.403  67.922  1.00  0.00    -0.279 A  
HETATM   23  C   UNL     1     -10.240   7.011  67.753  1.00  0.00    -0.180 A  
HETATM   24  C   UNL     1      -9.225   5.000  66.663  1.00  0.00    -0.129 C  
HETATM   25  C   UNL     1      -9.390   6.469  66.773  1.00  0.00    -0.179 A  
HETATM   26  H   UNL     1      -7.707   9.235  64.524  1.00  0.00     0.000 HD 
ENDROOT
BRANCH   1  27
HETATM   27  O   UNL     1      -9.953   8.740  70.133  1.00  0.00    -0.176 OA 
BRANCH  27  28
HETATM   28  C   UNL     1     -10.225   8.702  71.524  1.00  0.00    -0.274 C  
HETATM   29  O   UNL     1      -9.003   8.937  72.263  1.00  0.00    -0.388 OA 
HETATM   30  C   UNL     1      -6.783   8.190  72.978  1.00  0.00    -0.109 C  
HETATM   31  C   UNL     1      -8.711   6.597  72.852  1.00  0.00    -0.121 C  
HETATM   32  O   UNL     1      -9.167   6.857  74.191  1.00  0.00    -0.188 OA 
HETATM   33  H   UNL     1      -8.431   7.081  74.749  1.00  0.00     0.000 HD 
HETATM   34  C   UNL     1      -9.899   6.237  71.950  1.00  0.00    -0.155 C  
HETATM   35  C   UNL     1      -8.072   7.844  72.235  1.00  0.00    -0.127 C  
HETATM   36  C   UNL     1     -10.907   7.388  71.940  1.00  0.00    -0.262 C  
BRANCH  34  37
HETATM   37  N   UNL     1     -10.489   4.957  72.333  1.00  0.00    -0.206 N  
HETATM   38  H   UNL     1     -11.453   4.914  72.664  1.00  0.00     0.000 HD 
HETATM   39  C   UNL     1     -10.398   2.507  72.757  1.00  0.00    -0.157 C  
HETATM   40  F   UNL     1     -10.636   1.610  71.764  1.00  0.00    -0.220 F  
HETATM   41  O   UNL     1      -8.576   3.813  71.792  1.00  0.00    -0.090 OA 
HETATM   42  F   UNL     1      -9.645   1.869  73.696  1.00  0.00    -0.073 F  
HETATM   43  F   UNL     1     -11.603   2.763  73.346  1.00  0.00    -0.302 F  
HETATM   44  C   UNL     1      -9.723   3.792  72.244  1.00  0.00    -0.156 C  
ENDBRANCH  34  37
ENDBRANCH  27  28
ENDBRANCH   1  27
BRANCH   5  45
HETATM   45  C   UNL     1     -10.658  12.839  68.471  1.00  0.00    -0.252 C  
HETATM   46  O   UNL     1      -9.654  13.571  68.445  1.00  0.00    -0.217 OA 
BRANCH  45  47
HETATM   47  C   UNL     1     -12.017  13.489  68.745  1.00  0.00    -0.339 C  
BRANCH  47  48
HETATM   48  O   UNL     1     -12.081  14.902  68.850  1.00  0.00    -0.273 OA 
BRANCH  48  49
HETATM   49  C   UNL     1     -12.095  15.362  70.129  1.00  0.00    -0.369 C  
HETATM   50  O   UNL     1     -11.394  16.267  70.556  1.00  0.00    -0.378 OA 
BRANCH  49  51
HETATM   51  C   UNL     1     -13.132  14.622  70.934  1.00  0.00    -0.416 C  
BRANCH  51  52
HETATM   52  C   UNL     1     -13.684  15.485  72.066  1.00  0.00    -0.599 C  
BRANCH  52  53
HETATM   53  C   UNL     1     -13.017  15.171  73.408  1.00  0.00    -0.642 C  
HETATM   54  C   UNL     1     -12.367  16.396  74.024  1.00  0.00    -0.588 C  
ENDBRANCH  52  53
ENDBRANCH  51  52
ENDBRANCH  49  51
ENDBRANCH  48  49
ENDBRANCH  47  48
ENDBRANCH  45  47
ENDBRANCH   5  45
BRANCH  15  55
HETATM   55  O   UNL     1      -8.564   2.215  66.695  1.00  0.00    -0.099 OA 
HETATM   56  C   UNL     1      -7.952   1.737  67.890  1.00  0.00    -0.058 C  
ENDBRANCH  15  55
TORSDOF 11
ENDMDL
MODEL       21
REMARK 921   NORMALIZED FREE ENERGY PREDICTED BY IDOCK:   -5.38 KCAL/MOL
REMARK 922        TOTAL FREE ENERGY PREDICTED BY IDOCK:  -12.38 KCAL/MOL
REMARK 923 INTER-LIGAND FREE ENERGY PREDICTED BY IDOCK:  -10.27 KCAL/MOL
REMARK 924 INTRA-LIGAND FREE ENERGY PREDICTED BY IDOCK:   -2.11 KCAL/MOL
REMARK 927      BINDING AFFINITY PREDICTED BY RF-SCORE:    0.00 PKD
ROOT
HETATM    1  C   UNL     1     -10.895   9.855  68.377  1.00  0.00    -0.221 C  
HETATM    2  O   UNL     1      -7.102   8.854  63.159  1.00  0.00    -0.090 OA 
HETATM    3  C   UNL     1     -11.558  11.257  68.262  1.00  0.00    -0.370 C  
HETATM    4  C   UNL     1      -7.604   8.066  63.962  1.00  0.00    -0.124 C  
HETATM    5  C   UNL     1     -10.553  12.287  67.755  1.00  0.00    -0.219 C  
HETATM    6  O   UNL     1      -9.470  12.314  68.702  1.00  0.00    -0.359 OA 
HETATM    7  C   UNL     1     -10.085  11.850  66.332  1.00  0.00    -0.241 C  
HETATM    8  C   UNL     1      -7.164   6.632  63.964  1.00  0.00    -0.067 A  
HETATM    9  C   UNL     1      -6.089   6.230  63.154  1.00  0.00    -0.026 A  
HETATM   10  C   UNL     1      -9.752  10.367  66.160  1.00  0.00    -0.262 A  
HETATM   11  C   UNL     1      -5.648   4.904  63.166  1.00  0.00    -0.013 A  
HETATM   12  C   UNL     1      -6.291   3.957  63.959  1.00  0.00    -0.030 A  
HETATM   13  H   UNL     1     -11.165   7.465  68.425  1.00  0.00     0.000 HD 
HETATM   14  H   UNL     1      -8.844  12.956  68.387  1.00  0.00     0.000 HD 
HETATM   15  C   UNL     1      -7.384   4.331  64.748  1.00  0.00    -0.071 A  
HETATM   16  O   UNL     1     -10.596   7.164  67.727  1.00  0.00    -0.207 OA 
HETATM   17  C   UNL     1      -8.919   9.907  65.110  1.00  0.00    -0.198 A  
HETATM   18  C   UNL     1      -7.803   5.686  64.774  1.00  0.00    -0.112 A  
HETATM   19  O   UNL     1      -8.402  10.857  64.262  1.00  0.00    -0.368 OA 
HETATM   20  C   UNL     1      -8.590   8.533  64.962  1.00  0.00    -0.162 A  
HETATM   21  O   UNL     1      -9.607   5.368  66.285  1.00  0.00    -0.151 OA 
HETATM   22  C   UNL     1     -10.278   9.417  67.055  1.00  0.00    -0.322 A  
HETATM   23  C   UNL     1     -10.025   8.045  66.839  1.00  0.00    -0.268 A  
HETATM   24  C   UNL     1      -8.906   6.152  65.645  1.00  0.00    -0.092 C  
HETATM   25  C   UNL     1      -9.183   7.599  65.805  1.00  0.00     0.025 A  
HETATM   26  H   UNL     1      -7.844  10.548  63.558  1.00  0.00     0.000 HD 
ENDROOT
BRANCH   1  27
HETATM   27  O   UNL     1      -9.760   9.733  69.251  1.00  0.00    -0.175 OA 
BRANCH  27  28
HETATM   28  C   UNL     1      -9.946   9.303  70.590  1.00  0.00    -0.273 C  
HETATM   29  O   UNL     1      -8.741   9.555  71.351  1.00  0.00    -0.211 OA 
HETATM   30  C   UNL     1      -6.393   9.050  71.830  1.00  0.00    -0.049 C  
HETATM   31  C   UNL     1      -8.036   7.230  71.321  1.00  0.00    -0.098 C  
HETATM   32  O   UNL     1      -8.454   7.065  72.688  1.00  0.00    -0.112 OA 
HETATM   33  H   UNL     1      -7.736   7.266  73.277  1.00  0.00     0.000 HD 
HETATM   34  C   UNL     1      -9.195   6.905  70.370  1.00  0.00    -0.156 C  
HETATM   35  C   UNL     1      -7.646   8.683  71.036  1.00  0.00    -0.100 C  
HETATM   36  C   UNL     1     -10.378   7.829  70.664  1.00  0.00    -0.202 C  
BRANCH  34  37
HETATM   37  N   UNL     1      -9.543   5.488  70.421  1.00  0.00    -0.165 N  
HETATM   38  H   UNL     1     -10.301   5.167  71.022  1.00  0.00     0.000 HD 
HETATM   39  C   UNL     1      -9.207   3.094  69.830  1.00  0.00    -0.150 C  
HETATM   40  F   UNL     1      -9.778   2.555  68.720  1.00  0.00    -0.237 F  
HETATM   41  O   UNL     1      -7.949   4.949  68.862  1.00  0.00    -0.076 OA 
HETATM   42  F   UNL     1      -8.126   2.323  70.134  1.00  0.00    -0.044 F  
HETATM   43  F   UNL     1     -10.098   2.921  70.849  1.00  0.00    -0.188 F  
HETATM   44  C   UNL     1      -8.830   4.575  69.640  1.00  0.00    -0.084 C  
ENDBRANCH  34  37
ENDBRANCH  27  28
ENDBRANCH   1  27
BRANCH   5  45
HETATM   45  C   UNL     1     -10.875  13.800  67.743  1.00  0.00    -0.250 C  
HETATM   46  O   UNL     1     -12.056  14.160  67.600  1.00  0.00    -0.378 OA 
BRANCH  45  47
HETATM   47  C   UNL     1      -9.777  14.856  67.593  1.00  0.00    -0.212 C  
BRANCH  47  48
HETATM   48  O   UNL     1      -9.401  15.259  66.287  1.00  0.00    -0.268 OA 
BRANCH  48  49
HETATM   49  C   UNL     1      -9.950  16.439  65.891  1.00  0.00    -0.332 C  
HETATM   50  O   UNL     1     -10.685  16.582  64.927  1.00  0.00    -0.702 OA 
BRANCH  49  51
HETATM   51  C   UNL     1      -9.551  17.539  66.841  1.00  0.00    -0.279 C  
BRANCH  51  52
HETATM   52  C   UNL     1     -10.594  18.654  66.878  1.00  0.00    -0.437 C  
BRANCH  52  53
HETATM   53  C   UNL     1      -9.955  20.036  67.035  1.00  0.00    -0.582 C  
HETATM   54  C   UNL     1      -8.468  19.950  67.322  1.00  0.00    -0.375 C  
ENDBRANCH  52  53
ENDBRANCH  51  52
ENDBRANCH  49  51
ENDBRANCH  48  49
ENDBRANCH  47  48
ENDBRANCH  45  47
ENDBRANCH   5  45
BRANCH  15  55
HETATM   55  O   UNL     1      -8.022   3.431  65.566  1.00  0.00    -0.088 OA 
HETATM   56  C   UNL     1      -8.572   2.267  64.955  1.00  0.00    -0.105 C  
ENDBRANCH  15  55
TORSDOF 11
ENDMDL
MODEL       22
REMARK 921   NORMALIZED FREE ENERGY PREDICTED BY IDOCK:   -5.28 KCAL/MOL
REMARK 922        TOTAL FREE ENERGY PREDICTED BY IDOCK:  -12.23 KCAL/MOL
REMARK 923 INTER-LIGAND FREE ENERGY PREDICTED BY IDOCK:   -9.16 KCAL/MOL
REMARK 924 INTRA-LIGAND FREE ENERGY PREDICTED BY IDOCK:   -3.07 KCAL/MOL
REMARK 927      BINDING AFFINITY PREDICTED BY RF-SCORE:    0.00 PKD
ROOT
HETATM    1  C   UNL     1     -10.737   7.345  69.384  1.00  0.00    -0.211 C  
HETATM    2  O   UNL     1     -13.156  12.571  72.460  1.00  0.00    -0.298 OA 
HETATM    3  C   UNL     1     -11.233   6.058  70.102  1.00  0.00    -0.412 C  
HETATM    4  C   UNL     1     -12.706  12.434  71.321  1.00  0.00    -0.248 C  
HETATM    5  C   UNL     1     -11.176   6.231  71.617  1.00  0.00    -0.285 C  
HETATM    6  O   UNL     1      -9.804   6.503  71.955  1.00  0.00    -0.159 OA 
HETATM    7  C   UNL     1     -12.126   7.406  72.008  1.00  0.00    -0.325 C  
HETATM    8  C   UNL     1     -12.422  13.648  70.488  1.00  0.00    -0.394 A  
HETATM    9  C   UNL     1     -12.534  14.927  71.056  1.00  0.00    -0.396 A  
HETATM   10  C   UNL     1     -12.045   8.657  71.132  1.00  0.00    -0.297 A  
HETATM   11  C   UNL     1     -12.244  16.069  70.302  1.00  0.00    -0.122 A  
HETATM   12  C   UNL     1     -11.871  15.950  68.965  1.00  0.00    -0.328 A  
HETATM   13  H   UNL     1     -10.749   8.717  67.408  1.00  0.00     0.000 HD 
HETATM   14  H   UNL     1      -9.768   6.610  72.898  1.00  0.00     0.000 HD 
HETATM   15  C   UNL     1     -11.785  14.686  68.372  1.00  0.00    -0.320 A  
HETATM   16  O   UNL     1     -11.035   9.564  67.728  1.00  0.00    -0.244 OA 
HETATM   17  C   UNL     1     -12.485   9.921  71.595  1.00  0.00    -0.415 A  
HETATM   18  C   UNL     1     -12.032  13.525  69.149  1.00  0.00    -0.378 A  
HETATM   19  O   UNL     1     -12.972   9.981  72.879  1.00  0.00    -0.148 OA 
HETATM   20  C   UNL     1     -12.388  11.089  70.792  1.00  0.00    -0.496 A  
HETATM   21  O   UNL     1     -11.679  11.963  67.396  1.00  0.00    -0.503 OA 
HETATM   22  C   UNL     1     -11.523   8.573  69.827  1.00  0.00     0.241 A  
HETATM   23  C   UNL     1     -11.524   9.718  69.004  1.00  0.00     0.133 A  
HETATM   24  C   UNL     1     -11.886  12.160  68.592  1.00  0.00    -0.306 C  
HETATM   25  C   UNL     1     -11.947  10.973  69.477  1.00  0.00    -0.413 A  
HETATM   26  H   UNL     1     -13.267  10.829  73.190  1.00  0.00     0.000 HD 
ENDROOT
BRANCH   1  27
HETATM   27  O   UNL     1      -9.394   7.778  69.662  1.00  0.00    -0.153 OA 
BRANCH  27  28
HETATM   28  C   UNL     1      -8.376   7.579  68.694  1.00  0.00    -0.129 C  
HETATM   29  O   UNL     1      -7.237   6.937  69.315  1.00  0.00    -0.084 OA 
HETATM   30  C   UNL     1      -5.338   7.024  70.859  1.00  0.00    -0.023 C  
HETATM   31  C   UNL     1      -5.928   8.982  69.414  1.00  0.00    -0.037 C  
HETATM   32  O   UNL     1      -5.131   8.549  68.298  1.00  0.00    -0.032 OA 
HETATM   33  H   UNL     1      -4.376   8.061  68.605  1.00  0.00     0.000 HD 
HETATM   34  C   UNL     1      -7.148   9.770  68.918  1.00  0.00    -0.067 C  
HETATM   35  C   UNL     1      -6.483   7.786  70.192  1.00  0.00    -0.034 C  
HETATM   36  C   UNL     1      -7.989   8.890  67.991  1.00  0.00    -0.102 C  
BRANCH  34  37
HETATM   37  N   UNL     1      -6.751  11.036  68.307  1.00  0.00    -0.058 N  
HETATM   38  H   UNL     1      -5.910  11.088  67.733  1.00  0.00     0.000 HD 
HETATM   39  C   UNL     1      -6.985  13.482  67.910  1.00  0.00    -0.144 C  
HETATM   40  F   UNL     1      -7.770  13.961  66.910  1.00  0.00    -0.119 F  
HETATM   41  O   UNL     1      -8.584  12.122  69.157  1.00  0.00     0.287 OA 
HETATM   42  F   UNL     1      -6.875  14.473  68.837  1.00  0.00    -0.082 F  
HETATM   43  F   UNL     1      -5.738  13.315  67.381  1.00  0.00    -0.133 F  
HETATM   44  C   UNL     1      -7.532  12.176  68.515  1.00  0.00    -0.117 C  
ENDBRANCH  34  37
ENDBRANCH  27  28
ENDBRANCH   1  27
BRANCH   5  45
HETATM   45  C   UNL     1     -11.411   5.044  72.581  1.00  0.00    -0.133 C  
HETATM   46  O   UNL     1     -12.578   4.718  72.857  1.00  0.00     0.236 OA 
BRANCH  45  47
HETATM   47  C   UNL     1     -10.280   4.463  73.434  1.00  0.00    -0.165 C  
BRANCH  47  48
HETATM   48  O   UNL     1      -9.128   3.961  72.777  1.00  0.00    -0.103 OA 
BRANCH  48  49
HETATM   49  C   UNL     1      -9.107   2.607  72.652  1.00  0.00    -0.078 C  
HETATM   50  O   UNL     1      -8.828   1.825  73.547  1.00  0.00    -0.064 OA 
BRANCH  49  51
HETATM   51  C   UNL     1      -9.519   2.210  71.258  1.00  0.00    -0.211 C  
BRANCH  51  52
HETATM   52  C   UNL     1      -9.093   3.254  70.228  1.00  0.00    -0.196 C  
BRANCH  52  53
HETATM   53  C   UNL     1      -9.202   2.728  68.795  1.00  0.00    -0.231 C  
HETATM   54  C   UNL     1      -9.331   3.850  67.782  1.00  0.00    -0.230 C  
ENDBRANCH  52  53
ENDBRANCH  51  52
ENDBRANCH  49  51
ENDBRANCH  48  49
ENDBRANCH  47  48
ENDBRANCH  45  47
ENDBRANCH   5  45
BRANCH  15  55
HETATM   55  O   UNL     1     -11.390  14.531  67.066  1.00  0.00    -0.325 OA 
HETATM   56  C   UNL     1     -10.588  15.562  66.497  1.00  0.00    -0.307 C  
ENDBRANCH  15  55
TORSDOF 11
ENDMDL
MODEL       23
REMARK 921   NORMALIZED FREE ENERGY PREDICTED BY IDOCK:   -5.26 KCAL/MOL
REMARK 922        TOTAL FREE ENERGY PREDICTED BY IDOCK:  -12.19 KCAL/MOL
REMARK 923 INTER-LIGAND FREE ENERGY PREDICTED BY IDOCK:   -9.36 KCAL/MOL
REMARK 924 INTRA-LIGAND FREE ENERGY PREDICTED BY IDOCK:   -2.83 KCAL/MOL
REMARK 927      BINDING AFFINITY PREDICTED BY RF-SCORE:    0.00 PKD
ROOT
HETATM    1  C   UNL     1      -6.581  12.839  67.864  1.00  0.00    -0.118 C  
HETATM    2  O   UNL     1      -5.288   9.705  73.443  1.00  0.00    -0.244 OA 
HETATM    3  C   UNL     1      -6.001  14.280  67.945  1.00  0.00    -0.145 C  
HETATM    4  C   UNL     1      -5.575   9.283  72.321  1.00  0.00    -0.055 C  
HETATM    5  C   UNL     1      -6.262  14.889  69.319  1.00  0.00    -0.110 C  
HETATM    6  O   UNL     1      -7.689  14.905  69.505  1.00  0.00    -0.267 OA 
HETATM    7  C   UNL     1      -5.536  14.010  70.385  1.00  0.00    -0.121 C  
HETATM    8  C   UNL     1      -5.923   7.835  72.143  1.00  0.00    -0.039 A  
HETATM    9  C   UNL     1      -6.057   7.005  73.267  1.00  0.00    -0.057 A  
HETATM   10  C   UNL     1      -5.684  12.496  70.223  1.00  0.00    -0.165 A  
HETATM   11  C   UNL     1      -6.409   5.660  73.121  1.00  0.00    -0.062 A  
HETATM   12  C   UNL     1      -6.600   5.119  71.852  1.00  0.00    -0.040 A  
HETATM   13  H   UNL     1      -6.522  10.668  66.830  1.00  0.00     0.000 HD 
HETATM   14  H   UNL     1      -7.851  15.284  70.361  1.00  0.00     0.000 HD 
HETATM   15  C   UNL     1      -6.440   5.922  70.717  1.00  0.00    -0.040 A  
HETATM   16  O   UNL     1      -6.396  10.077  67.563  1.00  0.00    -0.058 OA 
HETATM   17  C   UNL     1      -5.480  11.606  71.306  1.00  0.00     0.056 A  
HETATM   18  C   UNL     1      -6.130   7.298  70.867  1.00  0.00    -0.035 A  
HETATM   19  O   UNL     1      -5.163  12.165  72.521  1.00  0.00    -0.343 OA 
HETATM   20  C   UNL     1      -5.640  10.202  71.163  1.00  0.00    -0.074 A  
HETATM   21  O   UNL     1      -6.054   7.797  68.546  1.00  0.00    -0.034 OA 
HETATM   22  C   UNL     1      -6.030  11.951  68.972  1.00  0.00    -0.066 A  
HETATM   23  C   UNL     1      -6.089  10.549  68.817  1.00  0.00    -0.040 A  
HETATM   24  C   UNL     1      -6.020   8.210  69.705  1.00  0.00    -0.029 C  
HETATM   25  C   UNL     1      -5.901   9.674  69.902  1.00  0.00    -0.041 A  
HETATM   26  H   UNL     1      -5.026  11.568  73.248  1.00  0.00     0.000 HD 
ENDROOT
BRANCH   1  27
HETATM   27  O   UNL     1      -7.995  12.685  68.081  1.00  0.00    -0.140 OA 
BRANCH  27  28
HETATM   28  C   UNL     1      -8.876  12.638  66.971  1.00  0.00    -0.212 C  
HETATM   29  O   UNL     1     -10.032  13.466  67.236  1.00  0.00    -0.227 OA 
HETATM   30  C   UNL     1     -12.100  13.882  68.480  1.00  0.00    -0.331 C  
HETATM   31  C   UNL     1     -11.482  11.577  67.719  1.00  0.00    -0.286 C  
HETATM   32  O   UNL     1     -12.112  11.706  66.432  1.00  0.00    -0.371 OA 
HETATM   33  H   UNL     1     -12.862  12.286  66.492  1.00  0.00     0.000 HD 
HETATM   34  C   UNL     1     -10.271  10.641  67.624  1.00  0.00    -0.194 C  
HETATM   35  C   UNL     1     -10.941  12.925  68.205  1.00  0.00    -0.256 C  
HETATM   36  C   UNL     1      -9.268  11.196  66.610  1.00  0.00    -0.188 C  
BRANCH  34  37
HETATM   37  N   UNL     1     -10.680   9.268  67.338  1.00  0.00    -0.377 N  
HETATM   38  H   UNL     1     -11.261   9.065  66.525  1.00  0.00     0.000 HD 
HETATM   39  C   UNL     1     -10.828   6.840  67.858  1.00  0.00    -0.247 C  
HETATM   40  F   UNL     1      -9.860   5.973  67.460  1.00  0.00    -0.115 F  
HETATM   41  O   UNL     1      -9.522   8.453  69.142  1.00  0.00    -0.154 OA 
HETATM   42  F   UNL     1     -11.455   6.271  68.925  1.00  0.00    -0.425 F  
HETATM   43  F   UNL     1     -11.751   6.882  66.853  1.00  0.00    -0.242 F  
HETATM   44  C   UNL     1     -10.271   8.237  68.187  1.00  0.00    -0.210 C  
ENDBRANCH  34  37
ENDBRANCH  27  28
ENDBRANCH   1  27
BRANCH   5  45
HETATM   45  C   UNL     1      -5.983  16.382  69.614  1.00  0.00    -0.191 C  
HETATM   46  O   UNL     1      -5.473  16.691  70.704  1.00  0.00    -0.194 OA 
BRANCH  45  47
HETATM   47  C   UNL     1      -6.584  17.498  68.757  1.00  0.00    -0.216 C  
BRANCH  47  48
HETATM   48  O   UNL     1      -7.588  17.160  67.815  1.00  0.00    -0.170 OA 
BRANCH  48  49
HETATM   49  C   UNL     1      -7.663  18.009  66.755  1.00  0.00    -0.225 C  
HETATM   50  O   UNL     1      -7.881  17.672  65.602  1.00  0.00    -0.533 OA 
BRANCH  49  51
HETATM   51  C   UNL     1      -7.477  19.431  67.217  1.00  0.00    -0.254 C  
BRANCH  51  52
HETATM   52  C   UNL     1      -8.780  20.222  67.136  1.00  0.00    -0.429 C  
BRANCH  52  53
HETATM   53  C   UNL     1      -9.815  19.736  68.154  1.00  0.00    -0.536 C  
HETATM   54  C   UNL     1     -11.036  19.132  67.484  1.00  0.00    -0.405 C  
ENDBRANCH  52  53
ENDBRANCH  51  52
ENDBRANCH  49  51
ENDBRANCH  48  49
ENDBRANCH  47  48
ENDBRANCH  45  47
ENDBRANCH   5  45
BRANCH  15  55
HETATM   55  O   UNL     1      -6.651   5.430  69.453  1.00  0.00    -0.043 OA 
HETATM   56  C   UNL     1      -7.428   4.241  69.334  1.00  0.00    -0.054 C  
ENDBRANCH  15  55
TORSDOF 11
ENDMDL
MODEL       24
REMARK 921   NORMALIZED FREE ENERGY PREDICTED BY IDOCK:   -5.20 KCAL/MOL
REMARK 922        TOTAL FREE ENERGY PREDICTED BY IDOCK:  -12.09 KCAL/MOL
REMARK 923 INTER-LIGAND FREE ENERGY PREDICTED BY IDOCK:  -11.75 KCAL/MOL
REMARK 924 INTRA-LIGAND FREE ENERGY PREDICTED BY IDOCK:   -0.33 KCAL/MOL
REMARK 927      BINDING AFFINITY PREDICTED BY RF-SCORE:    0.00 PKD
ROOT
HETATM    1  C   UNL     1      -6.830  14.110  67.478  1.00  0.00    -0.130 C  
HETATM    2  O   UNL     1      -5.575  10.105  72.479  1.00  0.00    -0.305 OA 
HETATM    3  C   UNL     1      -6.155  15.485  67.747  1.00  0.00    -0.175 C  
HETATM    4  C   UNL     1      -5.923   9.874  71.319  1.00  0.00     0.002 C  
HETATM    5  C   UNL     1      -6.334  15.896  69.206  1.00  0.00    -0.153 C  
HETATM    6  O   UNL     1      -7.751  15.969  69.448  1.00  0.00    -0.231 OA 
HETATM    7  C   UNL     1      -5.635  14.825  70.101  1.00  0.00    -0.120 C  
HETATM    8  C   UNL     1      -6.369   8.492  70.944  1.00  0.00    -0.041 A  
HETATM    9  C   UNL     1      -6.522   7.512  71.938  1.00  0.00    -0.042 A  
HETATM   10  C   UNL     1      -5.886  13.365  69.724  1.00  0.00    -0.119 A  
HETATM   11  C   UNL     1      -6.965   6.228  71.609  1.00  0.00    -0.076 A  
HETATM   12  C   UNL     1      -7.229   5.896  70.282  1.00  0.00    -0.075 A  
HETATM   13  H   UNL     1      -6.943  12.118  66.135  1.00  0.00     0.000 HD 
HETATM   14  H   UNL     1      -7.863  16.225  70.356  1.00  0.00     0.000 HD 
HETATM   15  C   UNL     1      -7.051   6.847  69.273  1.00  0.00    -0.084 A  
HETATM   16  O   UNL     1      -6.833  11.417  66.767  1.00  0.00    -0.132 OA 
HETATM   17  C   UNL     1      -5.708  12.312  70.654  1.00  0.00    -0.135 A  
HETATM   18  C   UNL     1      -6.648   8.165  69.612  1.00  0.00    -0.037 A  
HETATM   19  O   UNL     1      -5.318  12.664  71.926  1.00  0.00    -0.378 OA 
HETATM   20  C   UNL     1      -5.962  10.958  70.313  1.00  0.00    -0.130 A  
HETATM   21  O   UNL     1      -6.610   9.000  67.389  1.00  0.00    -0.063 OA 
HETATM   22  C   UNL     1      -6.304  13.034  68.420  1.00  0.00    -0.082 A  
HETATM   23  C   UNL     1      -6.458  11.678  68.064  1.00  0.00    -0.055 A  
HETATM   24  C   UNL     1      -6.515   9.232  68.593  1.00  0.00    -0.053 C  
HETATM   25  C   UNL     1      -6.296  10.641  69.000  1.00  0.00    -0.046 A  
HETATM   26  H   UNL     1      -5.199  11.958  72.550  1.00  0.00     0.000 HD 
ENDROOT
BRANCH   1  27
HETATM   27  O   UNL     1      -8.243  14.009  67.726  1.00  0.00    -0.142 OA 
BRANCH  27  28
HETATM   28  C   UNL     1      -8.958  12.875  67.265  1.00  0.00    -0.208 C  
HETATM   29  O   UNL     1      -9.758  13.241  66.116  1.00  0.00    -0.281 OA 
HETATM   30  C   UNL     1     -11.654  14.457  65.155  1.00  0.00    -0.361 C  
HETATM   31  C   UNL     1     -11.836  13.310  67.374  1.00  0.00    -0.366 C  
HETATM   32  O   UNL     1     -12.236  12.045  66.820  1.00  0.00    -0.545 OA 
HETATM   33  H   UNL     1     -12.728  12.180  66.017  1.00  0.00     0.000 HD 
HETATM   34  C   UNL     1     -11.042  13.093  68.669  1.00  0.00    -0.269 C  
HETATM   35  C   UNL     1     -10.898  14.057  66.421  1.00  0.00    -0.299 C  
HETATM   36  C   UNL     1      -9.806  12.240  68.379  1.00  0.00    -0.199 C  
BRANCH  34  37
HETATM   37  N   UNL     1     -11.889  12.543  69.725  1.00  0.00    -0.370 N  
HETATM   38  H   UNL     1     -12.429  13.165  70.326  1.00  0.00     0.000 HD 
HETATM   39  C   UNL     1     -12.795  10.678  71.101  1.00  0.00    -0.420 C  
HETATM   40  F   UNL     1     -13.902   9.990  70.715  1.00  0.00    -0.363 F  
HETATM   41  O   UNL     1     -11.351  10.387  69.154  1.00  0.00    -0.240 OA 
HETATM   42  F   UNL     1     -12.091   9.862  71.933  1.00  0.00    -0.443 F  
HETATM   43  F   UNL     1     -13.232  11.719  71.869  1.00  0.00    -0.533 F  
HETATM   44  C   UNL     1     -11.951  11.159  69.906  1.00  0.00    -0.363 C  
ENDBRANCH  34  37
ENDBRANCH  27  28
ENDBRANCH   1  27
BRANCH   5  45
HETATM   45  C   UNL     1      -5.950  17.308  69.706  1.00  0.00    -0.243 C  
HETATM   46  O   UNL     1      -5.230  17.411  70.714  1.00  0.00    -0.252 OA 
BRANCH  45  47
HETATM   47  C   UNL     1      -6.663  18.564  69.199  1.00  0.00    -0.263 C  
BRANCH  47  48
HETATM   48  O   UNL     1      -6.238  19.134  67.972  1.00  0.00    -0.208 OA 
BRANCH  48  49
HETATM   49  C   UNL     1      -7.084  20.075  67.476  1.00  0.00    -0.265 C  
HETATM   50  O   UNL     1      -6.859  21.276  67.449  1.00  0.00    -0.497 OA 
BRANCH  49  51
HETATM   51  C   UNL     1      -8.324  19.419  66.926  1.00  0.00    -0.308 C  
BRANCH  51  52
HETATM   52  C   UNL     1      -9.550  20.316  67.079  1.00  0.00    -0.572 C  
BRANCH  52  53
HETATM   53  C   UNL     1     -10.853  19.513  67.101  1.00  0.00    -0.555 C  
HETATM   54  C   UNL     1     -10.714  18.217  67.877  1.00  0.00    -0.335 C  
ENDBRANCH  52  53
ENDBRANCH  51  52
ENDBRANCH  49  51
ENDBRANCH  48  49
ENDBRANCH  47  48
ENDBRANCH  45  47
ENDBRANCH   5  45
BRANCH  15  55
HETATM   55  O   UNL     1      -7.332   6.563  67.960  1.00  0.00    -0.085 OA 
HETATM   56  C   UNL     1      -8.656   6.137  67.650  1.00  0.00    -0.106 C  
ENDBRANCH  15  55
TORSDOF 11
ENDMDL
MODEL       25
REMARK 921   NORMALIZED FREE ENERGY PREDICTED BY IDOCK:   -5.14 KCAL/MOL
REMARK 922        TOTAL FREE ENERGY PREDICTED BY IDOCK:  -12.00 KCAL/MOL
REMARK 923 INTER-LIGAND FREE ENERGY PREDICTED BY IDOCK:   -9.35 KCAL/MOL
REMARK 924 INTRA-LIGAND FREE ENERGY PREDICTED BY IDOCK:   -2.65 KCAL/MOL
REMARK 927      BINDING AFFINITY PREDICTED BY RF-SCORE:    0.00 PKD
ROOT
HETATM    1  C   UNL     1      -8.598  10.735  68.706  1.00  0.00    -0.156 C  
HETATM    2  O   UNL     1     -11.895   6.328  72.217  1.00  0.00    -0.311 OA 
HETATM    3  C   UNL     1      -9.322  12.108  68.805  1.00  0.00     0.072 C  
HETATM    4  C   UNL     1     -10.730   6.342  71.817  1.00  0.00    -0.233 C  
HETATM    5  C   UNL     1     -10.834  11.928  68.704  1.00  0.00    -0.235 C  
HETATM    6  O   UNL     1     -11.096  11.306  67.433  1.00  0.00    -0.262 OA 
HETATM    7  C   UNL     1     -11.298  11.043  69.903  1.00  0.00    -0.364 C  
HETATM    8  C   UNL     1      -9.902   5.095  71.910  1.00  0.00    -0.230 A  
HETATM    9  C   UNL     1     -10.497   3.890  72.318  1.00  0.00    -0.102 A  
HETATM   10  C   UNL     1     -10.440   9.813  70.204  1.00  0.00    -0.338 A  
HETATM   11  C   UNL     1      -9.746   2.712  72.382  1.00  0.00    -0.206 A  
HETATM   12  C   UNL     1      -8.389   2.728  72.073  1.00  0.00    -0.064 A  
HETATM   13  H   UNL     1      -6.649   9.413  69.196  1.00  0.00     0.000 HD 
HETATM   14  H   UNL     1     -12.037  11.194  67.369  1.00  0.00     0.000 HD 
HETATM   15  C   UNL     1      -7.770   3.924  71.695  1.00  0.00    -0.061 A  
HETATM   16  O   UNL     1      -6.999   8.671  69.673  1.00  0.00    -0.049 OA 
HETATM   17  C   UNL     1     -10.948   8.709  70.930  1.00  0.00    -0.253 A  
HETATM   18  C   UNL     1      -8.541   5.110  71.583  1.00  0.00    -0.132 A  
HETATM   19  O   UNL     1     -12.260   8.780  71.338  1.00  0.00    -0.294 OA 
HETATM   20  C   UNL     1     -10.161   7.556  71.191  1.00  0.00    -0.195 A  
HETATM   21  O   UNL     1      -6.744   6.523  70.940  1.00  0.00    -0.052 OA 
HETATM   22  C   UNL     1      -9.106   9.757  69.758  1.00  0.00    -0.246 A  
HETATM   23  C   UNL     1      -8.303   8.651  70.107  1.00  0.00    -0.126 A  
HETATM   24  C   UNL     1      -7.954   6.388  71.119  1.00  0.00    -0.116 C  
HETATM   25  C   UNL     1      -8.821   7.551  70.814  1.00  0.00    -0.148 A  
HETATM   26  H   UNL     1     -12.601   8.039  71.825  1.00  0.00     0.000 HD 
ENDROOT
BRANCH   1  27
HETATM   27  O   UNL     1      -8.805   9.966  67.509  1.00  0.00    -0.128 OA 
BRANCH  27  28
HETATM   28  C   UNL     1      -7.796   9.932  66.512  1.00  0.00    -0.110 C  
HETATM   29  O   UNL     1      -8.157  10.819  65.428  1.00  0.00    -0.138 OA 
HETATM   30  C   UNL     1      -9.601  11.361  63.525  1.00  0.00    -0.315 C  
HETATM   31  C   UNL     1      -8.850   9.012  63.958  1.00  0.00    -0.015 C  
HETATM   32  O   UNL     1      -7.634   9.136  63.200  1.00  0.00    -0.100 OA 
HETATM   33  H   UNL     1      -7.755   9.752  62.486  1.00  0.00     0.000 HD 
HETATM   34  C   UNL     1      -8.655   8.018  65.111  1.00  0.00    -0.051 C  
HETATM   35  C   UNL     1      -9.234  10.345  64.606  1.00  0.00    -0.240 C  
HETATM   36  C   UNL     1      -7.524   8.500  66.021  1.00  0.00    -0.085 C  
BRANCH  34  37
HETATM   37  N   UNL     1      -8.456   6.659  64.614  1.00  0.00    -0.347 N  
HETATM   38  H   UNL     1      -7.829   6.486  63.829  1.00  0.00     0.000 HD 
HETATM   39  C   UNL     1      -8.933   4.217  64.572  1.00  0.00    -0.147 C  
HETATM   40  F   UNL     1      -8.260   3.354  65.378  1.00  0.00    -0.093 F  
HETATM   41  O   UNL     1      -9.850   5.778  66.209  1.00  0.00    -0.153 OA 
HETATM   42  F   UNL     1     -10.115   3.622  64.252  1.00  0.00    -0.157 F  
HETATM   43  F   UNL     1      -8.221   4.299  63.409  1.00  0.00    -0.083 F  
HETATM   44  C   UNL     1      -9.132   5.598  65.222  1.00  0.00     0.037 C  
ENDBRANCH  34  37
ENDBRANCH  27  28
ENDBRANCH   1  27
BRANCH   5  45
HETATM   45  C   UNL     1     -11.790  13.136  68.562  1.00  0.00    -0.342 C  
HETATM   46  O   UNL     1     -12.468  13.482  69.544  1.00  0.00    -0.205 OA 
BRANCH  45  47
HETATM   47  C   UNL     1     -12.154  13.718  67.193  1.00  0.00    -0.378 C  
BRANCH  47  48
HETATM   48  O   UNL     1     -11.654  14.999  66.849  1.00  0.00    -0.323 OA 
BRANCH  48  49
HETATM   49  C   UNL     1     -10.657  14.975  65.925  1.00  0.00    -0.329 C  
HETATM   50  O   UNL     1      -9.931  14.019  65.702  1.00  0.00    -0.311 OA 
BRANCH  49  51
HETATM   51  C   UNL     1     -10.604  16.288  65.187  1.00  0.00    -0.327 C  
BRANCH  51  52
HETATM   52  C   UNL     1     -10.412  17.462  66.143  1.00  0.00    -0.284 C  
BRANCH  52  53
HETATM   53  C   UNL     1      -8.958  17.601  66.602  1.00  0.00    -0.283 C  
HETATM   54  C   UNL     1      -8.421  19.004  66.385  1.00  0.00    -0.312 C  
ENDBRANCH  52  53
ENDBRANCH  51  52
ENDBRANCH  49  51
ENDBRANCH  48  49
ENDBRANCH  47  48
ENDBRANCH  45  47
ENDBRANCH   5  45
BRANCH  15  55
HETATM   55  O   UNL     1      -6.441   3.969  71.353  1.00  0.00    -0.015 OA 
HETATM   56  C   UNL     1      -5.993   3.066  70.346  1.00  0.00    -0.019 C  
ENDBRANCH  15  55
TORSDOF 11
ENDMDL
MODEL       26
REMARK 921   NORMALIZED FREE ENERGY PREDICTED BY IDOCK:   -5.03 KCAL/MOL
REMARK 922        TOTAL FREE ENERGY PREDICTED BY IDOCK:  -11.82 KCAL/MOL
REMARK 923 INTER-LIGAND FREE ENERGY PREDICTED BY IDOCK:   -9.80 KCAL/MOL
REMARK 924 INTRA-LIGAND FREE ENERGY PREDICTED BY IDOCK:   -2.02 KCAL/MOL
REMARK 927      BINDING AFFINITY PREDICTED BY RF-SCORE:    0.00 PKD
ROOT
HETATM    1  C   UNL     1      -8.058  11.446  68.112  1.00  0.00    -0.137 C  
HETATM    2  O   UNL     1      -5.882   8.330  73.421  1.00  0.00    -0.066 OA 
HETATM    3  C   UNL     1      -7.059  12.580  67.743  1.00  0.00    -0.126 C  
HETATM    4  C   UNL     1      -6.682   7.988  72.547  1.00  0.00    -0.079 C  
HETATM    5  C   UNL     1      -6.583  13.307  68.998  1.00  0.00    -0.104 C  
HETATM    6  O   UNL     1      -7.754  13.850  69.634  1.00  0.00    -0.279 OA 
HETATM    7  C   UNL     1      -5.840  12.277  69.904  1.00  0.00    -0.140 C  
HETATM    8  C   UNL     1      -7.517   6.759  72.751  1.00  0.00    -0.090 A  
HETATM    9  C   UNL     1      -7.486   6.089  73.985  1.00  0.00    -0.091 A  
HETATM   10  C   UNL     1      -6.516  10.915  70.069  1.00  0.00    -0.151 A  
HETATM   11  C   UNL     1      -8.280   4.959  74.201  1.00  0.00    -0.100 A  
HETATM   12  C   UNL     1      -9.088   4.464  73.181  1.00  0.00    -0.126 A  
HETATM   13  H   UNL     1      -9.085   9.354  67.516  1.00  0.00     0.000 HD 
HETATM   14  H   UNL     1      -7.459  14.303  70.415  1.00  0.00     0.000 HD 
HETATM   15  C   UNL     1      -9.108   5.097  71.934  1.00  0.00    -0.137 A  
HETATM   16  O   UNL     1      -8.895   8.794  68.259  1.00  0.00    -0.140 OA 
HETATM   17  C   UNL     1      -6.226  10.065  71.164  1.00  0.00     0.059 A  
HETATM   18  C   UNL     1      -8.340   6.272  71.729  1.00  0.00    -0.121 A  
HETATM   19  O   UNL     1      -5.321  10.529  72.090  1.00  0.00    -0.305 OA 
HETATM   20  C   UNL     1      -6.869   8.810  71.332  1.00  0.00    -0.084 A  
HETATM   21  O   UNL     1      -8.968   6.596  69.462  1.00  0.00    -0.138 OA 
HETATM   22  C   UNL     1      -7.454  10.472  69.117  1.00  0.00    -0.114 A  
HETATM   23  C   UNL     1      -8.013   9.183  69.240  1.00  0.00    -0.097 A  
HETATM   24  C   UNL     1      -8.379   7.025  70.453  1.00  0.00    -0.129 C  
HETATM   25  C   UNL     1      -7.732   8.353  70.340  1.00  0.00    -0.078 A  
HETATM   26  H   UNL     1      -5.126   9.959  72.825  1.00  0.00     0.000 HD 
ENDROOT
BRANCH   1  27
HETATM   27  O   UNL     1      -9.260  11.827  68.803  1.00  0.00    -0.124 OA 
BRANCH  27  28
HETATM   28  C   UNL     1     -10.470  11.975  68.079  1.00  0.00    -0.207 C  
HETATM   29  O   UNL     1     -10.245  12.821  66.927  1.00  0.00    -0.233 OA 
HETATM   30  C   UNL     1      -9.757  15.027  65.982  1.00  0.00    -0.359 C  
HETATM   31  C   UNL     1     -11.297  14.764  67.939  1.00  0.00    -0.316 C  
HETATM   32  O   UNL     1     -12.474  14.568  67.137  1.00  0.00    -0.567 OA 
HETATM   33  H   UNL     1     -12.396  15.047  66.320  1.00  0.00     0.000 HD 
HETATM   34  C   UNL     1     -11.422  13.991  69.259  1.00  0.00    -0.295 C  
HETATM   35  C   UNL     1     -10.054  14.209  67.238  1.00  0.00    -0.256 C  
HETATM   36  C   UNL     1     -11.609  12.501  68.968  1.00  0.00    -0.365 C  
BRANCH  34  37
HETATM   37  N   UNL     1     -12.473  14.550  70.105  1.00  0.00    -0.416 N  
HETATM   38  H   UNL     1     -13.419  14.664  69.742  1.00  0.00     0.000 HD 
HETATM   39  C   UNL     1     -13.319  15.593  72.200  1.00  0.00    -0.460 C  
HETATM   40  F   UNL     1     -13.747  14.833  73.243  1.00  0.00    -0.463 F  
HETATM   41  O   UNL     1     -11.050  14.746  71.894  1.00  0.00     0.020 OA 
HETATM   42  F   UNL     1     -12.960  16.803  72.712  1.00  0.00    -0.094 F  
HETATM   43  F   UNL     1     -14.410  15.821  71.412  1.00  0.00    -0.482 F  
HETATM   44  C   UNL     1     -12.173  14.929  71.416  1.00  0.00    -0.333 C  
ENDBRANCH  34  37
ENDBRANCH  27  28
ENDBRANCH   1  27
BRANCH   5  45
HETATM   45  C   UNL     1      -5.751  14.608  68.917  1.00  0.00    -0.086 C  
HETATM   46  O   UNL     1      -5.233  15.053  69.955  1.00  0.00    -0.098 OA 
BRANCH  45  47
HETATM   47  C   UNL     1      -5.798  15.519  67.688  1.00  0.00    -0.107 C  
BRANCH  47  48
HETATM   48  O   UNL     1      -6.685  16.625  67.699  1.00  0.00    -0.123 OA 
BRANCH  48  49
HETATM   49  C   UNL     1      -6.186  17.743  67.107  1.00  0.00    -0.150 C  
HETATM   50  O   UNL     1      -5.638  17.773  66.016  1.00  0.00    -0.183 OA 
BRANCH  49  51
HETATM   51  C   UNL     1      -6.443  18.947  67.976  1.00  0.00    -0.234 C  
BRANCH  51  52
HETATM   52  C   UNL     1      -7.042  20.100  67.174  1.00  0.00    -0.293 C  
BRANCH  52  53
HETATM   53  C   UNL     1      -8.572  20.074  67.180  1.00  0.00    -0.400 C  
HETATM   54  C   UNL     1      -9.142  19.614  65.850  1.00  0.00    -0.140 C  
ENDBRANCH  52  53
ENDBRANCH  51  52
ENDBRANCH  49  51
ENDBRANCH  48  49
ENDBRANCH  47  48
ENDBRANCH  45  47
ENDBRANCH   5  45
BRANCH  15  55
HETATM   55  O   UNL     1      -9.917   4.655  70.916  1.00  0.00    -0.195 OA 
HETATM   56  C   UNL     1      -9.744   3.310  70.479  1.00  0.00    -0.068 C  
ENDBRANCH  15  55
TORSDOF 11
ENDMDL
MODEL       27
REMARK 921   NORMALIZED FREE ENERGY PREDICTED BY IDOCK:   -4.95 KCAL/MOL
REMARK 922        TOTAL FREE ENERGY PREDICTED BY IDOCK:  -11.68 KCAL/MOL
REMARK 923 INTER-LIGAND FREE ENERGY PREDICTED BY IDOCK:  -11.32 KCAL/MOL
REMARK 924 INTRA-LIGAND FREE ENERGY PREDICTED BY IDOCK:   -0.36 KCAL/MOL
REMARK 927      BINDING AFFINITY PREDICTED BY RF-SCORE:    0.00 PKD
ROOT
HETATM    1  C   UNL     1     -11.624  12.317  68.403  1.00  0.00    -0.326 C  
HETATM    2  O   UNL     1      -9.084   6.335  67.774  1.00  0.00    -0.117 OA 
HETATM    3  C   UNL     1     -12.301  12.725  67.063  1.00  0.00     0.150 C  
HETATM    4  C   UNL     1      -9.393   6.987  68.773  1.00  0.00    -0.134 C  
HETATM    5  C   UNL     1     -11.437  12.310  65.876  1.00  0.00    -0.376 C  
HETATM    6  O   UNL     1     -10.170  12.975  66.028  1.00  0.00    -0.276 OA 
HETATM    7  C   UNL     1     -11.296  10.756  65.898  1.00  0.00     0.461 C  
HETATM    8  C   UNL     1      -8.959   6.511  70.128  1.00  0.00    -0.155 A  
HETATM    9  C   UNL     1      -8.090   5.413  70.238  1.00  0.00    -0.097 A  
HETATM   10  C   UNL     1     -11.005  10.126  67.261  1.00  0.00    -0.250 A  
HETATM   11  C   UNL     1      -7.653   4.975  71.491  1.00  0.00    -0.096 A  
HETATM   12  C   UNL     1      -8.101   5.605  72.650  1.00  0.00    -0.102 A  
HETATM   13  H   UNL     1     -11.869  11.781  70.735  1.00  0.00     0.000 HD 
HETATM   14  H   UNL     1      -9.632  12.717  65.289  1.00  0.00     0.000 HD 
HETATM   15  C   UNL     1      -8.991   6.680  72.563  1.00  0.00    -0.131 A  
HETATM   16  O   UNL     1     -11.469  10.922  70.809  1.00  0.00    -0.268 OA 
HETATM   17  C   UNL     1     -10.425   8.839  67.380  1.00  0.00    -0.279 A  
HETATM   18  C   UNL     1      -9.398   7.156  71.290  1.00  0.00    -0.155 A  
HETATM   19  O   UNL     1     -10.114   8.185  66.211  1.00  0.00    -0.466 OA 
HETATM   20  C   UNL     1     -10.133   8.262  68.645  1.00  0.00    -0.212 A  
HETATM   21  O   UNL     1     -10.819   8.876  72.102  1.00  0.00    -0.355 OA 
HETATM   22  C   UNL     1     -11.315  10.825  68.443  1.00  0.00    -0.367 A  
HETATM   23  C   UNL     1     -11.112  10.202  69.693  1.00  0.00    -0.263 A  
HETATM   24  C   UNL     1     -10.282   8.335  71.137  1.00  0.00    -0.198 C  
HETATM   25  C   UNL     1     -10.520   8.931  69.801  1.00  0.00    -0.217 A  
HETATM   26  H   UNL     1      -9.725   7.322  66.291  1.00  0.00     0.000 HD 
ENDROOT
BRANCH   1  27
HETATM   27  O   UNL     1     -10.322  12.863  68.677  1.00  0.00    -0.240 OA 
BRANCH  27  28
HETATM   28  C   UNL     1     -10.162  13.811  69.720  1.00  0.00     0.824 C  
HETATM   29  O   UNL     1     -11.267  13.700  70.648  1.00  0.00     0.296 OA 
HETATM   30  C   UNL     1     -13.645  13.987  71.155  1.00  0.00    -0.205 C  
HETATM   31  C   UNL     1     -12.389  15.685  69.810  1.00  0.00    -0.190 C  
HETATM   32  O   UNL     1     -11.950  16.440  70.953  1.00  0.00    -0.531 OA 
HETATM   33  H   UNL     1     -12.594  16.381  71.650  1.00  0.00     0.000 HD 
HETATM   34  C   UNL     1     -11.351  15.780  68.684  1.00  0.00    -0.369 C  
HETATM   35  C   UNL     1     -12.516  14.197  70.147  1.00  0.00    -0.331 C  
HETATM   36  C   UNL     1     -10.006  15.240  69.176  1.00  0.00    -0.238 C  
BRANCH  34  37
HETATM   37  N   UNL     1     -11.267  17.137  68.150  1.00  0.00    -0.122 N  
HETATM   38  H   UNL     1     -11.908  17.440  67.417  1.00  0.00     0.000 HD 
HETATM   39  C   UNL     1     -10.230  19.391  67.963  1.00  0.00    -0.423 C  
HETATM   40  F   UNL     1     -10.597  20.407  68.788  1.00  0.00    -0.495 F  
HETATM   41  O   UNL     1      -9.557  17.687  69.577  1.00  0.00     0.125 OA 
HETATM   42  F   UNL     1      -8.977  19.677  67.515  1.00  0.00    -0.321 F  
HETATM   43  F   UNL     1     -11.049  19.460  66.873  1.00  0.00    -0.539 F  
HETATM   44  C   UNL     1     -10.303  18.015  68.651  1.00  0.00    -0.319 C  
ENDBRANCH  34  37
ENDBRANCH  27  28
ENDBRANCH   1  27
BRANCH   5  45
HETATM   45  C   UNL     1     -11.759  12.772  64.435  1.00  0.00    -0.368 C  
HETATM   46  O   UNL     1     -11.598  11.970  63.499  1.00  0.00    -0.439 OA 
BRANCH  45  47
HETATM   47  C   UNL     1     -11.969  14.248  64.091  1.00  0.00    -0.373 C  
BRANCH  47  48
HETATM   48  O   UNL     1     -11.918  15.200  65.140  1.00  0.00    -0.201 OA 
BRANCH  48  49
HETATM   49  C   UNL     1     -10.944  16.138  64.990  1.00  0.00    -0.344 C  
HETATM   50  O   UNL     1     -11.117  17.264  64.550  1.00  0.00    -1.082 OA 
BRANCH  49  51
HETATM   51  C   UNL     1      -9.626  15.599  65.484  1.00  0.00    -0.237 C  
BRANCH  51  52
HETATM   52  C   UNL     1      -8.705  16.719  65.962  1.00  0.00    -0.218 C  
BRANCH  52  53
HETATM   53  C   UNL     1      -7.433  16.179  66.619  1.00  0.00    -0.200 C  
HETATM   54  C   UNL     1      -6.519  17.292  67.097  1.00  0.00    -0.201 C  
ENDBRANCH  52  53
ENDBRANCH  51  52
ENDBRANCH  49  51
ENDBRANCH  48  49
ENDBRANCH  47  48
ENDBRANCH  45  47
ENDBRANCH   5  45
BRANCH  15  55
HETATM   55  O   UNL     1      -9.428   7.343  73.683  1.00  0.00    -0.226 OA 
HETATM   56  C   UNL     1      -8.439   7.932  74.523  1.00  0.00    -0.124 C  
ENDBRANCH  15  55
TORSDOF 11
ENDMDL
MODEL       28
REMARK 921   NORMALIZED FREE ENERGY PREDICTED BY IDOCK:   -4.92 KCAL/MOL
REMARK 922        TOTAL FREE ENERGY PREDICTED BY IDOCK:  -11.63 KCAL/MOL
REMARK 923 INTER-LIGAND FREE ENERGY PREDICTED BY IDOCK:   -9.81 KCAL/MOL
REMARK 924 INTRA-LIGAND FREE ENERGY PREDICTED BY IDOCK:   -1.82 KCAL/MOL
REMARK 927      BINDING AFFINITY PREDICTED BY RF-SCORE:    0.00 PKD
ROOT
HETATM    1  C   UNL     1     -11.008  11.637  66.945  1.00  0.00    -0.292 C  
HETATM    2  O   UNL     1      -7.613   8.199  62.554  1.00  0.00    -0.103 OA 
HETATM    3  C   UNL     1     -12.041  12.531  66.201  1.00  0.00    -0.357 C  
HETATM    4  C   UNL     1      -7.797   8.023  63.759  1.00  0.00    -0.142 C  
HETATM    5  C   UNL     1     -11.415  13.158  64.959  1.00  0.00    -0.308 C  
HETATM    6  O   UNL     1     -10.295  13.942  65.406  1.00  0.00    -0.315 OA 
HETATM    7  C   UNL     1     -10.985  12.006  63.998  1.00  0.00    -0.442 C  
HETATM    8  C   UNL     1      -6.979   6.999  64.489  1.00  0.00    -0.051 A  
HETATM    9  C   UNL     1      -5.919   6.353  63.831  1.00  0.00    -0.023 A  
HETATM   10  C   UNL     1     -10.273  10.818  64.647  1.00  0.00    -0.419 A  
HETATM   11  C   UNL     1      -5.128   5.418  64.505  1.00  0.00    -0.009 A  
HETATM   12  C   UNL     1      -5.404   5.091  65.830  1.00  0.00    -0.013 A  
HETATM   13  H   UNL     1     -10.599   9.801  68.444  1.00  0.00     0.000 HD 
HETATM   14  H   UNL     1      -9.905  14.333  64.633  1.00  0.00     0.000 HD 
HETATM   15  C   UNL     1      -6.475   5.699  66.493  1.00  0.00    -0.050 A  
HETATM   16  O   UNL     1     -10.040   9.223  67.938  1.00  0.00    -0.178 OA 
HETATM   17  C   UNL     1      -9.452   9.940  63.899  1.00  0.00    -0.144 A  
HETATM   18  C   UNL     1      -7.248   6.684  65.826  1.00  0.00    -0.070 A  
HETATM   19  O   UNL     1      -9.304  10.215  62.559  1.00  0.00    -0.284 OA 
HETATM   20  C   UNL     1      -8.771   8.851  64.504  1.00  0.00    -0.120 A  
HETATM   21  O   UNL     1      -8.737   7.105  67.627  1.00  0.00    -0.122 OA 
HETATM   22  C   UNL     1     -10.425  10.571  66.025  1.00  0.00    -0.226 A  
HETATM   23  C   UNL     1      -9.825   9.429  66.596  1.00  0.00    -0.245 A  
HETATM   24  C   UNL     1      -8.348   7.412  66.501  1.00  0.00    -0.124 C  
HETATM   25  C   UNL     1      -8.997   8.573  65.848  1.00  0.00    -0.235 A  
HETATM   26  H   UNL     1      -8.753   9.626  62.057  1.00  0.00     0.000 HD 
ENDROOT
BRANCH   1  27
HETATM   27  O   UNL     1      -9.804  12.271  67.410  1.00  0.00    -0.195 OA 
BRANCH  27  28
HETATM   28  C   UNL     1      -9.635  12.529  68.794  1.00  0.00     0.091 C  
HETATM   29  O   UNL     1     -10.801  13.218  69.303  1.00  0.00    -0.156 OA 
HETATM   30  C   UNL     1     -12.200  15.226  69.403  1.00  0.00    -0.247 C  
HETATM   31  C   UNL     1      -9.701  15.384  69.363  1.00  0.00    -0.273 C  
HETATM   32  O   UNL     1      -9.555  15.292  70.791  1.00  0.00     0.030 OA 
HETATM   33  H   UNL     1     -10.311  15.674  71.223  1.00  0.00     0.000 HD 
HETATM   34  C   UNL     1      -8.481  14.768  68.666  1.00  0.00    -0.167 C  
HETATM   35  C   UNL     1     -10.915  14.585  68.881  1.00  0.00    -0.256 C  
HETATM   36  C   UNL     1      -8.337  13.302  69.079  1.00  0.00     0.373 C  
BRANCH  34  37
HETATM   37  N   UNL     1      -7.276  15.557  68.908  1.00  0.00    -0.131 N  
HETATM   38  H   UNL     1      -6.471  15.136  69.370  1.00  0.00     0.000 HD 
HETATM   39  C   UNL     1      -5.960  17.669  68.883  1.00  0.00    -0.191 C  
HETATM   40  F   UNL     1      -5.226  18.029  67.797  1.00  0.00    -0.136 F  
HETATM   41  O   UNL     1      -8.175  17.406  67.890  1.00  0.00    -0.215 OA 
HETATM   42  F   UNL     1      -6.238  18.812  69.570  1.00  0.00    -0.248 F  
HETATM   43  F   UNL     1      -5.136  16.934  69.684  1.00  0.00    -0.131 F  
HETATM   44  C   UNL     1      -7.235  16.894  68.502  1.00  0.00    -0.199 C  
ENDBRANCH  34  37
ENDBRANCH  27  28
ENDBRANCH   1  27
BRANCH   5  45
HETATM   45  C   UNL     1     -12.144  14.254  64.146  1.00  0.00    -0.393 C  
HETATM   46  O   UNL     1     -12.432  14.027  62.959  1.00  0.00    -0.641 OA 
BRANCH  45  47
HETATM   47  C   UNL     1     -12.244  15.696  64.649  1.00  0.00     0.114 C  
BRANCH  47  48
HETATM   48  O   UNL     1     -11.258  16.627  64.235  1.00  0.00    -1.098 OA 
BRANCH  48  49
HETATM   49  C   UNL     1     -10.448  17.059  65.238  1.00  0.00    -0.037 C  
HETATM   50  O   UNL     1      -9.318  16.650  65.453  1.00  0.00    -0.370 OA 
BRANCH  49  51
HETATM   51  C   UNL     1     -11.134  18.148  66.023  1.00  0.00     0.509 C  
BRANCH  51  52
HETATM   52  C   UNL     1     -10.481  19.508  65.785  1.00  0.00    -0.518 C  
BRANCH  52  53
HETATM   53  C   UNL     1      -9.899  20.101  67.070  1.00  0.00    -0.595 C  
HETATM   54  C   UNL     1      -8.399  20.309  66.977  1.00  0.00    -0.373 C  
ENDBRANCH  52  53
ENDBRANCH  51  52
ENDBRANCH  49  51
ENDBRANCH  48  49
ENDBRANCH  47  48
ENDBRANCH  45  47
ENDBRANCH   5  45
BRANCH  15  55
HETATM   55  O   UNL     1      -6.756   5.424  67.809  1.00  0.00    -0.052 OA 
HETATM   56  C   UNL     1      -6.437   4.120  68.288  1.00  0.00    -0.038 C  
ENDBRANCH  15  55
TORSDOF 11
ENDMDL
MODEL       29
REMARK 921   NORMALIZED FREE ENERGY PREDICTED BY IDOCK:   -4.78 KCAL/MOL
REMARK 922        TOTAL FREE ENERGY PREDICTED BY IDOCK:  -11.40 KCAL/MOL
REMARK 923 INTER-LIGAND FREE ENERGY PREDICTED BY IDOCK:  -10.55 KCAL/MOL
REMARK 924 INTRA-LIGAND FREE ENERGY PREDICTED BY IDOCK:   -0.85 KCAL/MOL
REMARK 927      BINDING AFFINITY PREDICTED BY RF-SCORE:    0.00 PKD
ROOT
HETATM    1  C   UNL     1      -6.395  12.439  67.322  1.00  0.00    -0.142 C  
HETATM    2  O   UNL     1      -7.905   7.460  71.266  1.00  0.00    -0.093 OA 
HETATM    3  C   UNL     1      -5.530  13.466  68.109  1.00  0.00    -0.106 C  
HETATM    4  C   UNL     1      -7.894   7.550  70.037  1.00  0.00    -0.099 C  
HETATM    5  C   UNL     1      -6.077  13.660  69.520  1.00  0.00    -0.114 C  
HETATM    6  O   UNL     1      -7.428  14.134  69.383  1.00  0.00    -0.313 OA 
HETATM    7  C   UNL     1      -6.002  12.289  70.262  1.00  0.00    -0.138 C  
HETATM    8  C   UNL     1      -8.517   6.463  69.211  1.00  0.00    -0.126 A  
HETATM    9  C   UNL     1      -9.229   5.429  69.840  1.00  0.00    -0.174 A  
HETATM   10  C   UNL     1      -6.467  11.067  69.467  1.00  0.00    -0.109 A  
HETATM   11  C   UNL     1      -9.841   4.425  69.084  1.00  0.00    -0.198 A  
HETATM   12  C   UNL     1      -9.722   4.421  67.696  1.00  0.00    -0.198 A  
HETATM   13  H   UNL     1      -6.544  10.841  65.531  1.00  0.00     0.000 HD 
HETATM   14  H   UNL     1      -7.768  14.255  70.262  1.00  0.00     0.000 HD 
HETATM   15  C   UNL     1      -8.990   5.425  67.053  1.00  0.00    -0.112 A  
HETATM   16  O   UNL     1      -6.828  10.046  65.966  1.00  0.00    -0.093 OA 
HETATM   17  C   UNL     1      -6.874   9.871  70.107  1.00  0.00    -0.125 A  
HETATM   18  C   UNL     1      -8.410   6.471  67.816  1.00  0.00    -0.119 A  
HETATM   19  O   UNL     1      -6.855   9.862  71.482  1.00  0.00    -0.273 OA 
HETATM   20  C   UNL     1      -7.328   8.744  69.372  1.00  0.00    -0.072 A  
HETATM   21  O   UNL     1      -7.430   7.613  65.979  1.00  0.00    -0.079 OA 
HETATM   22  C   UNL     1      -6.496  11.110  68.060  1.00  0.00    -0.057 A  
HETATM   23  C   UNL     1      -6.853   9.952  67.337  1.00  0.00    -0.082 A  
HETATM   24  C   UNL     1      -7.685   7.597  67.182  1.00  0.00    -0.112 C  
HETATM   25  C   UNL     1      -7.273   8.775  67.982  1.00  0.00    -0.083 A  
HETATM   26  H   UNL     1      -7.128   9.060  71.911  1.00  0.00     0.000 HD 
ENDROOT
BRANCH   1  27
HETATM   27  O   UNL     1      -7.788  12.749  67.147  1.00  0.00    -0.161 OA 
BRANCH  27  28
HETATM   28  C   UNL     1      -8.758  11.723  67.274  1.00  0.00    -0.163 C  
HETATM   29  O   UNL     1      -9.498  11.599  66.036  1.00  0.00    -0.220 OA 
HETATM   30  C   UNL     1     -11.106  12.510  64.430  1.00  0.00    -0.383 C  
HETATM   31  C   UNL     1     -11.457  12.750  66.897  1.00  0.00    -0.340 C  
HETATM   32  O   UNL     1     -12.154  11.500  67.039  1.00  0.00    -0.443 OA 
HETATM   33  H   UNL     1     -12.632  11.300  66.243  1.00  0.00     0.000 HD 
HETATM   34  C   UNL     1     -10.684  13.074  68.183  1.00  0.00    -0.242 C  
HETATM   35  C   UNL     1     -10.412  12.676  65.781  1.00  0.00    -0.277 C  
HETATM   36  C   UNL     1      -9.685  11.955  68.479  1.00  0.00    -0.173 C  
BRANCH  34  37
HETATM   37  N   UNL     1     -11.592  13.346  69.295  1.00  0.00    -0.292 N  
HETATM   38  H   UNL     1     -12.402  12.749  69.454  1.00  0.00     0.000 HD 
HETATM   39  C   UNL     1     -12.401  14.694  71.223  1.00  0.00    -0.341 C  
HETATM   40  F   UNL     1     -11.925  14.486  72.479  1.00  0.00    -0.338 F  
HETATM   41  O   UNL     1     -10.335  15.132  69.998  1.00  0.00    -0.238 OA 
HETATM   42  F   UNL     1     -12.872  15.972  71.185  1.00  0.00    -0.501 F  
HETATM   43  F   UNL     1     -13.490  13.883  71.080  1.00  0.00    -0.349 F  
HETATM   44  C   UNL     1     -11.341  14.432  70.138  1.00  0.00    -0.165 C  
ENDBRANCH  34  37
ENDBRANCH  27  28
ENDBRANCH   1  27
BRANCH   5  45
HETATM   45  C   UNL     1      -5.543  14.773  70.453  1.00  0.00    -0.139 C  
HETATM   46  O   UNL     1      -5.207  14.474  71.611  1.00  0.00    -0.141 OA 
BRANCH  45  47
HETATM   47  C   UNL     1      -5.703  16.256  70.109  1.00  0.00    -0.178 C  
BRANCH  47  48
HETATM   48  O   UNL     1      -6.242  16.602  68.844  1.00  0.00    -0.145 OA 
BRANCH  48  49
HETATM   49  C   UNL     1      -6.988  17.738  68.851  1.00  0.00    -0.250 C  
HETATM   50  O   UNL     1      -6.553  18.863  69.047  1.00  0.00    -0.262 OA 
BRANCH  49  51
HETATM   51  C   UNL     1      -8.427  17.414  68.542  1.00  0.00    -0.274 C  
BRANCH  51  52
HETATM   52  C   UNL     1      -9.147  18.602  67.909  1.00  0.00    -0.314 C  
BRANCH  52  53
HETATM   53  C   UNL     1      -9.964  18.194  66.680  1.00  0.00    -0.363 C  
HETATM   54  C   UNL     1     -10.606  19.387  65.997  1.00  0.00    -0.573 C  
ENDBRANCH  52  53
ENDBRANCH  51  52
ENDBRANCH  49  51
ENDBRANCH  48  49
ENDBRANCH  47  48
ENDBRANCH  45  47
ENDBRANCH   5  45
BRANCH  15  55
HETATM   55  O   UNL     1      -8.879   5.469  65.685  1.00  0.00    -0.150 OA 
HETATM   56  C   UNL     1      -9.648   4.533  64.935  1.00  0.00    -0.117 C  
ENDBRANCH  15  55
TORSDOF 11
ENDMDL
MODEL       30
REMARK 921   NORMALIZED FREE ENERGY PREDICTED BY IDOCK:   -4.76 KCAL/MOL
REMARK 922        TOTAL FREE ENERGY PREDICTED BY IDOCK:  -11.37 KCAL/MOL
REMARK 923 INTER-LIGAND FREE ENERGY PREDICTED BY IDOCK:   -9.96 KCAL/MOL
REMARK 924 INTRA-LIGAND FREE ENERGY PREDICTED BY IDOCK:   -1.41 KCAL/MOL
REMARK 927      BINDING AFFINITY PREDICTED BY RF-SCORE:    0.00 PKD
ROOT
HETATM    1  C   UNL     1     -10.354   9.201  68.381  1.00  0.00    -0.206 C  
HETATM    2  O   UNL     1      -7.442   8.482  62.581  1.00  0.00    -0.095 OA 
HETATM    3  C   UNL     1     -11.269  10.458  68.337  1.00  0.00    -0.318 C  
HETATM    4  C   UNL     1      -7.642   7.681  63.496  1.00  0.00    -0.119 C  
HETATM    5  C   UNL     1     -10.574  11.604  67.608  1.00  0.00    -0.203 C  
HETATM    6  O   UNL     1      -9.362  11.884  68.331  1.00  0.00    -0.199 OA 
HETATM    7  C   UNL     1     -10.298  11.150  66.141  1.00  0.00    -0.302 C  
HETATM    8  C   UNL     1      -6.956   6.347  63.472  1.00  0.00    -0.047 A  
HETATM    9  C   UNL     1      -5.990   6.075  62.490  1.00  0.00    -0.026 A  
HETATM   10  C   UNL     1      -9.739   9.737  65.968  1.00  0.00    -0.319 A  
HETATM   11  C   UNL     1      -5.321   4.847  62.470  1.00  0.00    -0.009 A  
HETATM   12  C   UNL     1      -5.630   3.866  63.409  1.00  0.00    -0.013 A  
HETATM   13  H   UNL     1     -10.174   6.810  68.574  1.00  0.00     0.000 HD 
HETATM   14  H   UNL     1      -8.929  12.598  67.878  1.00  0.00     0.000 HD 
HETATM   15  C   UNL     1      -6.613   4.105  64.375  1.00  0.00    -0.043 A  
HETATM   16  O   UNL     1      -9.695   6.559  67.793  1.00  0.00    -0.121 OA 
HETATM   17  C   UNL     1      -9.039   9.350  64.799  1.00  0.00    -0.193 A  
HETATM   18  C   UNL     1      -7.258   5.367  64.425  1.00  0.00    -0.055 A  
HETATM   19  O   UNL     1      -8.864  10.310  63.830  1.00  0.00    -0.185 OA 
HETATM   20  C   UNL     1      -8.499   8.045  64.646  1.00  0.00    -0.000 A  
HETATM   21  O   UNL     1      -8.673   4.858  66.263  1.00  0.00    -0.114 OA 
HETATM   22  C   UNL     1      -9.915   8.779  66.984  1.00  0.00    -0.307 A  
HETATM   23  C   UNL     1      -9.462   7.458  66.779  1.00  0.00    -0.176 A  
HETATM   24  C   UNL     1      -8.253   5.701  65.471  1.00  0.00    -0.129 C  
HETATM   25  C   UNL     1      -8.753   7.088  65.623  1.00  0.00    -0.082 A  
HETATM   26  H   UNL     1      -8.394  10.050  63.046  1.00  0.00     0.000 HD 
ENDROOT
BRANCH   1  27
HETATM   27  O   UNL     1      -9.077   9.338  69.027  1.00  0.00    -0.142 OA 
BRANCH  27  28
HETATM   28  C   UNL     1      -9.011   9.832  70.355  1.00  0.00    -0.088 C  
HETATM   29  O   UNL     1      -7.626   9.977  70.749  1.00  0.00    -0.265 OA 
HETATM   30  C   UNL     1      -5.473   8.968  71.334  1.00  0.00    -0.047 C  
HETATM   31  C   UNL     1      -7.631   7.971  72.120  1.00  0.00    -0.104 C  
HETATM   32  O   UNL     1      -7.699   8.766  73.317  1.00  0.00    -0.391 OA 
HETATM   33  H   UNL     1      -6.823   8.965  73.628  1.00  0.00     0.000 HD 
HETATM   34  C   UNL     1      -9.045   7.649  71.619  1.00  0.00    -0.134 C  
HETATM   35  C   UNL     1      -6.943   8.738  70.988  1.00  0.00    -0.077 C  
HETATM   36  C   UNL     1      -9.800   8.949  71.336  1.00  0.00    -0.376 C  
BRANCH  34  37
HETATM   37  N   UNL     1      -9.749   6.763  72.543  1.00  0.00    -0.154 N  
HETATM   38  H   UNL     1      -9.656   6.894  73.549  1.00  0.00     0.000 HD 
HETATM   39  C   UNL     1     -11.174   4.797  73.084  1.00  0.00    -0.308 C  
HETATM   40  F   UNL     1     -12.529   4.901  73.134  1.00  0.00    -0.296 F  
HETATM   41  O   UNL     1     -10.721   5.597  70.823  1.00  0.00    -0.260 OA 
HETATM   42  F   UNL     1     -10.886   3.489  72.842  1.00  0.00    -0.243 F  
HETATM   43  F   UNL     1     -10.717   5.061  74.343  1.00  0.00    -0.299 F  
HETATM   44  C   UNL     1     -10.549   5.735  72.036  1.00  0.00    -0.226 C  
ENDBRANCH  34  37
ENDBRANCH  27  28
ENDBRANCH   1  27
BRANCH   5  45
HETATM   45  C   UNL     1     -11.161  13.035  67.597  1.00  0.00    -0.280 C  
HETATM   46  O   UNL     1     -12.147  13.284  68.311  1.00  0.00    -0.333 OA 
BRANCH  45  47
HETATM   47  C   UNL     1     -10.772  14.057  66.525  1.00  0.00    -0.281 C  
BRANCH  47  48
HETATM   48  O   UNL     1     -10.235  15.301  66.941  1.00  0.00    -0.259 OA 
BRANCH  48  49
HETATM   49  C   UNL     1     -10.036  16.185  65.928  1.00  0.00    -0.356 C  
HETATM   50  O   UNL     1     -10.682  16.222  64.892  1.00  0.00    -0.646 OA 
BRANCH  49  51
HETATM   51  C   UNL     1      -8.927  17.141  66.285  1.00  0.00    -0.262 C  
BRANCH  51  52
HETATM   52  C   UNL     1      -8.053  16.591  67.410  1.00  0.00    -0.172 C  
BRANCH  52  53
HETATM   53  C   UNL     1      -8.356  17.256  68.755  1.00  0.00    -0.228 C  
HETATM   54  C   UNL     1      -8.275  18.769  68.677  1.00  0.00    -0.363 C  
ENDBRANCH  52  53
ENDBRANCH  51  52
ENDBRANCH  49  51
ENDBRANCH  48  49
ENDBRANCH  47  48
ENDBRANCH  45  47
ENDBRANCH   5  45
BRANCH  15  55
HETATM   55  O   UNL     1      -6.920   3.171  65.334  1.00  0.00    -0.047 OA 
HETATM   56  C   UNL     1      -7.313   1.877  64.886  1.00  0.00    -0.061 C  
ENDBRANCH  15  55
TORSDOF 11
ENDMDL
MODEL       31
REMARK 921   NORMALIZED FREE ENERGY PREDICTED BY IDOCK:   -4.69 KCAL/MOL
REMARK 922        TOTAL FREE ENERGY PREDICTED BY IDOCK:  -11.25 KCAL/MOL
REMARK 923 INTER-LIGAND FREE ENERGY PREDICTED BY IDOCK:   -9.07 KCAL/MOL
REMARK 924 INTRA-LIGAND FREE ENERGY PREDICTED BY IDOCK:   -2.18 KCAL/MOL
REMARK 927      BINDING AFFINITY PREDICTED BY RF-SCORE:    0.00 PKD
ROOT
HETATM    1  C   UNL     1      -6.572   9.097  67.803  1.00  0.00    -0.060 C  
HETATM    2  O   UNL     1      -8.825   6.544  73.374  1.00  0.00    -0.124 OA 
HETATM    3  C   UNL     1      -5.892  10.462  68.109  1.00  0.00    -0.044 C  
HETATM    4  C   UNL     1      -8.564   6.023  72.288  1.00  0.00    -0.124 C  
HETATM    5  C   UNL     1      -6.715  11.260  69.116  1.00  0.00    -0.099 C  
HETATM    6  O   UNL     1      -8.014  11.460  68.528  1.00  0.00    -0.130 OA 
HETATM    7  C   UNL     1      -6.786  10.442  70.443  1.00  0.00    -0.105 C  
HETATM    8  C   UNL     1      -8.999   4.613  72.021  1.00  0.00    -0.147 A  
HETATM    9  C   UNL     1      -9.818   3.947  72.947  1.00  0.00    -0.191 A  
HETATM   10  C   UNL     1      -7.071   8.946  70.297  1.00  0.00    -0.049 A  
HETATM   11  C   UNL     1     -10.257   2.643  72.700  1.00  0.00    -0.235 A  
HETATM   12  C   UNL     1      -9.858   1.976  71.544  1.00  0.00    -0.205 A  
HETATM   13  H   UNL     1      -6.344   6.823  67.054  1.00  0.00     0.000 HD 
HETATM   14  H   UNL     1      -8.526  11.957  69.154  1.00  0.00     0.000 HD 
HETATM   15  C   UNL     1      -9.016   2.610  70.625  1.00  0.00    -0.096 A  
HETATM   16  O   UNL     1      -6.705   6.315  67.772  1.00  0.00    -0.059 OA 
HETATM   17  C   UNL     1      -7.593   8.178  71.366  1.00  0.00    -0.083 A  
HETATM   18  C   UNL     1      -8.609   3.950  70.851  1.00  0.00    -0.107 A  
HETATM   19  O   UNL     1      -7.855   8.843  72.541  1.00  0.00    -0.369 OA 
HETATM   20  C   UNL     1      -7.881   6.795  71.226  1.00  0.00    -0.101 A  
HETATM   21  O   UNL     1      -7.282   4.149  68.892  1.00  0.00    -0.053 OA 
HETATM   22  C   UNL     1      -6.813   8.294  69.076  1.00  0.00    -0.056 A  
HETATM   23  C   UNL     1      -7.009   6.900  68.978  1.00  0.00    -0.082 A  
HETATM   24  C   UNL     1      -7.778   4.695  69.877  1.00  0.00    -0.058 C  
HETATM   25  C   UNL     1      -7.544   6.150  70.040  1.00  0.00    -0.095 A  
HETATM   26  H   UNL     1      -8.205   8.328  73.259  1.00  0.00     0.000 HD 
ENDROOT
BRANCH   1  27
HETATM   27  O   UNL     1      -7.902   9.131  67.258  1.00  0.00    -0.098 OA 
BRANCH  27  28
HETATM   28  C   UNL     1      -8.181   8.456  66.042  1.00  0.00    -0.112 C  
HETATM   29  O   UNL     1      -7.092   8.664  65.112  1.00  0.00    -0.083 OA 
HETATM   30  C   UNL     1      -5.812  10.151  63.647  1.00  0.00    -0.138 C  
HETATM   31  C   UNL     1      -8.307  10.306  63.797  1.00  0.00    -0.165 C  
HETATM   32  O   UNL     1      -8.547   9.332  62.766  1.00  0.00    -0.200 OA 
HETATM   33  H   UNL     1      -7.845   9.352  62.127  1.00  0.00     0.000 HD 
HETATM   34  C   UNL     1      -9.441  10.274  64.830  1.00  0.00    -0.279 C  
HETATM   35  C   UNL     1      -7.022   9.989  64.566  1.00  0.00    -0.136 C  
HETATM   36  C   UNL     1      -9.535   8.878  65.449  1.00  0.00    -0.086 C  
BRANCH  34  37
HETATM   37  N   UNL     1     -10.700  10.735  64.252  1.00  0.00    -0.359 N  
HETATM   38  H   UNL     1     -11.240  10.122  63.643  1.00  0.00     0.000 HD 
HETATM   39  C   UNL     1     -12.446  12.453  63.812  1.00  0.00    -0.492 C  
HETATM   40  F   UNL     1     -13.492  12.629  64.663  1.00  0.00    -0.261 F  
HETATM   41  O   UNL     1     -10.551  12.759  65.321  1.00  0.00    -0.278 OA 
HETATM   42  F   UNL     1     -12.287  13.622  63.132  1.00  0.00    -0.579 F  
HETATM   43  F   UNL     1     -12.845  11.528  62.891  1.00  0.00    -0.598 F  
HETATM   44  C   UNL     1     -11.159  12.023  64.540  1.00  0.00    -0.331 C  
ENDBRANCH  34  37
ENDBRANCH  27  28
ENDBRANCH   1  27
BRANCH   5  45
HETATM   45  C   UNL     1      -6.390  12.737  69.444  1.00  0.00    -0.110 C  
HETATM   46  O   UNL     1      -6.313  13.082  70.635  1.00  0.00    -0.023 OA 
BRANCH  45  47
HETATM   47  C   UNL     1      -6.464  13.833  68.379  1.00  0.00    -0.099 C  
BRANCH  47  48
HETATM   48  O   UNL     1      -7.519  13.786  67.433  1.00  0.00    -0.174 OA 
BRANCH  48  49
HETATM   49  C   UNL     1      -8.287  14.907  67.402  1.00  0.00    -0.194 C  
HETATM   50  O   UNL     1      -8.378  15.670  66.453  1.00  0.00    -0.278 OA 
BRANCH  49  51
HETATM   51  C   UNL     1      -9.045  15.050  68.698  1.00  0.00    -0.191 C  
BRANCH  51  52
HETATM   52  C   UNL     1     -10.438  14.434  68.604  1.00  0.00    -0.247 C  
BRANCH  52  53
HETATM   53  C   UNL     1     -11.352  14.898  69.741  1.00  0.00    -0.314 C  
HETATM   54  C   UNL     1     -12.358  13.834  70.137  1.00  0.00    -0.390 C  
ENDBRANCH  52  53
ENDBRANCH  51  52
ENDBRANCH  49  51
ENDBRANCH  48  49
ENDBRANCH  47  48
ENDBRANCH  45  47
ENDBRANCH   5  45
BRANCH  15  55
HETATM   55  O   UNL     1      -8.629   1.994  69.461  1.00  0.00    -0.049 OA 
HETATM   56  C   UNL     1      -9.659   1.520  68.597  1.00  0.00    -0.131 C  
ENDBRANCH  15  55
TORSDOF 11
ENDMDL
MODEL       32
REMARK 921   NORMALIZED FREE ENERGY PREDICTED BY IDOCK:   -4.67 KCAL/MOL
REMARK 922        TOTAL FREE ENERGY PREDICTED BY IDOCK:  -11.22 KCAL/MOL
REMARK 923 INTER-LIGAND FREE ENERGY PREDICTED BY IDOCK:   -9.32 KCAL/MOL
REMARK 924 INTRA-LIGAND FREE ENERGY PREDICTED BY IDOCK:   -1.90 KCAL/MOL
REMARK 927      BINDING AFFINITY PREDICTED BY RF-SCORE:    0.00 PKD
ROOT
HETATM    1  C   UNL     1      -8.749  11.222  66.503  1.00  0.00    -0.178 C  
HETATM    2  O   UNL     1      -5.551   6.342  69.432  1.00  0.00    -0.012 OA 
HETATM    3  C   UNL     1      -7.956  12.545  66.709  1.00  0.00     0.078 C  
HETATM    4  C   UNL     1      -6.402   6.337  68.541  1.00  0.00    -0.044 C  
HETATM    5  C   UNL     1      -7.426  12.637  68.137  1.00  0.00    -0.122 C  
HETATM    6  O   UNL     1      -8.568  12.589  69.010  1.00  0.00    -0.331 OA 
HETATM    7  C   UNL     1      -6.450  11.442  68.371  1.00  0.00    -0.050 C  
HETATM    8  C   UNL     1      -7.042   5.042  68.137  1.00  0.00    -0.062 A  
HETATM    9  C   UNL     1      -6.773   3.872  68.866  1.00  0.00    -0.045 A  
HETATM   10  C   UNL     1      -6.921  10.079  67.860  1.00  0.00    -0.084 A  
HETATM   11  C   UNL     1      -7.383   2.662  68.521  1.00  0.00    -0.048 A  
HETATM   12  C   UNL     1      -8.241   2.597  67.427  1.00  0.00    -0.083 A  
HETATM   13  H   UNL     1      -9.567   9.546  64.984  1.00  0.00     0.000 HD 
HETATM   14  H   UNL     1      -8.239  12.647  69.899  1.00  0.00     0.000 HD 
HETATM   15  C   UNL     1      -8.497   3.744  66.668  1.00  0.00    -0.106 A  
HETATM   16  O   UNL     1      -9.216   8.736  65.337  1.00  0.00    -0.183 OA 
HETATM   17  C   UNL     1      -6.391   8.868  68.367  1.00  0.00    -0.055 A  
HETATM   18  C   UNL     1      -7.917   4.982  67.046  1.00  0.00    -0.103 A  
HETATM   19  O   UNL     1      -5.445   8.969  69.360  1.00  0.00    -0.035 OA 
HETATM   20  C   UNL     1      -6.843   7.601  67.911  1.00  0.00    -0.068 A  
HETATM   21  O   UNL     1      -8.857   6.257  65.277  1.00  0.00    -0.069 OA 
HETATM   22  C   UNL     1      -7.906  10.003  66.856  1.00  0.00    -0.106 A  
HETATM   23  C   UNL     1      -8.276   8.743  66.340  1.00  0.00    -0.111 A  
HETATM   24  C   UNL     1      -8.209   6.241  66.323  1.00  0.00    -0.117 C  
HETATM   25  C   UNL     1      -7.756   7.545  66.863  1.00  0.00    -0.110 A  
HETATM   26  H   UNL     1      -5.089   8.157  69.701  1.00  0.00     0.000 HD 
ENDROOT
BRANCH   1  27
HETATM   27  O   UNL     1      -9.894  11.003  67.344  1.00  0.00    -0.171 OA 
BRANCH  27  28
HETATM   28  C   UNL     1     -11.195  11.270  66.844  1.00  0.00    -0.230 C  
HETATM   29  O   UNL     1     -11.101  12.140  65.691  1.00  0.00    -0.295 OA 
HETATM   30  C   UNL     1     -10.604  14.336  64.730  1.00  0.00    -0.434 C  
HETATM   31  C   UNL     1     -11.804  14.117  66.917  1.00  0.00    -0.431 C  
HETATM   32  O   UNL     1     -13.113  14.042  66.326  1.00  0.00    -0.406 OA 
HETATM   33  H   UNL     1     -13.137  14.544  65.520  1.00  0.00     0.000 HD 
HETATM   34  C   UNL     1     -11.764  13.306  68.219  1.00  0.00    -0.353 C  
HETATM   35  C   UNL     1     -10.748  13.497  65.998  1.00  0.00    -0.279 C  
HETATM   36  C   UNL     1     -12.119  11.847  67.929  1.00  0.00     0.019 C  
BRANCH  34  37
HETATM   37  N   UNL     1     -12.606  13.911  69.248  1.00  0.00    -0.311 N  
HETATM   38  H   UNL     1     -13.620  13.927  69.138  1.00  0.00     0.000 HD 
HETATM   39  C   UNL     1     -12.972  15.164  71.366  1.00  0.00    -0.403 C  
HETATM   40  F   UNL     1     -13.051  14.521  72.561  1.00  0.00    -0.367 F  
HETATM   41  O   UNL     1     -10.794  14.408  70.564  1.00  0.00     0.117 OA 
HETATM   42  F   UNL     1     -12.598  16.447  71.630  1.00  0.00    -0.428 F  
HETATM   43  F   UNL     1     -14.244  15.232  70.876  1.00  0.00    -0.443 F  
HETATM   44  C   UNL     1     -12.013  14.469  70.384  1.00  0.00    -0.318 C  
ENDBRANCH  34  37
ENDBRANCH  27  28
ENDBRANCH   1  27
BRANCH   5  45
HETATM   45  C   UNL     1      -6.783  13.934  68.683  1.00  0.00    -0.098 C  
HETATM   46  O   UNL     1      -7.206  14.409  69.750  1.00  0.00    -0.074 OA 
BRANCH  45  47
HETATM   47  C   UNL     1      -5.872  14.807  67.817  1.00  0.00    -0.088 C  
BRANCH  47  48
HETATM   48  O   UNL     1      -6.470  15.681  66.874  1.00  0.00    -0.254 OA 
BRANCH  48  49
HETATM   49  C   UNL     1      -6.860  16.875  67.395  1.00  0.00    -0.153 C  
HETATM   50  O   UNL     1      -6.389  17.391  68.397  1.00  0.00    -0.166 OA 
BRANCH  49  51
HETATM   51  C   UNL     1      -7.931  17.491  66.532  1.00  0.00    -0.309 C  
BRANCH  51  52
HETATM   52  C   UNL     1      -9.324  17.028  66.950  1.00  0.00    -0.263 C  
BRANCH  52  53
HETATM   53  C   UNL     1     -10.416  18.001  66.497  1.00  0.00    -0.341 C  
HETATM   54  C   UNL     1     -10.281  19.360  67.159  1.00  0.00    -0.521 C  
ENDBRANCH  52  53
ENDBRANCH  51  52
ENDBRANCH  49  51
ENDBRANCH  48  49
ENDBRANCH  47  48
ENDBRANCH  45  47
ENDBRANCH   5  45
BRANCH  15  55
HETATM   55  O   UNL     1      -9.362   3.722  65.602  1.00  0.00    -0.147 OA 
HETATM   56  C   UNL     1      -9.360   2.559  64.779  1.00  0.00    -0.127 C  
ENDBRANCH  15  55
TORSDOF 11
ENDMDL
MODEL       33
REMARK 921   NORMALIZED FREE ENERGY PREDICTED BY IDOCK:   -4.67 KCAL/MOL
REMARK 922        TOTAL FREE ENERGY PREDICTED BY IDOCK:  -11.22 KCAL/MOL
REMARK 923 INTER-LIGAND FREE ENERGY PREDICTED BY IDOCK:   -7.96 KCAL/MOL
REMARK 924 INTRA-LIGAND FREE ENERGY PREDICTED BY IDOCK:   -3.26 KCAL/MOL
REMARK 927      BINDING AFFINITY PREDICTED BY RF-SCORE:    0.00 PKD
ROOT
HETATM    1  C   UNL     1      -7.556   8.679  69.125  1.00  0.00    -0.089 C  
HETATM    2  O   UNL     1      -9.781  10.319  63.210  1.00  0.00    -0.301 OA 
HETATM    3  C   UNL     1      -6.565   7.489  68.983  1.00  0.00    -0.044 C  
HETATM    4  C   UNL     1      -9.745  10.949  64.269  1.00  0.00    -0.294 C  
HETATM    5  C   UNL     1      -7.092   6.466  67.980  1.00  0.00    -0.082 C  
HETATM    6  O   UNL     1      -8.364   6.012  68.477  1.00  0.00    -0.112 OA 
HETATM    7  C   UNL     1      -7.216   7.168  66.591  1.00  0.00    -0.079 C  
HETATM    8  C   UNL     1     -10.505  12.236  64.389  1.00  0.00    -0.355 A  
HETATM    9  C   UNL     1     -11.360  12.642  63.351  1.00  0.00    -0.456 A  
HETATM   10  C   UNL     1      -7.838   8.565  66.596  1.00  0.00    -0.090 A  
HETATM   11  C   UNL     1     -12.098  13.825  63.459  1.00  0.00    -0.241 A  
HETATM   12  C   UNL     1     -11.968  14.632  64.587  1.00  0.00    -0.472 A  
HETATM   13  H   UNL     1      -7.909  10.986  69.708  1.00  0.00     0.000 HD 
HETATM   14  H   UNL     1      -8.692   5.375  67.854  1.00  0.00     0.000 HD 
HETATM   15  C   UNL     1     -11.097  14.262  65.617  1.00  0.00    -0.316 A  
HETATM   16  O   UNL     1      -8.304  11.354  68.927  1.00  0.00    -0.130 OA 
HETATM   17  C   UNL     1      -8.414   9.129  65.431  1.00  0.00    -0.149 A  
HETATM   18  C   UNL     1     -10.385  13.038  65.530  1.00  0.00    -0.304 A  
HETATM   19  O   UNL     1      -8.409   8.355  64.295  1.00  0.00    -0.267 OA 
HETATM   20  C   UNL     1      -9.012  10.417  65.439  1.00  0.00    -0.207 A  
HETATM   21  O   UNL     1      -9.238  13.262  67.597  1.00  0.00    -0.192 OA 
HETATM   22  C   UNL     1      -7.848   9.329  67.778  1.00  0.00    -0.092 A  
HETATM   23  C   UNL     1      -8.355  10.646  67.750  1.00  0.00    -0.115 A  
HETATM   24  C   UNL     1      -9.505  12.561  66.622  1.00  0.00    -0.242 C  
HETATM   25  C   UNL     1      -8.941  11.191  66.593  1.00  0.00    -0.175 A  
HETATM   26  H   UNL     1      -8.795   8.733  63.514  1.00  0.00     0.000 HD 
ENDROOT
BRANCH   1  27
HETATM   27  O   UNL     1      -8.891   8.376  69.565  1.00  0.00    -0.142 OA 
BRANCH  27  28
HETATM   28  C   UNL     1      -9.168   8.273  70.952  1.00  0.00    -0.155 C  
HETATM   29  O   UNL     1      -9.923   7.065  71.207  1.00  0.00    -0.189 OA 
HETATM   30  C   UNL     1     -11.998   5.781  71.002  1.00  0.00     0.653 C  
HETATM   31  C   UNL     1     -12.034   8.241  71.470  1.00  0.00    -0.296 C  
HETATM   32  O   UNL     1     -11.962   8.089  72.899  1.00  0.00    -0.611 OA 
HETATM   33  H   UNL     1     -12.389   7.282  73.164  1.00  0.00     0.000 HD 
HETATM   34  C   UNL     1     -11.345   9.543  71.042  1.00  0.00    -0.352 C  
HETATM   35  C   UNL     1     -11.285   7.110  70.758  1.00  0.00    -0.279 C  
HETATM   36  C   UNL     1      -9.882   9.525  71.488  1.00  0.00     0.157 C  
BRANCH  34  37
HETATM   37  N   UNL     1     -12.079  10.714  71.517  1.00  0.00    -0.249 N  
HETATM   38  H   UNL     1     -12.656  10.652  72.355  1.00  0.00     0.000 HD 
HETATM   39  C   UNL     1     -12.865  13.068  71.336  1.00  0.00    -0.292 C  
HETATM   40  F   UNL     1     -12.133  14.096  71.841  1.00  0.00    -0.362 F  
HETATM   41  O   UNL     1     -11.247  12.029  69.832  1.00  0.00    -0.120 OA 
HETATM   42  F   UNL     1     -13.662  13.589  70.363  1.00  0.00     0.275 F  
HETATM   43  F   UNL     1     -13.701  12.658  72.334  1.00  0.00    -0.611 F  
HETATM   44  C   UNL     1     -11.984  11.917  70.814  1.00  0.00    -0.088 C  
ENDBRANCH  34  37
ENDBRANCH  27  28
ENDBRANCH   1  27
BRANCH   5  45
HETATM   45  C   UNL     1      -6.419   5.086  67.796  1.00  0.00    -0.045 C  
HETATM   46  O   UNL     1      -5.229   4.951  68.129  1.00  0.00    -0.009 OA 
BRANCH  45  47
HETATM   47  C   UNL     1      -7.059   3.985  66.947  1.00  0.00    -0.064 C  
BRANCH  47  48
HETATM   48  O   UNL     1      -8.350   3.521  67.304  1.00  0.00    -0.089 OA 
BRANCH  48  49
HETATM   49  C   UNL     1      -9.014   2.898  66.294  1.00  0.00    -0.148 C  
HETATM   50  O   UNL     1      -9.532   1.795  66.371  1.00  0.00     0.079 OA 
BRANCH  49  51
HETATM   51  C   UNL     1      -9.054   3.786  65.077  1.00  0.00    -0.141 C  
BRANCH  51  52
HETATM   52  C   UNL     1     -10.488   4.126  64.676  1.00  0.00    -0.189 C  
BRANCH  52  53
HETATM   53  C   UNL     1     -11.270   4.769  65.824  1.00  0.00     0.427 C  
HETATM   54  C   UNL     1     -10.708   6.125  66.210  1.00  0.00     0.086 C  
ENDBRANCH  52  53
ENDBRANCH  51  52
ENDBRANCH  49  51
ENDBRANCH  48  49
ENDBRANCH  47  48
ENDBRANCH  45  47
ENDBRANCH   5  45
BRANCH  15  55
HETATM   55  O   UNL     1     -10.969  15.017  66.756  1.00  0.00    -0.315 OA 
HETATM   56  C   UNL     1     -10.886  16.431  66.598  1.00  0.00    -0.086 C  
ENDBRANCH  15  55
TORSDOF 11
ENDMDL
MODEL       34
REMARK 921   NORMALIZED FREE ENERGY PREDICTED BY IDOCK:   -4.63 KCAL/MOL
REMARK 922        TOTAL FREE ENERGY PREDICTED BY IDOCK:  -11.16 KCAL/MOL
REMARK 923 INTER-LIGAND FREE ENERGY PREDICTED BY IDOCK:   -9.08 KCAL/MOL
REMARK 924 INTRA-LIGAND FREE ENERGY PREDICTED BY IDOCK:   -2.08 KCAL/MOL
REMARK 927      BINDING AFFINITY PREDICTED BY RF-SCORE:    0.00 PKD
ROOT
HETATM    1  C   UNL     1      -7.277   9.826  66.909  1.00  0.00    -0.090 C  
HETATM    2  O   UNL     1      -6.565   8.543  73.271  1.00  0.00    -0.139 OA 
HETATM    3  C   UNL     1      -6.558  11.165  66.577  1.00  0.00    -0.124 C  
HETATM    4  C   UNL     1      -6.842   7.811  72.319  1.00  0.00    -0.062 C  
HETATM    5  C   UNL     1      -6.818  12.200  67.668  1.00  0.00    -0.119 C  
HETATM    6  O   UNL     1      -8.242  12.392  67.731  1.00  0.00    -0.141 OA 
HETATM    7  C   UNL     1      -6.234  11.651  69.007  1.00  0.00    -0.066 C  
HETATM    8  C   UNL     1      -7.327   6.415  72.579  1.00  0.00    -0.087 A  
HETATM    9  C   UNL     1      -7.596   6.002  73.894  1.00  0.00    -0.091 A  
HETATM   10  C   UNL     1      -6.528  10.183  69.317  1.00  0.00    -0.047 A  
HETATM   11  C   UNL     1      -8.076   4.714  74.150  1.00  0.00    -0.100 A  
HETATM   12  C   UNL     1      -8.263   3.814  73.104  1.00  0.00    -0.087 A  
HETATM   13  H   UNL     1      -7.392   7.442  66.617  1.00  0.00     0.000 HD 
HETATM   14  H   UNL     1      -8.404  13.036  68.409  1.00  0.00     0.000 HD 
HETATM   15  C   UNL     1      -7.970   4.196  71.790  1.00  0.00    -0.083 A  
HETATM   16  O   UNL     1      -7.360   7.107  67.505  1.00  0.00    -0.087 OA 
HETATM   17  C   UNL     1      -6.465   9.672  70.637  1.00  0.00    -0.105 A  
HETATM   18  C   UNL     1      -7.529   5.517  71.524  1.00  0.00    -0.095 A  
HETATM   19  O   UNL     1      -6.148  10.562  71.636  1.00  0.00    -0.244 OA 
HETATM   20  C   UNL     1      -6.760   8.314  70.930  1.00  0.00    -0.040 A  
HETATM   21  O   UNL     1      -7.297   5.241  69.177  1.00  0.00    -0.060 OA 
HETATM   22  C   UNL     1      -6.870   9.296  68.278  1.00  0.00    -0.064 A  
HETATM   23  C   UNL     1      -7.064   7.929  68.567  1.00  0.00    -0.076 A  
HETATM   24  C   UNL     1      -7.274   5.999  70.146  1.00  0.00    -0.076 C  
HETATM   25  C   UNL     1      -7.016   7.434  69.883  1.00  0.00    -0.060 A  
HETATM   26  H   UNL     1      -6.106  10.219  72.521  1.00  0.00     0.000 HD 
ENDROOT
BRANCH   1  27
HETATM   27  O   UNL     1      -8.707   9.866  67.056  1.00  0.00    -0.130 OA 
BRANCH  27  28
HETATM   28  C   UNL     1      -9.534   9.334  66.034  1.00  0.00    -0.247 C  
HETATM   29  O   UNL     1      -8.714   8.914  64.918  1.00  0.00    -0.184 OA 
HETATM   30  C   UNL     1      -7.253   9.473  63.034  1.00  0.00    -0.106 C  
HETATM   31  C   UNL     1      -9.279  10.847  63.559  1.00  0.00    -0.245 C  
HETATM   32  O   UNL     1     -10.172  10.050  62.761  1.00  0.00    -0.386 OA 
HETATM   33  H   UNL     1      -9.705   9.678  62.022  1.00  0.00     0.000 HD 
HETATM   34  C   UNL     1     -10.032  11.449  64.753  1.00  0.00    -0.267 C  
HETATM   35  C   UNL     1      -8.156   9.991  64.152  1.00  0.00    -0.153 C  
HETATM   36  C   UNL     1     -10.627  10.327  65.606  1.00  0.00    -0.044 C  
BRANCH  34  37
HETATM   37  N   UNL     1     -11.022  12.430  64.318  1.00  0.00    -0.324 N  
HETATM   38  H   UNL     1     -11.608  12.243  63.505  1.00  0.00     0.000 HD 
HETATM   39  C   UNL     1     -12.163  14.639  64.436  1.00  0.00    -0.452 C  
HETATM   40  F   UNL     1     -13.239  14.834  65.242  1.00  0.00    -0.201 F  
HETATM   41  O   UNL     1     -10.503  13.851  66.043  1.00  0.00    -0.285 OA 
HETATM   42  F   UNL     1     -11.599  15.860  64.224  1.00  0.00    -0.456 F  
HETATM   43  F   UNL     1     -12.650  14.230  63.228  1.00  0.00    -0.281 F  
HETATM   44  C   UNL     1     -11.160  13.629  65.023  1.00  0.00    -0.332 C  
ENDBRANCH  34  37
ENDBRANCH  27  28
ENDBRANCH   1  27
BRANCH   5  45
HETATM   45  C   UNL     1      -6.402  13.681  67.500  1.00  0.00    -0.061 C  
HETATM   46  O   UNL     1      -5.192  13.963  67.468  1.00  0.00    -0.327 OA 
BRANCH  45  47
HETATM   47  C   UNL     1      -7.404  14.824  67.678  1.00  0.00    -0.186 C  
BRANCH  47  48
HETATM   48  O   UNL     1      -7.922  15.072  68.974  1.00  0.00    -0.157 OA 
BRANCH  48  49
HETATM   49  C   UNL     1      -9.206  15.520  68.982  1.00  0.00    -0.238 C  
HETATM   50  O   UNL     1     -10.076  15.142  69.752  1.00  0.00    -0.227 OA 
BRANCH  49  51
HETATM   51  C   UNL     1      -9.390  16.580  67.927  1.00  0.00    -0.216 C  
BRANCH  51  52
HETATM   52  C   UNL     1     -10.746  17.271  68.055  1.00  0.00    -0.367 C  
BRANCH  52  53
HETATM   53  C   UNL     1     -10.710  18.713  67.544  1.00  0.00    -0.447 C  
HETATM   54  C   UNL     1     -10.158  18.806  66.133  1.00  0.00    -0.421 C  
ENDBRANCH  52  53
ENDBRANCH  51  52
ENDBRANCH  49  51
ENDBRANCH  48  49
ENDBRANCH  47  48
ENDBRANCH  45  47
ENDBRANCH   5  45
BRANCH  15  55
HETATM   55  O   UNL     1      -8.173   3.345  70.732  1.00  0.00    -0.056 OA 
HETATM   56  C   UNL     1      -9.342   2.531  70.760  1.00  0.00    -0.143 C  
ENDBRANCH  15  55
TORSDOF 11
ENDMDL
MODEL       35
REMARK 921   NORMALIZED FREE ENERGY PREDICTED BY IDOCK:   -4.62 KCAL/MOL
REMARK 922        TOTAL FREE ENERGY PREDICTED BY IDOCK:  -11.14 KCAL/MOL
REMARK 923 INTER-LIGAND FREE ENERGY PREDICTED BY IDOCK:   -9.63 KCAL/MOL
REMARK 924 INTRA-LIGAND FREE ENERGY PREDICTED BY IDOCK:   -1.51 KCAL/MOL
REMARK 927      BINDING AFFINITY PREDICTED BY RF-SCORE:    0.00 PKD
ROOT
HETATM    1  C   UNL     1      -9.158  11.759  68.354  1.00  0.00    -0.176 C  
HETATM    2  O   UNL     1      -6.090   8.268  72.939  1.00  0.00    -0.063 OA 
HETATM    3  C   UNL     1      -8.130  12.693  67.654  1.00  0.00    -0.173 C  
HETATM    4  C   UNL     1      -7.160   8.083  72.356  1.00  0.00    -0.090 C  
HETATM    5  C   UNL     1      -7.183  13.315  68.677  1.00  0.00    -0.106 C  
HETATM    6  O   UNL     1      -7.998  14.059  69.601  1.00  0.00    -0.217 OA 
HETATM    7  C   UNL     1      -6.398  12.161  69.376  1.00  0.00    -0.116 C  
HETATM    8  C   UNL     1      -8.100   7.026  72.855  1.00  0.00    -0.117 A  
HETATM    9  C   UNL     1      -7.823   6.356  74.057  1.00  0.00    -0.097 A  
HETATM   10  C   UNL     1      -7.224  10.944  69.798  1.00  0.00    -0.061 A  
HETATM   11  C   UNL     1      -8.703   5.388  74.552  1.00  0.00    -0.113 A  
HETATM   12  C   UNL     1      -9.851   5.055  73.838  1.00  0.00    -0.172 A  
HETATM   13  H   UNL     1     -10.668   9.894  68.188  1.00  0.00     0.000 HD 
HETATM   14  H   UNL     1      -7.409  14.446  70.238  1.00  0.00     0.000 HD 
HETATM   15  C   UNL     1     -10.129   5.689  72.622  1.00  0.00    -0.180 A  
HETATM   16  O   UNL     1     -10.368   9.305  68.870  1.00  0.00    -0.204 OA 
HETATM   17  C   UNL     1      -6.776  10.050  70.800  1.00  0.00    -0.008 A  
HETATM   18  C   UNL     1      -9.262   6.704  72.144  1.00  0.00    -0.138 A  
HETATM   19  O   UNL     1      -5.570  10.335  71.397  1.00  0.00    -0.189 OA 
HETATM   20  C   UNL     1      -7.552   8.933  71.210  1.00  0.00    -0.132 A  
HETATM   21  O   UNL     1     -10.467   7.151  70.147  1.00  0.00    -0.206 OA 
HETATM   22  C   UNL     1      -8.465  10.686  69.184  1.00  0.00    -0.134 A  
HETATM   23  C   UNL     1      -9.180   9.520  69.529  1.00  0.00    -0.189 A  
HETATM   24  C   UNL     1      -9.544   7.458  70.900  1.00  0.00    -0.166 C  
HETATM   25  C   UNL     1      -8.736   8.647  70.538  1.00  0.00    -0.178 A  
HETATM   26  H   UNL     1      -5.270   9.735  72.070  1.00  0.00     0.000 HD 
ENDROOT
BRANCH   1  27
HETATM   27  O   UNL     1     -10.014  12.350  69.347  1.00  0.00     0.412 OA 
BRANCH  27  28
HETATM   28  C   UNL     1     -11.342  12.710  69.006  1.00  0.00    -0.292 C  
HETATM   29  O   UNL     1     -11.686  12.133  67.724  1.00  0.00    -0.356 OA 
HETATM   30  C   UNL     1     -11.401  12.050  65.294  1.00  0.00    -0.366 C  
HETATM   31  C   UNL     1     -11.432  14.230  66.524  1.00  0.00    -0.360 C  
HETATM   32  O   UNL     1     -12.861  14.385  66.452  1.00  0.00    -0.434 OA 
HETATM   33  H   UNL     1     -13.194  13.982  65.659  1.00  0.00     0.000 HD 
HETATM   34  C   UNL     1     -10.893  14.882  67.804  1.00  0.00    -0.286 C  
HETATM   35  C   UNL     1     -11.041  12.752  66.602  1.00  0.00    -0.276 C  
HETATM   36  C   UNL     1     -11.546  14.234  69.027  1.00  0.00    -0.342 C  
BRANCH  34  37
HETATM   37  N   UNL     1     -11.049  16.334  67.769  1.00  0.00    -0.277 N  
HETATM   38  H   UNL     1     -11.926  16.748  67.455  1.00  0.00     0.000 HD 
HETATM   39  C   UNL     1     -10.211  18.665  68.008  1.00  0.00    -0.385 C  
HETATM   40  F   UNL     1     -10.262  19.313  69.201  1.00  0.00    -0.450 F  
HETATM   41  O   UNL     1      -8.940  16.669  68.606  1.00  0.00    -0.228 OA 
HETATM   42  F   UNL     1      -9.227  19.256  67.277  1.00  0.00    -0.304 F  
HETATM   43  F   UNL     1     -11.383  18.942  67.364  1.00  0.00    -0.407 F  
HETATM   44  C   UNL     1      -9.987  17.150  68.168  1.00  0.00    -0.297 C  
ENDBRANCH  34  37
ENDBRANCH  27  28
ENDBRANCH   1  27
BRANCH   5  45
HETATM   45  C   UNL     1      -6.196  14.442  68.292  1.00  0.00    -0.120 C  
HETATM   46  O   UNL     1      -5.220  14.661  69.030  1.00  0.00    -0.088 OA 
BRANCH  45  47
HETATM   47  C   UNL     1      -6.540  15.483  67.224  1.00  0.00    -0.054 C  
BRANCH  47  48
HETATM   48  O   UNL     1      -5.674  16.593  67.059  1.00  0.00    -0.170 OA 
BRANCH  48  49
HETATM   49  C   UNL     1      -6.205  17.606  66.323  1.00  0.00    -0.236 C  
HETATM   50  O   UNL     1      -7.233  17.532  65.669  1.00  0.00    -0.405 OA 
BRANCH  49  51
HETATM   51  C   UNL     1      -5.361  18.846  66.465  1.00  0.00    -0.158 C  
BRANCH  51  52
HETATM   52  C   UNL     1      -6.016  19.869  67.391  1.00  0.00    -0.201 C  
BRANCH  52  53
HETATM   53  C   UNL     1      -6.370  21.166  66.659  1.00  0.00    -0.362 C  
HETATM   54  C   UNL     1      -5.845  21.182  65.236  1.00  0.00    -0.230 C  
ENDBRANCH  52  53
ENDBRANCH  51  52
ENDBRANCH  49  51
ENDBRANCH  48  49
ENDBRANCH  47  48
ENDBRANCH  45  47
ENDBRANCH   5  45
BRANCH  15  55
HETATM   55  O   UNL     1     -11.268   5.408  71.909  1.00  0.00    -0.179 OA 
HETATM   56  C   UNL     1     -12.497   5.358  72.628  1.00  0.00     0.451 C  
ENDBRANCH  15  55
TORSDOF 11
ENDMDL
MODEL       36
REMARK 921   NORMALIZED FREE ENERGY PREDICTED BY IDOCK:   -4.58 KCAL/MOL
REMARK 922        TOTAL FREE ENERGY PREDICTED BY IDOCK:  -11.08 KCAL/MOL
REMARK 923 INTER-LIGAND FREE ENERGY PREDICTED BY IDOCK:   -9.59 KCAL/MOL
REMARK 924 INTRA-LIGAND FREE ENERGY PREDICTED BY IDOCK:   -1.49 KCAL/MOL
REMARK 927      BINDING AFFINITY PREDICTED BY RF-SCORE:    0.00 PKD
ROOT
HETATM    1  C   UNL     1      -9.475  11.225  66.837  1.00  0.00    -0.177 C  
HETATM    2  O   UNL     1     -11.375  16.290  70.492  1.00  0.00    -0.378 OA 
HETATM    3  C   UNL     1     -10.249   9.953  67.289  1.00  0.00    -0.277 C  
HETATM    4  C   UNL     1     -10.824  16.243  69.390  1.00  0.00    -0.331 C  
HETATM    5  C   UNL     1     -10.341   9.892  68.811  1.00  0.00    -0.203 C  
HETATM    6  O   UNL     1      -8.992   9.869  69.310  1.00  0.00    -0.154 OA 
HETATM    7  C   UNL     1     -11.132  11.146  69.300  1.00  0.00    -0.318 C  
HETATM    8  C   UNL     1     -10.256  17.497  68.795  1.00  0.00    -0.373 A  
HETATM    9  C   UNL     1     -10.229  18.680  69.551  1.00  0.00     0.349 A  
HETATM   10  C   UNL     1     -10.752  12.477  68.651  1.00  0.00    -0.263 A  
HETATM   11  C   UNL     1      -9.676  19.850  69.021  1.00  0.00    -0.292 A  
HETATM   12  C   UNL     1      -9.175  19.863  67.722  1.00  0.00    -0.436 A  
HETATM   13  H   UNL     1      -9.041  12.849  65.117  1.00  0.00     0.000 HD 
HETATM   14  H   UNL     1      -9.049   9.830  70.258  1.00  0.00     0.000 HD 
HETATM   15  C   UNL     1      -9.222  18.704  66.941  1.00  0.00    -0.304 A  
HETATM   16  O   UNL     1      -9.224  13.678  65.544  1.00  0.00     0.234 OA 
HETATM   17  C   UNL     1     -11.037  13.718  69.271  1.00  0.00    -0.208 A  
HETATM   18  C   UNL     1      -9.738  17.504  67.494  1.00  0.00    -0.278 A  
HETATM   19  O   UNL     1     -11.654  13.674  70.499  1.00  0.00    -0.513 OA 
HETATM   20  C   UNL     1     -10.664  14.955  68.681  1.00  0.00    -0.250 A  
HETATM   21  O   UNL     1      -9.436  16.175  65.549  1.00  0.00    -0.428 OA 
HETATM   22  C   UNL     1     -10.102  12.493  67.402  1.00  0.00    -0.211 A  
HETATM   23  C   UNL     1      -9.826  13.728  66.779  1.00  0.00    -0.275 A  
HETATM   24  C   UNL     1      -9.746  16.229  66.739  1.00  0.00    -0.241 C  
HETATM   25  C   UNL     1     -10.097  14.955  67.410  1.00  0.00    -0.228 A  
HETATM   26  H   UNL     1     -11.845  14.507  70.915  1.00  0.00     0.000 HD 
ENDROOT
BRANCH   1  27
HETATM   27  O   UNL     1      -8.121  11.371  67.302  1.00  0.00    -0.135 OA 
BRANCH  27  28
HETATM   28  C   UNL     1      -7.044  11.026  66.447  1.00  0.00    -0.120 C  
HETATM   29  O   UNL     1      -7.524  10.906  65.087  1.00  0.00     0.064 OA 
HETATM   30  C   UNL     1      -8.848   9.715  63.406  1.00  0.00    -0.251 C  
HETATM   31  C   UNL     1      -7.507   8.476  65.120  1.00  0.00    -0.091 C  
HETATM   32  O   UNL     1      -6.303   8.454  64.333  1.00  0.00    -0.065 OA 
HETATM   33  H   UNL     1      -6.517   8.431  63.408  1.00  0.00     0.000 HD 
HETATM   34  C   UNL     1      -7.162   8.512  66.615  1.00  0.00    -0.074 C  
HETATM   35  C   UNL     1      -8.324   9.740  64.841  1.00  0.00    -0.148 C  
HETATM   36  C   UNL     1      -6.321   9.754  66.919  1.00  0.00    -0.065 C  
BRANCH  34  37
HETATM   37  N   UNL     1      -6.530   7.268  67.045  1.00  0.00    -0.053 N  
HETATM   38  H   UNL     1      -5.858   6.797  66.440  1.00  0.00     0.000 HD 
HETATM   39  C   UNL     1      -6.209   5.368  68.619  1.00  0.00    -0.030 C  
HETATM   40  F   UNL     1      -5.322   5.445  69.646  1.00  0.00    -0.003 F  
HETATM   41  O   UNL     1      -7.619   7.310  69.063  1.00  0.00    -0.095 OA 
HETATM   42  F   UNL     1      -7.133   4.429  68.964  1.00  0.00    -0.048 F  
HETATM   43  F   UNL     1      -5.527   4.857  67.553  1.00  0.00    -0.010 F  
HETATM   44  C   UNL     1      -6.854   6.727  68.292  1.00  0.00    -0.077 C  
ENDBRANCH  34  37
ENDBRANCH  27  28
ENDBRANCH   1  27
BRANCH   5  45
HETATM   45  C   UNL     1     -10.871   8.637  69.544  1.00  0.00    -0.129 C  
HETATM   46  O   UNL     1     -10.870   7.548  68.945  1.00  0.00    -0.155 OA 
BRANCH  45  47
HETATM   47  C   UNL     1     -11.669   8.742  70.846  1.00  0.00    -0.258 C  
BRANCH  47  48
HETATM   48  O   UNL     1     -12.351   7.591  71.315  1.00  0.00    -0.319 OA 
BRANCH  48  49
HETATM   49  C   UNL     1     -11.646   6.858  72.218  1.00  0.00    -0.270 C  
HETATM   50  O   UNL     1     -11.601   5.638  72.248  1.00  0.00    -0.264 OA 
BRANCH  49  51
HETATM   51  C   UNL     1     -10.895   7.772  73.153  1.00  0.00    -0.401 C  
BRANCH  51  52
HETATM   52  C   UNL     1     -10.092   6.982  74.184  1.00  0.00    -0.290 C  
BRANCH  52  53
HETATM   53  C   UNL     1      -8.605   7.344  74.156  1.00  0.00    -0.257 C  
HETATM   54  C   UNL     1      -8.255   8.237  72.980  1.00  0.00    -0.227 C  
ENDBRANCH  52  53
ENDBRANCH  51  52
ENDBRANCH  49  51
ENDBRANCH  48  49
ENDBRANCH  47  48
ENDBRANCH  45  47
ENDBRANCH   5  45
BRANCH  15  55
HETATM   55  O   UNL     1      -8.708  18.673  65.669  1.00  0.00    -0.296 OA 
HETATM   56  C   UNL     1      -7.438  19.285  65.460  1.00  0.00     0.029 C  
ENDBRANCH  15  55
TORSDOF 11
ENDMDL
MODEL       37
REMARK 921   NORMALIZED FREE ENERGY PREDICTED BY IDOCK:   -4.53 KCAL/MOL
REMARK 922        TOTAL FREE ENERGY PREDICTED BY IDOCK:  -10.99 KCAL/MOL
REMARK 923 INTER-LIGAND FREE ENERGY PREDICTED BY IDOCK:   -8.58 KCAL/MOL
REMARK 924 INTRA-LIGAND FREE ENERGY PREDICTED BY IDOCK:   -2.41 KCAL/MOL
REMARK 927      BINDING AFFINITY PREDICTED BY RF-SCORE:    0.00 PKD
ROOT
HETATM    1  C   UNL     1      -8.141   8.827  68.483  1.00  0.00    -0.116 C  
HETATM    2  O   UNL     1     -10.683  11.720  63.212  1.00  0.00    -0.382 OA 
HETATM    3  C   UNL     1      -7.516   7.466  68.064  1.00  0.00    -0.105 C  
HETATM    4  C   UNL     1     -10.340  12.176  64.304  1.00  0.00    -0.334 C  
HETATM    5  C   UNL     1      -8.421   6.740  67.073  1.00  0.00    -0.114 C  
HETATM    6  O   UNL     1      -9.684   6.537  67.733  1.00  0.00    -0.121 OA 
HETATM    7  C   UNL     1      -8.556   7.629  65.798  1.00  0.00    -0.156 C  
HETATM    8  C   UNL     1     -10.723  13.579  64.671  1.00  0.00    -0.429 A  
HETATM    9  C   UNL     1     -11.583  14.311  63.836  1.00  0.00     0.053 A  
HETATM   10  C   UNL     1      -8.795   9.121  66.039  1.00  0.00    -0.200 A  
HETATM   11  C   UNL     1     -11.973  15.609  64.179  1.00  0.00    -0.048 A  
HETATM   12  C   UNL     1     -11.485  16.204  65.339  1.00  0.00     0.284 A  
HETATM   13  H   UNL     1      -7.809  11.053  69.333  1.00  0.00     0.000 HD 
HETATM   14  H   UNL     1     -10.247   6.084  67.117  1.00  0.00     0.000 HD 
HETATM   15  C   UNL     1     -10.601  15.505  66.167  1.00  0.00    -0.315 A  
HETATM   16  O   UNL     1      -8.204  11.605  68.668  1.00  0.00    -0.151 OA 
HETATM   17  C   UNL     1      -9.366   9.955  65.047  1.00  0.00    -0.264 A  
HETATM   18  C   UNL     1     -10.243  14.170  65.846  1.00  0.00    -0.332 A  
HETATM   19  O   UNL     1      -9.718   9.360  63.859  1.00  0.00    -0.343 OA 
HETATM   20  C   UNL     1      -9.610  11.335  65.277  1.00  0.00    -0.265 A  
HETATM   21  O   UNL     1      -8.798  13.839  67.701  1.00  0.00    -0.169 OA 
HETATM   22  C   UNL     1      -8.444   9.701  67.273  1.00  0.00    -0.132 A  
HETATM   23  C   UNL     1      -8.598  11.092  67.455  1.00  0.00    -0.132 A  
HETATM   24  C   UNL     1      -9.369  13.357  66.724  1.00  0.00    -0.256 C  
HETATM   25  C   UNL     1      -9.182  11.909  66.471  1.00  0.00    -0.216 A  
HETATM   26  H   UNL     1     -10.101   9.920  63.193  1.00  0.00     0.000 HD 
ENDROOT
BRANCH   1  27
HETATM   27  O   UNL     1      -9.434   8.792  69.112  1.00  0.00    -0.155 OA 
BRANCH  27  28
HETATM   28  C   UNL     1      -9.528   8.820  70.527  1.00  0.00    -0.186 C  
HETATM   29  O   UNL     1     -10.344   7.713  70.979  1.00  0.00    -0.202 OA 
HETATM   30  C   UNL     1     -12.531   6.626  71.152  1.00  0.00    -0.255 C  
HETATM   31  C   UNL     1     -12.289   9.105  71.408  1.00  0.00    -0.333 C  
HETATM   32  O   UNL     1     -12.039   9.053  72.823  1.00  0.00    -0.099 OA 
HETATM   33  H   UNL     1     -12.494   8.314  73.209  1.00  0.00     0.000 HD 
HETATM   34  C   UNL     1     -11.555  10.299  70.784  1.00  0.00    -0.355 C  
HETATM   35  C   UNL     1     -11.746   7.858  70.706  1.00  0.00    -0.218 C  
HETATM   36  C   UNL     1     -10.052  10.171  71.040  1.00  0.00     0.717 C  
BRANCH  34  37
HETATM   37  N   UNL     1     -12.113  11.567  71.247  1.00  0.00    -0.187 N  
HETATM   38  H   UNL     1     -12.616  11.614  72.132  1.00  0.00     0.000 HD 
HETATM   39  C   UNL     1     -12.653  13.983  70.989  1.00  0.00    -0.366 C  
HETATM   40  F   UNL     1     -11.773  14.946  71.369  1.00  0.00    -0.326 F  
HETATM   41  O   UNL     1     -11.297  12.693  69.422  1.00  0.00    -0.254 OA 
HETATM   42  F   UNL     1     -13.473  14.540  70.056  1.00  0.00    -0.034 F  
HETATM   43  F   UNL     1     -13.436  13.721  72.076  1.00  0.00    -0.405 F  
HETATM   44  C   UNL     1     -11.952  12.716  70.467  1.00  0.00    -0.192 C  
ENDBRANCH  34  37
ENDBRANCH  27  28
ENDBRANCH   1  27
BRANCH   5  45
HETATM   45  C   UNL     1      -8.154   5.277  66.648  1.00  0.00    -0.105 C  
HETATM   46  O   UNL     1      -9.065   4.638  66.093  1.00  0.00    -0.120 OA 
BRANCH  45  47
HETATM   47  C   UNL     1      -6.935   4.501  67.154  1.00  0.00    -0.060 C  
BRANCH  47  48
HETATM   48  O   UNL     1      -6.346   4.895  68.382  1.00  0.00    -0.034 OA 
BRANCH  48  49
HETATM   49  C   UNL     1      -6.146   3.871  69.254  1.00  0.00    -0.027 C  
HETATM   50  O   UNL     1      -5.504   3.947  70.290  1.00  0.00    -0.011 OA 
BRANCH  49  51
HETATM   51  C   UNL     1      -6.868   2.636  68.777  1.00  0.00    -0.037 C  
BRANCH  51  52
HETATM   52  C   UNL     1      -7.883   2.147  69.806  1.00  0.00    -0.049 C  
BRANCH  52  53
HETATM   53  C   UNL     1      -9.191   2.939  69.748  1.00  0.00    -0.213 C  
HETATM   54  C   UNL     1      -9.374   3.831  70.962  1.00  0.00    -0.218 C  
ENDBRANCH  52  53
ENDBRANCH  51  52
ENDBRANCH  49  51
ENDBRANCH  48  49
ENDBRANCH  47  48
ENDBRANCH  45  47
ENDBRANCH   5  45
BRANCH  15  55
HETATM   55  O   UNL     1     -10.126  16.050  67.334  1.00  0.00    -0.248 OA 
HETATM   56  C   UNL     1     -11.074  16.332  68.360  1.00  0.00    -0.362 C  
ENDBRANCH  15  55
TORSDOF 11
ENDMDL
MODEL       38
REMARK 921   NORMALIZED FREE ENERGY PREDICTED BY IDOCK:   -4.47 KCAL/MOL
REMARK 922        TOTAL FREE ENERGY PREDICTED BY IDOCK:  -10.90 KCAL/MOL
REMARK 923 INTER-LIGAND FREE ENERGY PREDICTED BY IDOCK:  -12.13 KCAL/MOL
REMARK 924 INTRA-LIGAND FREE ENERGY PREDICTED BY IDOCK:    1.24 KCAL/MOL
REMARK 927      BINDING AFFINITY PREDICTED BY RF-SCORE:    0.00 PKD
ROOT
HETATM    1  C   UNL     1     -11.316  13.121  67.339  1.00  0.00    -0.306 C  
HETATM    2  O   UNL     1      -8.132   9.666  62.805  1.00  0.00    -0.119 OA 
HETATM    3  C   UNL     1     -11.900  14.404  66.682  1.00  0.00    -0.417 C  
HETATM    4  C   UNL     1      -8.599   9.339  63.898  1.00  0.00    -0.192 C  
HETATM    5  C   UNL     1     -10.890  15.025  65.721  1.00  0.00    -0.350 C  
HETATM    6  O   UNL     1      -9.718  15.340  66.494  1.00  0.00    -0.240 OA 
HETATM    7  C   UNL     1     -10.595  13.989  64.592  1.00  0.00    -0.416 C  
HETATM    8  C   UNL     1      -8.249   8.002  64.480  1.00  0.00    -0.097 A  
HETATM    9  C   UNL     1      -7.287   7.196  63.850  1.00  0.00    -0.088 A  
HETATM   10  C   UNL     1     -10.371  12.546  65.044  1.00  0.00    -0.323 A  
HETATM   11  C   UNL     1      -6.928   5.959  64.396  1.00  0.00    -0.051 A  
HETATM   12  C   UNL     1      -7.545   5.499  65.556  1.00  0.00    -0.079 A  
HETATM   13  H   UNL     1     -11.724  11.009  68.415  1.00  0.00     0.000 HD 
HETATM   14  H   UNL     1      -9.089  15.727  65.896  1.00  0.00     0.000 HD 
HETATM   15  C   UNL     1      -8.528   6.273  66.181  1.00  0.00    -0.138 A  
HETATM   16  O   UNL     1     -11.247  10.389  67.875  1.00  0.00    -0.305 OA 
HETATM   17  C   UNL     1      -9.678  11.610  64.238  1.00  0.00    -0.173 A  
HETATM   18  C   UNL     1      -8.859   7.548  65.655  1.00  0.00    -0.072 A  
HETATM   19  O   UNL     1      -9.192  12.063  63.034  1.00  0.00    -0.647 OA 
HETATM   20  C   UNL     1      -9.449  10.275  64.666  1.00  0.00    -0.351 A  
HETATM   21  O   UNL     1     -10.519   8.069  67.272  1.00  0.00    -0.274 OA 
HETATM   22  C   UNL     1     -10.862  12.113  66.291  1.00  0.00    -0.317 A  
HETATM   23  C   UNL     1     -10.716  10.759  66.663  1.00  0.00    -0.207 A  
HETATM   24  C   UNL     1      -9.840   8.441  66.316  1.00  0.00    -0.187 C  
HETATM   25  C   UNL     1     -10.010   9.842  65.863  1.00  0.00    -0.345 A  
HETATM   26  H   UNL     1      -8.726  11.436  62.494  1.00  0.00     0.000 HD 
ENDROOT
BRANCH   1  27
HETATM   27  O   UNL     1     -10.108  13.266  68.106  1.00  0.00    -0.228 OA 
BRANCH  27  28
HETATM   28  C   UNL     1      -8.849  13.161  67.461  1.00  0.00    -0.199 C  
HETATM   29  O   UNL     1      -8.198  11.934  67.867  1.00  0.00    -0.133 OA 
HETATM   30  C   UNL     1      -7.091  10.594  69.592  1.00  0.00    -0.143 C  
HETATM   31  C   UNL     1      -6.668  13.054  69.387  1.00  0.00    -0.018 C  
HETATM   32  O   UNL     1      -5.593  12.909  68.443  1.00  0.00    -0.054 OA 
HETATM   33  H   UNL     1      -5.132  12.092  68.594  1.00  0.00     0.000 HD 
HETATM   34  C   UNL     1      -7.413  14.373  69.143  1.00  0.00    -0.094 C  
HETATM   35  C   UNL     1      -7.706  11.941  69.215  1.00  0.00     0.273 C  
HETATM   36  C   UNL     1      -7.968  14.395  67.718  1.00  0.00    -0.166 C  
BRANCH  34  37
HETATM   37  N   UNL     1      -6.569  15.525  69.452  1.00  0.00    -0.147 N  
HETATM   38  H   UNL     1      -5.798  15.434  70.112  1.00  0.00     0.000 HD 
HETATM   39  C   UNL     1      -5.946  17.928  69.292  1.00  0.00    -0.229 C  
HETATM   40  F   UNL     1      -5.127  18.380  68.305  1.00  0.00    -0.159 F  
HETATM   41  O   UNL     1      -7.718  16.868  67.990  1.00  0.00    -0.169 OA 
HETATM   42  F   UNL     1      -6.684  18.992  69.713  1.00  0.00    -0.288 F  
HETATM   43  F   UNL     1      -5.140  17.586  70.339  1.00  0.00    -0.170 F  
HETATM   44  C   UNL     1      -6.827  16.752  68.835  1.00  0.00    -0.198 C  
ENDBRANCH  34  37
ENDBRANCH  27  28
ENDBRANCH   1  27
BRANCH   5  45
HETATM   45  C   UNL     1     -11.120  16.418  65.088  1.00  0.00    -0.170 C  
HETATM   46  O   UNL     1     -11.559  16.483  63.928  1.00  0.00    -1.175 OA 
BRANCH  45  47
HETATM   47  C   UNL     1     -10.545  17.691  65.713  1.00  0.00    -0.177 C  
BRANCH  47  48
HETATM   48  O   UNL     1     -10.784  17.936  67.089  1.00  0.00    -0.331 OA 
BRANCH  48  49
HETATM   49  C   UNL     1     -10.199  19.069  67.561  1.00  0.00    -0.394 C  
HETATM   50  O   UNL     1     -10.290  19.481  68.707  1.00  0.00    -0.385 OA 
BRANCH  49  51
HETATM   51  C   UNL     1      -9.387  19.723  66.473  1.00  0.00    -0.486 C  
BRANCH  51  52
HETATM   52  C   UNL     1      -8.244  20.556  67.049  1.00  0.00    -0.314 C  
BRANCH  52  53
HETATM   53  C   UNL     1      -6.938  20.357  66.276  1.00  0.00    -0.291 C  
HETATM   54  C   UNL     1      -6.841  18.972  65.665  1.00  0.00    -0.305 C  
ENDBRANCH  52  53
ENDBRANCH  51  52
ENDBRANCH  49  51
ENDBRANCH  48  49
ENDBRANCH  47  48
ENDBRANCH  45  47
ENDBRANCH   5  45
BRANCH  15  55
HETATM   55  O   UNL     1      -9.134   5.864  67.343  1.00  0.00    -0.112 OA 
HETATM   56  C   UNL     1      -9.744   4.576  67.346  1.00  0.00    -0.178 C  
ENDBRANCH  15  55
TORSDOF 11
ENDMDL
MODEL       39
REMARK 921   NORMALIZED FREE ENERGY PREDICTED BY IDOCK:   -4.46 KCAL/MOL
REMARK 922        TOTAL FREE ENERGY PREDICTED BY IDOCK:  -10.88 KCAL/MOL
REMARK 923 INTER-LIGAND FREE ENERGY PREDICTED BY IDOCK:   -8.85 KCAL/MOL
REMARK 924 INTRA-LIGAND FREE ENERGY PREDICTED BY IDOCK:   -2.03 KCAL/MOL
REMARK 927      BINDING AFFINITY PREDICTED BY RF-SCORE:    0.00 PKD
ROOT
HETATM    1  C   UNL     1      -9.782  10.374  69.516  1.00  0.00    -0.170 C  
HETATM    2  O   UNL     1      -7.276   5.260  66.325  1.00  0.00    -0.071 OA 
HETATM    3  C   UNL     1     -10.198   9.926  70.947  1.00  0.00    -0.039 C  
HETATM    4  C   UNL     1      -7.166   6.472  66.132  1.00  0.00    -0.072 C  
HETATM    5  C   UNL     1     -10.874   8.559  70.907  1.00  0.00    -0.232 C  
HETATM    6  O   UNL     1     -12.030   8.689  70.060  1.00  0.00    -0.330 OA 
HETATM    7  C   UNL     1      -9.846   7.525  70.351  1.00  0.00    -0.183 C  
HETATM    8  C   UNL     1      -6.554   6.964  64.854  1.00  0.00    -0.043 A  
HETATM    9  C   UNL     1      -6.242   6.053  63.832  1.00  0.00    -0.029 A  
HETATM   10  C   UNL     1      -9.037   7.969  69.131  1.00  0.00    -0.145 A  
HETATM   11  C   UNL     1      -5.698   6.498  62.624  1.00  0.00    -0.023 A  
HETATM   12  C   UNL     1      -5.430   7.851  62.432  1.00  0.00    -0.064 A  
HETATM   13  H   UNL     1      -8.347  11.721  68.134  1.00  0.00     0.000 HD 
HETATM   14  H   UNL     1     -12.451   7.838  70.035  1.00  0.00     0.000 HD 
HETATM   15  C   UNL     1      -5.703   8.771  63.450  1.00  0.00    -0.076 A  
HETATM   16  O   UNL     1      -7.944  11.089  67.550  1.00  0.00    -0.112 OA 
HETATM   17  C   UNL     1      -8.418   7.034  68.266  1.00  0.00    -0.123 A  
HETATM   18  C   UNL     1      -6.299   8.326  64.658  1.00  0.00    -0.064 A  
HETATM   19  O   UNL     1      -8.594   5.702  68.558  1.00  0.00    -0.107 OA 
HETATM   20  C   UNL     1      -7.687   7.443  67.119  1.00  0.00    -0.115 A  
HETATM   21  O   UNL     1      -6.369  10.455  65.707  1.00  0.00    -0.105 OA 
HETATM   22  C   UNL     1      -8.890   9.339  68.843  1.00  0.00    -0.135 A  
HETATM   23  C   UNL     1      -8.079   9.737  67.759  1.00  0.00    -0.113 A  
HETATM   24  C   UNL     1      -6.677   9.265  65.740  1.00  0.00    -0.076 C  
HETATM   25  C   UNL     1      -7.482   8.801  66.895  1.00  0.00    -0.090 A  
HETATM   26  H   UNL     1      -8.179   5.075  67.978  1.00  0.00     0.000 HD 
ENDROOT
BRANCH   1  27
HETATM   27  O   UNL     1     -10.826  10.500  68.536  1.00  0.00    -0.203 OA 
BRANCH  27  28
HETATM   28  C   UNL     1     -11.728  11.592  68.605  1.00  0.00    -0.325 C  
HETATM   29  O   UNL     1     -12.345  11.793  67.312  1.00  0.00    -0.211 OA 
HETATM   30  C   UNL     1     -12.173  12.469  64.964  1.00  0.00    -0.519 C  
HETATM   31  C   UNL     1     -10.970  13.721  66.768  1.00  0.00    -0.304 C  
HETATM   32  O   UNL     1     -12.068  14.608  67.048  1.00  0.00    -0.447 OA 
HETATM   33  H   UNL     1     -12.575  14.759  66.259  1.00  0.00     0.000 HD 
HETATM   34  C   UNL     1     -10.149  13.477  68.041  1.00  0.00    -0.244 C  
HETATM   35  C   UNL     1     -11.473  12.347  66.316  1.00  0.00    -0.371 C  
HETATM   36  C   UNL     1     -11.044  12.869  69.123  1.00  0.00    -0.245 C  
BRANCH  34  37
HETATM   37  N   UNL     1      -9.466  14.693  68.475  1.00  0.00    -0.212 N  
HETATM   38  H   UNL     1      -9.939  15.357  69.087  1.00  0.00     0.000 HD 
HETATM   39  C   UNL     1      -7.556  16.288  68.477  1.00  0.00    -0.179 C  
HETATM   40  F   UNL     1      -6.516  16.142  69.339  1.00  0.00    -0.140 F  
HETATM   41  O   UNL     1      -7.549  14.121  67.353  1.00  0.00    -0.182 OA 
HETATM   42  F   UNL     1      -7.094  17.008  67.417  1.00  0.00    -0.148 F  
HETATM   43  F   UNL     1      -8.474  17.080  69.104  1.00  0.00    -0.243 F  
HETATM   44  C   UNL     1      -8.159  14.939  68.045  1.00  0.00    -0.136 C  
ENDBRANCH  34  37
ENDBRANCH  27  28
ENDBRANCH   1  27
BRANCH   5  45
HETATM   45  C   UNL     1     -11.576   7.962  72.150  1.00  0.00    -0.328 C  
HETATM   46  O   UNL     1     -12.521   8.586  72.662  1.00  0.00    -0.370 OA 
BRANCH  45  47
HETATM   47  C   UNL     1     -10.962   6.806  72.944  1.00  0.00    -0.263 C  
BRANCH  47  48
HETATM   48  O   UNL     1     -11.577   5.531  72.866  1.00  0.00    -0.297 OA 
BRANCH  48  49
HETATM   49  C   UNL     1     -10.731   4.493  73.097  1.00  0.00    -0.235 C  
HETATM   50  O   UNL     1     -11.072   3.328  73.234  1.00  0.00    -0.181 OA 
BRANCH  49  51
HETATM   51  C   UNL     1      -9.305   4.981  73.118  1.00  0.00    -0.136 C  
BRANCH  51  52
HETATM   52  C   UNL     1      -8.318   3.842  72.877  1.00  0.00    -0.095 C  
BRANCH  52  53
HETATM   53  C   UNL     1      -6.868   4.332  72.846  1.00  0.00    -0.056 C  
HETATM   54  C   UNL     1      -6.506   5.128  74.086  1.00  0.00    -0.069 C  
ENDBRANCH  52  53
ENDBRANCH  51  52
ENDBRANCH  49  51
ENDBRANCH  48  49
ENDBRANCH  47  48
ENDBRANCH  45  47
ENDBRANCH   5  45
BRANCH  15  55
HETATM   55  O   UNL     1      -5.480  10.115  63.282  1.00  0.00    -0.100 OA 
HETATM   56  C   UNL     1      -6.309  10.806  62.352  1.00  0.00    -0.097 C  
ENDBRANCH  15  55
TORSDOF 11
ENDMDL
MODEL       40
REMARK 921   NORMALIZED FREE ENERGY PREDICTED BY IDOCK:   -4.40 KCAL/MOL
REMARK 922        TOTAL FREE ENERGY PREDICTED BY IDOCK:  -10.77 KCAL/MOL
REMARK 923 INTER-LIGAND FREE ENERGY PREDICTED BY IDOCK:   -8.47 KCAL/MOL
REMARK 924 INTRA-LIGAND FREE ENERGY PREDICTED BY IDOCK:   -2.31 KCAL/MOL
REMARK 927      BINDING AFFINITY PREDICTED BY RF-SCORE:    0.00 PKD
ROOT
HETATM    1  C   UNL     1      -9.646   9.748  70.192  1.00  0.00    -0.237 C  
HETATM    2  O   UNL     1      -9.328   5.181  65.538  1.00  0.00    -0.161 OA 
HETATM    3  C   UNL     1     -10.376   9.159  71.433  1.00  0.00    -0.409 C  
HETATM    4  C   UNL     1      -8.671   6.208  65.715  1.00  0.00    -0.145 C  
HETATM    5  C   UNL     1     -11.580   8.325  71.003  1.00  0.00    -0.275 C  
HETATM    6  O   UNL     1     -12.454   9.200  70.269  1.00  0.00    -0.347 OA 
HETATM    7  C   UNL     1     -11.062   7.138  70.132  1.00  0.00    -0.301 C  
HETATM    8  C   UNL     1      -7.764   6.703  64.628  1.00  0.00    -0.112 A  
HETATM    9  C   UNL     1      -7.776   6.077  63.370  1.00  0.00    -0.096 A  
HETATM   10  C   UNL     1     -10.008   7.485  69.079  1.00  0.00    -0.175 A  
HETATM   11  C   UNL     1      -6.958   6.544  62.336  1.00  0.00    -0.039 A  
HETATM   12  C   UNL     1      -6.097   7.617  62.553  1.00  0.00    -0.064 A  
HETATM   13  H   UNL     1      -7.617  10.617  69.238  1.00  0.00     0.000 HD 
HETATM   14  H   UNL     1     -13.203   8.682  70.001  1.00  0.00     0.000 HD 
HETATM   15  C   UNL     1      -6.047   8.233  63.808  1.00  0.00    -0.071 A  
HETATM   16  O   UNL     1      -7.473  10.063  68.480  1.00  0.00    -0.083 OA 
HETATM   17  C   UNL     1      -9.775   6.656  67.955  1.00  0.00    -0.122 A  
HETATM   18  C   UNL     1      -6.911   7.791  64.843  1.00  0.00    -0.051 A  
HETATM   19  O   UNL     1     -10.555   5.530  67.838  1.00  0.00    -0.205 OA 
HETATM   20  C   UNL     1      -8.814   6.989  66.964  1.00  0.00    -0.124 A  
HETATM   21  O   UNL     1      -6.146   9.325  66.486  1.00  0.00    -0.061 OA 
HETATM   22  C   UNL     1      -9.236   8.655  69.212  1.00  0.00    -0.150 A  
HETATM   23  C   UNL     1      -8.216   8.925  68.275  1.00  0.00    -0.121 A  
HETATM   24  C   UNL     1      -6.952   8.452  66.168  1.00  0.00    -0.072 C  
HETATM   25  C   UNL     1      -8.004   8.105  67.153  1.00  0.00    -0.105 A  
HETATM   26  H   UNL     1     -10.399   4.974  67.083  1.00  0.00     0.000 HD 
ENDROOT
BRANCH   1  27
HETATM   27  O   UNL     1     -10.408  10.606  69.326  1.00  0.00    -0.207 OA 
BRANCH  27  28
HETATM   28  C   UNL     1      -9.949  11.921  69.058  1.00  0.00     0.100 C  
HETATM   29  O   UNL     1     -10.610  12.855  69.944  1.00  0.00     0.602 OA 
HETATM   30  C   UNL     1     -12.640  14.028  70.653  1.00  0.00    -0.414 C  
HETATM   31  C   UNL     1     -12.128  13.666  68.229  1.00  0.00    -0.271 C  
HETATM   32  O   UNL     1     -11.358  14.872  68.090  1.00  0.00    -0.285 OA 
HETATM   33  H   UNL     1     -11.685  15.539  68.682  1.00  0.00     0.000 HD 
HETATM   34  C   UNL     1     -11.601  12.588  67.272  1.00  0.00    -0.367 C  
HETATM   35  C   UNL     1     -11.994  13.085  69.639  1.00  0.00    -0.302 C  
HETATM   36  C   UNL     1     -10.130  12.302  67.579  1.00  0.00    -0.206 C  
BRANCH  34  37
HETATM   37  N   UNL     1     -11.839  12.952  65.878  1.00  0.00    -0.402 N  
HETATM   38  H   UNL     1     -12.195  13.878  65.643  1.00  0.00     0.000 HD 
HETATM   39  C   UNL     1     -11.944  12.462  63.441  1.00  0.00    -0.504 C  
HETATM   40  F   UNL     1     -10.853  12.612  62.644  1.00  0.00     0.093 F  
HETATM   41  O   UNL     1     -11.089  10.918  65.127  1.00  0.00    -0.048 OA 
HETATM   42  F   UNL     1     -12.766  11.569  62.823  1.00  0.00    -0.500 F  
HETATM   43  F   UNL     1     -12.602  13.657  63.429  1.00  0.00    -0.453 F  
HETATM   44  C   UNL     1     -11.575  12.022  64.869  1.00  0.00    -0.273 C  
ENDBRANCH  34  37
ENDBRANCH  27  28
ENDBRANCH   1  27
BRANCH   5  45
HETATM   45  C   UNL     1     -12.609   7.793  72.029  1.00  0.00    -0.269 C  
HETATM   46  O   UNL     1     -13.372   8.600  72.585  1.00  0.00    -0.334 OA 
BRANCH  45  47
HETATM   47  C   UNL     1     -12.515   6.377  72.603  1.00  0.00     0.347 C  
BRANCH  47  48
HETATM   48  O   UNL     1     -11.276   5.948  73.144  1.00  0.00    -0.251 OA 
BRANCH  48  49
HETATM   49  C   UNL     1     -11.063   4.609  73.046  1.00  0.00    -0.245 C  
HETATM   50  O   UNL     1     -11.838   3.746  73.429  1.00  0.00    -0.048 OA 
BRANCH  49  51
HETATM   51  C   UNL     1      -9.748   4.343  72.360  1.00  0.00    -0.210 C  
BRANCH  51  52
HETATM   52  C   UNL     1      -8.617   5.162  72.977  1.00  0.00    -0.114 C  
BRANCH  52  53
HETATM   53  C   UNL     1      -7.665   5.722  71.917  1.00  0.00    -0.105 C  
HETATM   54  C   UNL     1      -6.448   6.386  72.534  1.00  0.00    -0.059 C  
ENDBRANCH  52  53
ENDBRANCH  51  52
ENDBRANCH  49  51
ENDBRANCH  48  49
ENDBRANCH  47  48
ENDBRANCH  45  47
ENDBRANCH   5  45
BRANCH  15  55
HETATM   55  O   UNL     1      -5.234   9.312  64.046  1.00  0.00    -0.058 OA 
HETATM   56  C   UNL     1      -5.515  10.515  63.336  1.00  0.00    -0.158 C  
ENDBRANCH  15  55
TORSDOF 11
ENDMDL
MODEL       41
REMARK 921   NORMALIZED FREE ENERGY PREDICTED BY IDOCK:   -4.28 KCAL/MOL
REMARK 922        TOTAL FREE ENERGY PREDICTED BY IDOCK:  -10.58 KCAL/MOL
REMARK 923 INTER-LIGAND FREE ENERGY PREDICTED BY IDOCK:   -8.51 KCAL/MOL
REMARK 924 INTRA-LIGAND FREE ENERGY PREDICTED BY IDOCK:   -2.07 KCAL/MOL
REMARK 927      BINDING AFFINITY PREDICTED BY RF-SCORE:    0.00 PKD
ROOT
HETATM    1  C   UNL     1      -6.983  12.504  68.079  1.00  0.00    -0.095 C  
HETATM    2  O   UNL     1      -6.167   8.005  72.739  1.00  0.00    -0.061 OA 
HETATM    3  C   UNL     1      -6.035  13.704  68.360  1.00  0.00    -0.097 C  
HETATM    4  C   UNL     1      -6.639   7.923  71.604  1.00  0.00    -0.044 C  
HETATM    5  C   UNL     1      -6.021  14.042  69.848  1.00  0.00    -0.133 C  
HETATM    6  O   UNL     1      -7.374  14.367  70.215  1.00  0.00    -0.370 OA 
HETATM    7  C   UNL     1      -5.480  12.800  70.623  1.00  0.00    -0.170 C  
HETATM    8  C   UNL     1      -7.373   6.681  71.197  1.00  0.00    -0.079 A  
HETATM    9  C   UNL     1      -7.640   5.683  72.149  1.00  0.00    -0.101 A  
HETATM   10  C   UNL     1      -6.039  11.443  70.193  1.00  0.00    -0.154 A  
HETATM   11  C   UNL     1      -8.349   4.532  71.793  1.00  0.00    -0.108 A  
HETATM   12  C   UNL     1      -8.771   4.346  70.479  1.00  0.00    -0.119 A  
HETATM   13  H   UNL     1      -7.583  10.665  66.649  1.00  0.00     0.000 HD 
HETATM   14  H   UNL     1      -7.366  14.578  71.141  1.00  0.00     0.000 HD 
HETATM   15  C   UNL     1      -8.486   5.313  69.508  1.00  0.00    -0.094 A  
HETATM   16  O   UNL     1      -7.566   9.915  67.232  1.00  0.00    -0.088 OA 
HETATM   17  C   UNL     1      -6.001  10.316  71.050  1.00  0.00    -0.016 A  
HETATM   18  C   UNL     1      -7.809   6.503  69.879  1.00  0.00    -0.115 A  
HETATM   19  O   UNL     1      -5.457  10.499  72.299  1.00  0.00    -0.311 OA 
HETATM   20  C   UNL     1      -6.541   9.060  70.662  1.00  0.00    -0.060 A  
HETATM   21  O   UNL     1      -7.774   7.464  67.707  1.00  0.00    -0.107 OA 
HETATM   22  C   UNL     1      -6.609  11.287  68.916  1.00  0.00    -0.068 A  
HETATM   23  C   UNL     1      -7.052  10.012  68.504  1.00  0.00    -0.071 A  
HETATM   24  C   UNL     1      -7.546   7.592  68.909  1.00  0.00    -0.101 C  
HETATM   25  C   UNL     1      -7.026   8.902  69.368  1.00  0.00    -0.053 A  
HETATM   26  H   UNL     1      -5.432   9.743  72.874  1.00  0.00     0.000 HD 
ENDROOT
BRANCH   1  27
HETATM   27  O   UNL     1      -8.366  12.658  68.442  1.00  0.00    -0.163 OA 
BRANCH  27  28
HETATM   28  C   UNL     1      -9.377  12.424  67.475  1.00  0.00    -0.181 C  
HETATM   29  O   UNL     1     -10.029  13.674  67.145  1.00  0.00    -0.239 OA 
HETATM   30  C   UNL     1     -11.486  15.536  67.783  1.00  0.00    -0.247 C  
HETATM   31  C   UNL     1     -12.005  13.185  68.472  1.00  0.00    -0.289 C  
HETATM   32  O   UNL     1     -12.752  12.876  67.282  1.00  0.00     0.213 OA 
HETATM   33  H   UNL     1     -13.178  13.659  66.951  1.00  0.00     0.000 HD 
HETATM   34  C   UNL     1     -11.317  11.922  69.007  1.00  0.00    -0.279 C  
HETATM   35  C   UNL     1     -10.886  14.187  68.176  1.00  0.00    -0.248 C  
HETATM   36  C   UNL     1     -10.379  11.355  67.940  1.00  0.00    -0.204 C  
BRANCH  34  37
HETATM   37  N   UNL     1     -12.293  10.950  69.494  1.00  0.00    -0.456 N  
HETATM   38  H   UNL     1     -13.175  10.817  69.001  1.00  0.00     0.000 HD 
HETATM   39  C   UNL     1     -13.132   9.274  71.129  1.00  0.00    -0.190 C  
HETATM   40  F   UNL     1     -12.805   7.959  71.022  1.00  0.00    -0.284 F  
HETATM   41  O   UNL     1     -10.923  10.307  71.218  1.00  0.00    -0.057 OA 
HETATM   42  F   UNL     1     -13.455   9.497  72.433  1.00  0.00    -0.449 F  
HETATM   43  F   UNL     1     -14.284   9.448  70.417  1.00  0.00    -0.044 F  
HETATM   44  C   UNL     1     -12.008  10.204  70.640  1.00  0.00    -0.332 C  
ENDBRANCH  34  37
ENDBRANCH  27  28
ENDBRANCH   1  27
BRANCH   5  45
HETATM   45  C   UNL     1      -5.332  15.318  70.386  1.00  0.00    -0.132 C  
HETATM   46  O   UNL     1      -5.128  15.419  71.607  1.00  0.00    -0.166 OA 
BRANCH  45  47
HETATM   47  C   UNL     1      -5.175  16.573  69.523  1.00  0.00    -0.134 C  
BRANCH  47  48
HETATM   48  O   UNL     1      -5.941  16.676  68.335  1.00  0.00    -0.120 OA 
BRANCH  48  49
HETATM   49  C   UNL     1      -6.976  17.553  68.417  1.00  0.00    -0.211 C  
HETATM   50  O   UNL     1      -7.405  18.036  69.453  1.00  0.00    -0.097 OA 
BRANCH  49  51
HETATM   51  C   UNL     1      -7.493  17.874  67.038  1.00  0.00    -0.223 C  
BRANCH  51  52
HETATM   52  C   UNL     1      -9.019  17.903  67.003  1.00  0.00    -0.254 C  
BRANCH  52  53
HETATM   53  C   UNL     1      -9.555  19.038  66.127  1.00  0.00    -0.291 C  
HETATM   54  C   UNL     1      -9.995  20.236  66.949  1.00  0.00    -0.592 C  
ENDBRANCH  52  53
ENDBRANCH  51  52
ENDBRANCH  49  51
ENDBRANCH  48  49
ENDBRANCH  47  48
ENDBRANCH  45  47
ENDBRANCH   5  45
BRANCH  15  55
HETATM   55  O   UNL     1      -8.914   5.177  68.211  1.00  0.00    -0.108 OA 
HETATM   56  C   UNL     1     -10.309   5.332  67.961  1.00  0.00    -0.118 C  
ENDBRANCH  15  55
TORSDOF 11
ENDMDL
MODEL       42
REMARK 921   NORMALIZED FREE ENERGY PREDICTED BY IDOCK:   -4.19 KCAL/MOL
REMARK 922        TOTAL FREE ENERGY PREDICTED BY IDOCK:  -10.43 KCAL/MOL
REMARK 923 INTER-LIGAND FREE ENERGY PREDICTED BY IDOCK:   -9.14 KCAL/MOL
REMARK 924 INTRA-LIGAND FREE ENERGY PREDICTED BY IDOCK:   -1.29 KCAL/MOL
REMARK 927      BINDING AFFINITY PREDICTED BY RF-SCORE:    0.00 PKD
ROOT
HETATM    1  C   UNL     1      -8.269  10.072  68.246  1.00  0.00    -0.106 C  
HETATM    2  O   UNL     1     -12.668   7.041  71.999  1.00  0.00    -0.283 OA 
HETATM    3  C   UNL     1      -8.836  11.456  67.815  1.00  0.00    -0.143 C  
HETATM    4  C   UNL     1     -11.454   6.874  71.872  1.00  0.00    -0.272 C  
HETATM    5  C   UNL     1     -10.310  11.340  67.439  1.00  0.00    -0.200 C  
HETATM    6  O   UNL     1     -10.391  10.398  66.354  1.00  0.00    -0.236 OA 
HETATM    7  C   UNL     1     -11.096  10.861  68.700  1.00  0.00    -0.305 C  
HETATM    8  C   UNL     1     -10.809   5.660  72.472  1.00  0.00    -0.299 A  
HETATM    9  C   UNL     1     -11.606   4.657  73.047  1.00  0.00    -0.208 A  
HETATM   10  C   UNL     1     -10.460   9.721  69.496  1.00  0.00    -0.250 A  
HETATM   11  C   UNL     1     -11.023   3.505  73.584  1.00  0.00    -0.329 A  
HETATM   12  C   UNL     1      -9.638   3.355  73.585  1.00  0.00    -0.137 A  
HETATM   13  H   UNL     1      -6.617   8.836  69.482  1.00  0.00     0.000 HD 
HETATM   14  H   UNL     1     -11.309  10.326  66.120  1.00  0.00     0.000 HD 
HETATM   15  C   UNL     1      -8.825   4.358  73.047  1.00  0.00    -0.114 A  
HETATM   16  O   UNL     1      -7.136   8.281  70.052  1.00  0.00    -0.043 OA 
HETATM   17  C   UNL     1     -11.223   8.899  70.362  1.00  0.00    -0.230 A  
HETATM   18  C   UNL     1      -9.418   5.504  72.458  1.00  0.00    -0.160 A  
HETATM   19  O   UNL     1     -12.571   9.158  70.440  1.00  0.00    -0.405 OA 
HETATM   20  C   UNL     1     -10.638   7.826  71.085  1.00  0.00    -0.235 A  
HETATM   21  O   UNL     1      -7.380   6.572  71.868  1.00  0.00    -0.088 OA 
HETATM   22  C   UNL     1      -9.080   9.464  69.383  1.00  0.00    -0.162 A  
HETATM   23  C   UNL     1      -8.493   8.459  70.181  1.00  0.00    -0.126 A  
HETATM   24  C   UNL     1      -8.609   6.562  71.809  1.00  0.00    -0.124 C  
HETATM   25  C   UNL     1      -9.261   7.638  71.025  1.00  0.00    -0.152 A  
HETATM   26  H   UNL     1     -13.083   8.607  71.021  1.00  0.00     0.000 HD 
ENDROOT
BRANCH   1  27
HETATM   27  O   UNL     1      -8.328   9.007  67.281  1.00  0.00    -0.110 OA 
BRANCH  27  28
HETATM   28  C   UNL     1      -7.128   8.498  66.722  1.00  0.00    -0.074 C  
HETATM   29  O   UNL     1      -7.136   8.706  65.290  1.00  0.00    -0.080 OA 
HETATM   30  C   UNL     1      -8.042   8.177  63.077  1.00  0.00    -0.135 C  
HETATM   31  C   UNL     1      -7.663   6.388  64.787  1.00  0.00    -0.105 C  
HETATM   32  O   UNL     1      -6.300   6.142  64.400  1.00  0.00    -0.029 OA 
HETATM   33  H   UNL     1      -6.189   6.308  63.471  1.00  0.00     0.000 HD 
HETATM   34  C   UNL     1      -7.843   6.119  66.287  1.00  0.00    -0.104 C  
HETATM   35  C   UNL     1      -8.041   7.856  64.571  1.00  0.00    -0.114 C  
HETATM   36  C   UNL     1      -6.905   7.022  67.090  1.00  0.00    -0.065 C  
BRANCH  34  37
HETATM   37  N   UNL     1      -7.683   4.700  66.596  1.00  0.00    -0.090 N  
HETATM   38  H   UNL     1      -7.138   4.099  65.979  1.00  0.00     0.000 HD 
HETATM   39  C   UNL     1      -8.134   2.653  67.936  1.00  0.00    -0.063 C  
HETATM   40  F   UNL     1      -7.373   2.335  69.017  1.00  0.00    -0.043 F  
HETATM   41  O   UNL     1      -8.894   4.894  68.534  1.00  0.00    -0.100 OA 
HETATM   42  F   UNL     1      -9.337   2.037  68.104  1.00  0.00    -0.173 F  
HETATM   43  F   UNL     1      -7.548   2.056  66.858  1.00  0.00    -0.061 F  
HETATM   44  C   UNL     1      -8.281   4.173  67.744  1.00  0.00    -0.094 C  
ENDBRANCH  34  37
ENDBRANCH  27  28
ENDBRANCH   1  27
BRANCH   5  45
HETATM   45  C   UNL     1     -11.075  12.510  66.776  1.00  0.00    -0.279 C  
HETATM   46  O   UNL     1     -12.094  12.951  67.333  1.00  0.00    -0.333 OA 
BRANCH  45  47
HETATM   47  C   UNL     1     -10.804  12.931  65.329  1.00  0.00    -0.292 C  
BRANCH  47  48
HETATM   48  O   UNL     1     -10.559  14.301  65.059  1.00  0.00    -0.375 OA 
BRANCH  48  49
HETATM   49  C   UNL     1      -9.644  14.874  65.885  1.00  0.00    -0.308 C  
HETATM   50  O   UNL     1      -9.020  14.286  66.755  1.00  0.00    -0.251 OA 
BRANCH  49  51
HETATM   51  C   UNL     1      -9.479  16.332  65.543  1.00  0.00     0.076 C  
BRANCH  51  52
HETATM   52  C   UNL     1     -10.001  17.233  66.660  1.00  0.00    -0.296 C  
BRANCH  52  53
HETATM   53  C   UNL     1     -10.605  18.531  66.120  1.00  0.00    -0.377 C  
HETATM   54  C   UNL     1     -10.071  19.754  66.843  1.00  0.00    -0.559 C  
ENDBRANCH  52  53
ENDBRANCH  51  52
ENDBRANCH  49  51
ENDBRANCH  48  49
ENDBRANCH  47  48
ENDBRANCH  45  47
ENDBRANCH   5  45
BRANCH  15  55
HETATM   55  O   UNL     1      -7.459   4.228  73.002  1.00  0.00    -0.075 OA 
HETATM   56  C   UNL     1      -6.932   3.010  72.484  1.00  0.00    -0.031 C  
ENDBRANCH  15  55
TORSDOF 11
ENDMDL
MODEL       43
REMARK 921   NORMALIZED FREE ENERGY PREDICTED BY IDOCK:   -4.15 KCAL/MOL
REMARK 922        TOTAL FREE ENERGY PREDICTED BY IDOCK:  -10.38 KCAL/MOL
REMARK 923 INTER-LIGAND FREE ENERGY PREDICTED BY IDOCK:   -8.88 KCAL/MOL
REMARK 924 INTRA-LIGAND FREE ENERGY PREDICTED BY IDOCK:   -1.50 KCAL/MOL
REMARK 927      BINDING AFFINITY PREDICTED BY RF-SCORE:    0.00 PKD
ROOT
HETATM    1  C   UNL     1      -7.643  11.324  66.894  1.00  0.00    -0.148 C  
HETATM    2  O   UNL     1     -12.661   9.537  70.670  1.00  0.00    -0.155 OA 
HETATM    3  C   UNL     1      -7.192  10.106  66.038  1.00  0.00    -0.118 C  
HETATM    4  C   UNL     1     -12.275  10.648  70.302  1.00  0.00    -0.334 C  
HETATM    5  C   UNL     1      -7.189   8.830  66.876  1.00  0.00    -0.079 C  
HETATM    6  O   UNL     1      -6.276   9.050  67.966  1.00  0.00    -0.050 OA 
HETATM    7  C   UNL     1      -8.647   8.569  67.368  1.00  0.00    -0.127 C  
HETATM    8  C   UNL     1     -12.850  11.877  70.939  1.00  0.00    -0.220 A  
HETATM    9  C   UNL     1     -13.712  11.756  72.041  1.00  0.00     0.022 A  
HETATM   10  C   UNL     1      -9.405   9.785  67.903  1.00  0.00    -0.139 A  
HETATM   11  C   UNL     1     -14.234  12.893  72.665  1.00  0.00     0.256 A  
HETATM   12  C   UNL     1     -13.928  14.161  72.180  1.00  0.00    -0.626 A  
HETATM   13  H   UNL     1      -8.598  13.530  66.965  1.00  0.00     0.000 HD 
HETATM   14  H   UNL     1      -6.273   8.256  68.488  1.00  0.00     0.000 HD 
HETATM   15  C   UNL     1     -13.097  14.303  71.064  1.00  0.00    -0.328 A  
HETATM   16  O   UNL     1      -9.337  13.433  67.555  1.00  0.00    -0.202 OA 
HETATM   17  C   UNL     1     -10.518   9.650  68.767  1.00  0.00    -0.215 A  
HETATM   18  C   UNL     1     -12.529  13.153  70.459  1.00  0.00    -0.322 A  
HETATM   19  O   UNL     1     -10.878   8.372  69.125  1.00  0.00    -0.394 OA 
HETATM   20  C   UNL     1     -11.209  10.778  69.283  1.00  0.00    -0.333 A  
HETATM   21  O   UNL     1     -11.354  14.314  68.753  1.00  0.00    -0.246 OA 
HETATM   22  C   UNL     1      -9.003  11.084  67.536  1.00  0.00    -0.137 A  
HETATM   23  C   UNL     1      -9.757  12.193  67.975  1.00  0.00    -0.203 A  
HETATM   24  C   UNL     1     -11.585  13.247  69.321  1.00  0.00    -0.314 C  
HETATM   25  C   UNL     1     -10.851  12.050  68.847  1.00  0.00    -0.252 A  
HETATM   26  H   UNL     1     -11.625   8.281  69.706  1.00  0.00     0.000 HD 
ENDROOT
BRANCH   1  27
HETATM   27  O   UNL     1      -6.855  11.639  68.056  1.00  0.00    -0.067 OA 
BRANCH  27  28
HETATM   28  C   UNL     1      -5.813  12.597  67.959  1.00  0.00    -0.091 C  
HETATM   29  O   UNL     1      -5.253  12.836  69.272  1.00  0.00    -0.069 OA 
HETATM   30  C   UNL     1      -5.474  13.743  71.536  1.00  0.00    -0.222 C  
HETATM   31  C   UNL     1      -6.389  14.966  69.552  1.00  0.00    -0.131 C  
HETATM   32  O   UNL     1      -5.168  15.675  69.278  1.00  0.00    -0.100 OA 
HETATM   33  H   UNL     1      -4.692  15.832  70.085  1.00  0.00     0.000 HD 
HETATM   34  C   UNL     1      -7.157  14.712  68.248  1.00  0.00    -0.115 C  
HETATM   35  C   UNL     1      -6.102  13.587  70.152  1.00  0.00    -0.123 C  
HETATM   36  C   UNL     1      -6.288  13.896  67.288  1.00  0.00     0.357 C  
BRANCH  34  37
HETATM   37  N   UNL     1      -7.644  15.960  67.666  1.00  0.00    -0.139 N  
HETATM   38  H   UNL     1      -7.245  16.310  66.796  1.00  0.00     0.000 HD 
HETATM   39  C   UNL     1      -9.044  18.017  67.673  1.00  0.00    -0.255 C  
HETATM   40  F   UNL     1     -10.304  18.014  67.163  1.00  0.00    -0.318 F  
HETATM   41  O   UNL     1      -9.198  16.232  69.331  1.00  0.00    -0.223 OA 
HETATM   42  F   UNL     1      -8.978  19.045  68.563  1.00  0.00    -0.333 F  
HETATM   43  F   UNL     1      -8.209  18.350  66.645  1.00  0.00    -0.235 F  
HETATM   44  C   UNL     1      -8.661  16.669  68.310  1.00  0.00    -0.216 C  
ENDBRANCH  34  37
ENDBRANCH  27  28
ENDBRANCH   1  27
BRANCH   5  45
HETATM   45  C   UNL     1      -6.586   7.509  66.343  1.00  0.00    -0.053 C  
HETATM   46  O   UNL     1      -6.293   7.427  65.139  1.00  0.00    -0.037 OA 
BRANCH  45  47
HETATM   47  C   UNL     1      -6.625   6.218  67.165  1.00  0.00    -0.058 C  
BRANCH  47  48
HETATM   48  O   UNL     1      -7.123   5.041  66.551  1.00  0.00    -0.066 OA 
BRANCH  48  49
HETATM   49  C   UNL     1      -8.476   4.916  66.608  1.00  0.00    -0.106 C  
HETATM   50  O   UNL     1      -9.135   4.893  67.636  1.00  0.00    -0.110 OA 
BRANCH  49  51
HETATM   51  C   UNL     1      -9.048   4.852  65.215  1.00  0.00    -0.154 C  
BRANCH  51  52
HETATM   52  C   UNL     1     -10.423   4.188  65.204  1.00  0.00    -0.174 C  
BRANCH  52  53
HETATM   53  C   UNL     1     -10.772   3.606  63.832  1.00  0.00    -0.266 C  
HETATM   54  C   UNL     1     -10.269   2.184  63.670  1.00  0.00    -0.135 C  
ENDBRANCH  52  53
ENDBRANCH  51  52
ENDBRANCH  49  51
ENDBRANCH  48  49
ENDBRANCH  47  48
ENDBRANCH  45  47
ENDBRANCH   5  45
BRANCH  15  55
HETATM   55  O   UNL     1     -12.750  15.540  70.579  1.00  0.00    -0.434 OA 
HETATM   56  C   UNL     1     -11.871  16.332  71.372  1.00  0.00    -0.339 C  
ENDBRANCH  15  55
TORSDOF 11
ENDMDL
MODEL       44
REMARK 921   NORMALIZED FREE ENERGY PREDICTED BY IDOCK:   -4.03 KCAL/MOL
REMARK 922        TOTAL FREE ENERGY PREDICTED BY IDOCK:  -10.17 KCAL/MOL
REMARK 923 INTER-LIGAND FREE ENERGY PREDICTED BY IDOCK:   -8.18 KCAL/MOL
REMARK 924 INTRA-LIGAND FREE ENERGY PREDICTED BY IDOCK:   -2.00 KCAL/MOL
REMARK 927      BINDING AFFINITY PREDICTED BY RF-SCORE:    0.00 PKD
ROOT
HETATM    1  C   UNL     1     -11.085  11.111  67.412  1.00  0.00    -0.307 C  
HETATM    2  O   UNL     1      -5.126   8.468  67.048  1.00  0.00    -0.031 OA 
HETATM    3  C   UNL     1     -10.998  12.614  67.022  1.00  0.00    -0.300 C  
HETATM    4  C   UNL     1      -6.246   7.954  67.035  1.00  0.00    -0.054 C  
HETATM    5  C   UNL     1      -9.763  13.262  67.641  1.00  0.00    -0.219 C  
HETATM    6  O   UNL     1      -9.885  13.114  69.067  1.00  0.00    -0.410 OA 
HETATM    7  C   UNL     1      -8.501  12.537  67.077  1.00  0.00    -0.161 C  
HETATM    8  C   UNL     1      -6.377   6.467  67.179  1.00  0.00    -0.041 A  
HETATM    9  C   UNL     1      -5.244   5.690  67.467  1.00  0.00    -0.004 A  
HETATM   10  C   UNL     1      -8.569  11.010  67.023  1.00  0.00    -0.140 A  
HETATM   11  C   UNL     1      -5.354   4.306  67.633  1.00  0.00    -0.012 A  
HETATM   12  C   UNL     1      -6.587   3.677  67.482  1.00  0.00    -0.042 A  
HETATM   13  H   UNL     1     -11.905   8.910  66.897  1.00  0.00     0.000 HD 
HETATM   14  H   UNL     1      -9.117  13.517  69.453  1.00  0.00     0.000 HD 
HETATM   15  C   UNL     1      -7.723   4.430  67.163  1.00  0.00    -0.089 A  
HETATM   16  O   UNL     1     -11.117   8.380  66.872  1.00  0.00     0.097 OA 
HETATM   17  C   UNL     1      -7.400  10.212  66.968  1.00  0.00    -0.091 A  
HETATM   18  C   UNL     1      -7.621   5.839  67.042  1.00  0.00    -0.099 A  
HETATM   19  O   UNL     1      -6.194  10.872  66.986  1.00  0.00    -0.062 OA 
HETATM   20  C   UNL     1      -7.461   8.794  66.942  1.00  0.00    -0.090 A  
HETATM   21  O   UNL     1      -9.905   6.216  66.513  1.00  0.00    -0.162 OA 
HETATM   22  C   UNL     1      -9.818  10.359  67.026  1.00  0.00    -0.234 A  
HETATM   23  C   UNL     1      -9.868   8.954  66.900  1.00  0.00    -0.223 A  
HETATM   24  C   UNL     1      -8.803   6.693  66.778  1.00  0.00    -0.130 C  
HETATM   25  C   UNL     1      -8.702   8.170  66.863  1.00  0.00    -0.136 A  
HETATM   26  H   UNL     1      -5.410  10.337  66.950  1.00  0.00     0.000 HD 
ENDROOT
BRANCH   1  27
HETATM   27  O   UNL     1     -11.160  10.799  68.814  1.00  0.00    -0.221 OA 
BRANCH  27  28
HETATM   28  C   UNL     1     -12.332  10.197  69.339  1.00  0.00     0.442 C  
HETATM   29  O   UNL     1     -13.117  11.194  70.034  1.00  0.00     0.059 OA 
HETATM   30  C   UNL     1     -13.410  12.717  71.929  1.00  0.00    -0.510 C  
HETATM   31  C   UNL     1     -12.445  10.428  72.240  1.00  0.00     0.375 C  
HETATM   32  O   UNL     1     -13.719   9.788  72.427  1.00  0.00    -0.606 OA 
HETATM   33  H   UNL     1     -14.331  10.391  72.833  1.00  0.00     0.000 HD 
HETATM   34  C   UNL     1     -11.456   9.455  71.584  1.00  0.00    -0.393 C  
HETATM   35  C   UNL     1     -12.562  11.620  71.287  1.00  0.00    -0.320 C  
HETATM   36  C   UNL     1     -12.006   8.991  70.234  1.00  0.00     0.167 C  
BRANCH  34  37
HETATM   37  N   UNL     1     -11.122   8.351  72.481  1.00  0.00    -0.361 N  
HETATM   38  H   UNL     1     -11.848   7.910  73.044  1.00  0.00     0.000 HD 
HETATM   39  C   UNL     1      -9.528   6.802  73.600  1.00  0.00    -0.178 C  
HETATM   40  F   UNL     1      -9.171   5.622  73.027  1.00  0.00    -0.136 F  
HETATM   41  O   UNL     1      -8.918   8.386  71.846  1.00  0.00    -0.172 OA 
HETATM   42  F   UNL     1      -8.531   7.141  74.463  1.00  0.00    -0.167 F  
HETATM   43  F   UNL     1     -10.626   6.544  74.370  1.00  0.00    -0.334 F  
HETATM   44  C   UNL     1      -9.800   7.905  72.561  1.00  0.00    -0.236 C  
ENDBRANCH  34  37
ENDBRANCH  27  28
ENDBRANCH   1  27
BRANCH   5  45
HETATM   45  C   UNL     1      -9.536  14.791  67.594  1.00  0.00    -0.204 C  
HETATM   46  O   UNL     1     -10.041  15.499  68.482  1.00  0.00    -0.206 OA 
BRANCH  45  47
HETATM   47  C   UNL     1      -8.982  15.485  66.347  1.00  0.00    -0.324 C  
BRANCH  47  48
HETATM   48  O   UNL     1      -8.101  16.582  66.519  1.00  0.00    -0.246 OA 
BRANCH  48  49
HETATM   49  C   UNL     1      -6.822  16.225  66.811  1.00  0.00    -0.088 C  
HETATM   50  O   UNL     1      -6.455  15.092  67.080  1.00  0.00    -0.275 OA 
BRANCH  49  51
HETATM   51  C   UNL     1      -5.915  17.425  66.716  1.00  0.00    -0.221 C  
BRANCH  51  52
HETATM   52  C   UNL     1      -6.705  18.706  66.460  1.00  0.00    -0.227 C  
BRANCH  52  53
HETATM   53  C   UNL     1      -6.748  19.614  67.691  1.00  0.00    -0.262 C  
HETATM   54  C   UNL     1      -7.273  20.999  67.364  1.00  0.00    -0.354 C  
ENDBRANCH  52  53
ENDBRANCH  51  52
ENDBRANCH  49  51
ENDBRANCH  48  49
ENDBRANCH  47  48
ENDBRANCH  45  47
ENDBRANCH   5  45
BRANCH  15  55
HETATM   55  O   UNL     1      -8.959   3.847  67.039  1.00  0.00    -0.119 OA 
HETATM   56  C   UNL     1      -9.104   2.818  66.063  1.00  0.00    -0.119 C  
ENDBRANCH  15  55
TORSDOF 11
ENDMDL
MODEL       45
REMARK 921   NORMALIZED FREE ENERGY PREDICTED BY IDOCK:   -3.98 KCAL/MOL
REMARK 922        TOTAL FREE ENERGY PREDICTED BY IDOCK:  -10.09 KCAL/MOL
REMARK 923 INTER-LIGAND FREE ENERGY PREDICTED BY IDOCK:   -9.07 KCAL/MOL
REMARK 924 INTRA-LIGAND FREE ENERGY PREDICTED BY IDOCK:   -1.01 KCAL/MOL
REMARK 927      BINDING AFFINITY PREDICTED BY RF-SCORE:    0.00 PKD
ROOT
HETATM    1  C   UNL     1      -9.685  12.902  67.238  1.00  0.00    -0.220 C  
HETATM    2  O   UNL     1      -5.162   8.224  67.764  1.00  0.00    -0.032 OA 
HETATM    3  C   UNL     1      -8.986  14.291  67.277  1.00  0.00    -0.221 C  
HETATM    4  C   UNL     1      -6.317   8.194  67.333  1.00  0.00    -0.056 C  
HETATM    5  C   UNL     1      -7.889  14.312  68.337  1.00  0.00    -0.140 C  
HETATM    6  O   UNL     1      -8.520  14.026  69.598  1.00  0.00    -0.007 OA 
HETATM    7  C   UNL     1      -6.823  13.239  67.952  1.00  0.00    -0.140 C  
HETATM    8  C   UNL     1      -6.968   6.872  67.056  1.00  0.00    -0.070 A  
HETATM    9  C   UNL     1      -6.317   5.682  67.420  1.00  0.00    -0.042 A  
HETATM   10  C   UNL     1      -7.365  11.883  67.498  1.00  0.00    -0.132 A  
HETATM   11  C   UNL     1      -6.923   4.442  67.195  1.00  0.00    -0.063 A  
HETATM   12  C   UNL     1      -8.169   4.373  66.577  1.00  0.00    -0.102 A  
HETATM   13  H   UNL     1     -10.960  11.291  65.988  1.00  0.00     0.000 HD 
HETATM   14  H   UNL     1      -7.837  14.040  70.258  1.00  0.00     0.000 HD 
HETATM   15  C   UNL     1      -8.820   5.545  66.179  1.00  0.00    -0.139 A  
HETATM   16  O   UNL     1     -10.429  10.504  66.033  1.00  0.00    -0.225 OA 
HETATM   17  C   UNL     1      -6.575  10.709  67.545  1.00  0.00    -0.065 A  
HETATM   18  C   UNL     1      -8.228   6.805  66.449  1.00  0.00    -0.117 A  
HETATM   19  O   UNL     1      -5.298  10.836  68.041  1.00  0.00    -0.037 OA 
HETATM   20  C   UNL     1      -7.085   9.445  67.146  1.00  0.00    -0.086 A  
HETATM   21  O   UNL     1      -9.947   8.112  65.462  1.00  0.00     0.549 OA 
HETATM   22  C   UNL     1      -8.683  11.777  67.014  1.00  0.00    -0.181 A  
HETATM   23  C   UNL     1      -9.146  10.536  66.527  1.00  0.00    -0.157 A  
HETATM   24  C   UNL     1      -8.904   8.080  66.115  1.00  0.00    -0.166 C  
HETATM   25  C   UNL     1      -8.360   9.372  66.594  1.00  0.00    -0.119 A  
HETATM   26  H   UNL     1      -4.768  10.048  68.073  1.00  0.00     0.000 HD 
ENDROOT
BRANCH   1  27
HETATM   27  O   UNL     1     -10.321  12.451  68.447  1.00  0.00    -0.221 OA 
BRANCH  27  28
HETATM   28  C   UNL     1     -11.625  11.895  68.390  1.00  0.00    -0.317 C  
HETATM   29  O   UNL     1     -12.447  12.482  69.426  1.00  0.00     0.011 OA 
HETATM   30  C   UNL     1     -12.990  12.755  71.798  1.00  0.00    -0.416 C  
HETATM   31  C   UNL     1     -12.313  10.531  70.869  1.00  0.00    -0.390 C  
HETATM   32  O   UNL     1     -13.650  10.145  70.503  1.00  0.00    -0.450 OA 
HETATM   33  H   UNL     1     -14.278  10.534  71.102  1.00  0.00     0.000 HD 
HETATM   34  C   UNL     1     -11.299   9.904  69.903  1.00  0.00    -0.222 C  
HETATM   35  C   UNL     1     -12.127  12.046  70.756  1.00  0.00    -0.198 C  
HETATM   36  C   UNL     1     -11.598  10.360  68.474  1.00  0.00    -0.152 C  
BRANCH  34  37
HETATM   37  N   UNL     1     -11.256   8.451  70.047  1.00  0.00    -0.435 N  
HETATM   38  H   UNL     1     -12.116   7.923  70.188  1.00  0.00     0.000 HD 
HETATM   39  C   UNL     1     -10.069   6.273  70.245  1.00  0.00    -0.184 C  
HETATM   40  F   UNL     1      -9.735   5.549  69.144  1.00  0.00    -0.151 F  
HETATM   41  O   UNL     1      -8.980   8.403  69.762  1.00  0.00    -0.143 OA 
HETATM   42  F   UNL     1      -9.222   5.893  71.242  1.00  0.00    -0.140 F  
HETATM   43  F   UNL     1     -11.313   5.854  70.623  1.00  0.00    -0.363 F  
HETATM   44  C   UNL     1     -10.026   7.790  69.991  1.00  0.00    -0.187 C  
ENDBRANCH  34  37
ENDBRANCH  27  28
ENDBRANCH   1  27
BRANCH   5  45
HETATM   45  C   UNL     1      -7.171  15.622  68.739  1.00  0.00    -0.133 C  
HETATM   46  O   UNL     1      -6.123  15.551  69.403  1.00  0.00    -0.111 OA 
BRANCH  45  47
HETATM   47  C   UNL     1      -7.857  16.985  68.618  1.00  0.00    -0.257 C  
BRANCH  47  48
HETATM   48  O   UNL     1      -7.268  17.966  67.780  1.00  0.00    -0.202 OA 
BRANCH  48  49
HETATM   49  C   UNL     1      -7.192  19.202  68.342  1.00  0.00    -0.295 C  
HETATM   50  O   UNL     1      -6.632  19.459  69.397  1.00  0.00    -0.308 OA 
BRANCH  49  51
HETATM   51  C   UNL     1      -7.863  20.216  67.452  1.00  0.00    -0.348 C  
BRANCH  51  52
HETATM   52  C   UNL     1      -8.911  19.567  66.551  1.00  0.00    -0.395 C  
BRANCH  52  53
HETATM   53  C   UNL     1     -10.257  19.400  67.260  1.00  0.00    -0.525 C  
HETATM   54  C   UNL     1     -10.220  19.914  68.687  1.00  0.00    -0.494 C  
ENDBRANCH  52  53
ENDBRANCH  51  52
ENDBRANCH  49  51
ENDBRANCH  48  49
ENDBRANCH  47  48
ENDBRANCH  45  47
ENDBRANCH   5  45
BRANCH  15  55
HETATM   55  O   UNL     1     -10.062   5.514  65.596  1.00  0.00     0.067 OA 
HETATM   56  C   UNL     1     -10.551   4.248  65.160  1.00  0.00    -0.144 C  
ENDBRANCH  15  55
TORSDOF 11
ENDMDL
MODEL       46
REMARK 921   NORMALIZED FREE ENERGY PREDICTED BY IDOCK:   -3.94 KCAL/MOL
REMARK 922        TOTAL FREE ENERGY PREDICTED BY IDOCK:  -10.03 KCAL/MOL
REMARK 923 INTER-LIGAND FREE ENERGY PREDICTED BY IDOCK:   -8.81 KCAL/MOL
REMARK 924 INTRA-LIGAND FREE ENERGY PREDICTED BY IDOCK:   -1.22 KCAL/MOL
REMARK 927      BINDING AFFINITY PREDICTED BY RF-SCORE:    0.00 PKD
ROOT
HETATM    1  C   UNL     1      -8.507   9.057  68.853  1.00  0.00    -0.130 C  
HETATM    2  O   UNL     1      -5.865   7.639  63.053  1.00  0.00    -0.049 OA 
HETATM    3  C   UNL     1      -8.578  10.603  69.014  1.00  0.00    -0.150 C  
HETATM    4  C   UNL     1      -6.565   6.968  63.814  1.00  0.00    -0.043 C  
HETATM    5  C   UNL     1      -7.298  11.256  68.502  1.00  0.00    -0.106 C  
HETATM    6  O   UNL     1      -6.213  10.714  69.277  1.00  0.00    -0.044 OA 
HETATM    7  C   UNL     1      -7.161  10.930  66.982  1.00  0.00    -0.109 C  
HETATM    8  C   UNL     1      -6.720   5.496  63.570  1.00  0.00    -0.033 A  
HETATM    9  C   UNL     1      -5.961   4.870  62.568  1.00  0.00    -0.014 A  
HETATM   10  C   UNL     1      -7.448   9.484  66.576  1.00  0.00    -0.093 A  
HETATM   11  C   UNL     1      -6.072   3.494  62.346  1.00  0.00    -0.013 A  
HETATM   12  C   UNL     1      -6.964   2.733  63.098  1.00  0.00    -0.036 A  
HETATM   13  H   UNL     1      -9.682   6.970  68.635  1.00  0.00     0.000 HD 
HETATM   14  H   UNL     1      -5.416  11.121  68.959  1.00  0.00     0.000 HD 
HETATM   15  C   UNL     1      -7.753   3.343  64.079  1.00  0.00    -0.076 A  
HETATM   16  O   UNL     1      -9.338   6.604  67.828  1.00  0.00    -0.121 OA 
HETATM   17  C   UNL     1      -6.954   8.936  65.367  1.00  0.00    -0.080 A  
HETATM   18  C   UNL     1      -7.606   4.730  64.337  1.00  0.00    -0.073 A  
HETATM   19  O   UNL     1      -6.183   9.758  64.579  1.00  0.00    -0.091 OA 
HETATM   20  C   UNL     1      -7.201   7.587  64.998  1.00  0.00    -0.066 A  
HETATM   21  O   UNL     1      -9.254   4.849  66.042  1.00  0.00    -0.138 OA 
HETATM   22  C   UNL     1      -8.225   8.657  67.410  1.00  0.00    -0.105 A  
HETATM   23  C   UNL     1      -8.547   7.350  66.987  1.00  0.00    -0.119 A  
HETATM   24  C   UNL     1      -8.361   5.415  65.412  1.00  0.00    -0.139 C  
HETATM   25  C   UNL     1      -8.037   6.810  65.793  1.00  0.00    -0.123 A  
HETATM   26  H   UNL     1      -5.851   9.391  63.768  1.00  0.00     0.000 HD 
ENDROOT
BRANCH   1  27
HETATM   27  O   UNL     1      -7.439   8.372  69.529  1.00  0.00    -0.083 OA 
BRANCH  27  28
HETATM   28  C   UNL     1      -7.424   8.321  70.947  1.00  0.00    -0.064 C  
HETATM   29  O   UNL     1      -7.179   6.961  71.378  1.00  0.00    -0.077 OA 
HETATM   30  C   UNL     1      -7.930   4.641  71.599  1.00  0.00    -0.101 C  
HETATM   31  C   UNL     1      -9.500   6.555  71.974  1.00  0.00    -0.150 C  
HETATM   32  O   UNL     1      -9.186   6.693  73.371  1.00  0.00    -0.127 OA 
HETATM   33  H   UNL     1      -8.953   5.848  73.738  1.00  0.00     0.000 HD 
HETATM   34  C   UNL     1      -9.876   7.919  71.380  1.00  0.00    -0.168 C  
HETATM   35  C   UNL     1      -8.284   6.067  71.181  1.00  0.00    -0.123 C  
HETATM   36  C   UNL     1      -8.712   8.897  71.556  1.00  0.00    -0.232 C  
BRANCH  34  37
HETATM   37  N   UNL     1     -11.133   8.413  71.935  1.00  0.00    -0.285 N  
HETATM   38  H   UNL     1     -11.437   8.115  72.862  1.00  0.00     0.000 HD 
HETATM   39  C   UNL     1     -13.267   9.687  71.815  1.00  0.00    -0.430 C  
HETATM   40  F   UNL     1     -13.323  11.002  72.152  1.00  0.00    -0.568 F  
HETATM   41  O   UNL     1     -11.541   9.712  70.089  1.00  0.00    -0.226 OA 
HETATM   42  F   UNL     1     -14.314   9.448  70.977  1.00  0.00    -0.292 F  
HETATM   43  F   UNL     1     -13.524   8.981  72.955  1.00  0.00    -0.489 F  
HETATM   44  C   UNL     1     -11.917   9.295  71.187  1.00  0.00    -0.322 C  
ENDBRANCH  34  37
ENDBRANCH  27  28
ENDBRANCH   1  27
BRANCH   5  45
HETATM   45  C   UNL     1      -7.004  12.758  68.729  1.00  0.00    -0.096 C  
HETATM   46  O   UNL     1      -6.483  13.111  69.801  1.00  0.00    -0.097 OA 
BRANCH  45  47
HETATM   47  C   UNL     1      -7.604  13.841  67.828  1.00  0.00    -0.169 C  
BRANCH  47  48
HETATM   48  O   UNL     1      -9.015  13.917  67.710  1.00  0.00    -0.171 OA 
BRANCH  48  49
HETATM   49  C   UNL     1      -9.443  14.620  66.628  1.00  0.00    -0.278 C  
HETATM   50  O   UNL     1      -8.831  15.535  66.100  1.00  0.00    -0.320 OA 
BRANCH  49  51
HETATM   51  C   UNL     1     -10.766  14.079  66.150  1.00  0.00    -0.289 C  
BRANCH  51  52
HETATM   52  C   UNL     1     -10.669  13.536  64.726  1.00  0.00    -0.412 C  
BRANCH  52  53
HETATM   53  C   UNL     1     -12.042  13.414  64.060  1.00  0.00    -0.506 C  
HETATM   54  C   UNL     1     -12.420  11.970  63.788  1.00  0.00    -0.594 C  
ENDBRANCH  52  53
ENDBRANCH  51  52
ENDBRANCH  49  51
ENDBRANCH  48  49
ENDBRANCH  47  48
ENDBRANCH  45  47
ENDBRANCH   5  45
BRANCH  15  55
HETATM   55  O   UNL     1      -8.618   2.618  64.859  1.00  0.00    -0.093 OA 
HETATM   56  C   UNL     1      -9.756   2.047  64.219  1.00  0.00    -0.091 C  
ENDBRANCH  15  55
TORSDOF 11
ENDMDL
MODEL       47
REMARK 921   NORMALIZED FREE ENERGY PREDICTED BY IDOCK:   -3.88 KCAL/MOL
REMARK 922        TOTAL FREE ENERGY PREDICTED BY IDOCK:   -9.92 KCAL/MOL
REMARK 923 INTER-LIGAND FREE ENERGY PREDICTED BY IDOCK:  -10.87 KCAL/MOL
REMARK 924 INTRA-LIGAND FREE ENERGY PREDICTED BY IDOCK:    0.95 KCAL/MOL
REMARK 927      BINDING AFFINITY PREDICTED BY RF-SCORE:    0.00 PKD
ROOT
HETATM    1  C   UNL     1     -11.425  12.283  67.850  1.00  0.00    -0.330 C  
HETATM    2  O   UNL     1      -8.295   7.806  64.275  1.00  0.00    -0.071 OA 
HETATM    3  C   UNL     1     -12.344  13.125  66.919  1.00  0.00    -0.149 C  
HETATM    4  C   UNL     1      -8.525   7.866  65.484  1.00  0.00    -0.139 C  
HETATM    5  C   UNL     1     -11.627  13.457  65.613  1.00  0.00    -0.327 C  
HETATM    6  O   UNL     1     -10.444  14.197  65.963  1.00  0.00    -0.289 OA 
HETATM    7  C   UNL     1     -11.294  12.116  64.888  1.00  0.00    -0.378 C  
HETATM    8  C   UNL     1      -7.834   6.915  66.415  1.00  0.00    -0.103 A  
HETATM    9  C   UNL     1      -6.830   6.063  65.926  1.00  0.00    -0.057 A  
HETATM   10  C   UNL     1     -10.723  11.001  65.765  1.00  0.00    -0.216 A  
HETATM   11  C   UNL     1      -6.156   5.191  66.786  1.00  0.00    -0.030 A  
HETATM   12  C   UNL     1      -6.495   5.134  68.135  1.00  0.00    -0.048 A  
HETATM   13  H   UNL     1     -11.242  10.714  69.664  1.00  0.00     0.000 HD 
HETATM   14  H   UNL     1      -9.998  14.404  65.151  1.00  0.00     0.000 HD 
HETATM   15  C   UNL     1      -7.514   5.951  68.636  1.00  0.00    -0.086 A  
HETATM   16  O   UNL     1     -10.734  10.003  69.291  1.00  0.00    -0.202 OA 
HETATM   17  C   UNL     1      -9.978   9.928  65.216  1.00  0.00    -0.249 A  
HETATM   18  C   UNL     1      -8.166   6.870  67.774  1.00  0.00    -0.117 A  
HETATM   19  O   UNL     1      -9.771   9.943  63.857  1.00  0.00    -0.429 OA 
HETATM   20  C   UNL     1      -9.427   8.904  66.031  1.00  0.00    -0.320 A  
HETATM   21  O   UNL     1      -9.647   7.748  69.410  1.00  0.00    -0.156 OA 
HETATM   22  C   UNL     1     -10.933  11.019  67.157  1.00  0.00    -0.344 A  
HETATM   23  C   UNL     1     -10.466   9.945  67.944  1.00  0.00    -0.236 A  
HETATM   24  C   UNL     1      -9.201   7.810  68.265  1.00  0.00    -0.139 C  
HETATM   25  C   UNL     1      -9.713   8.893  67.393  1.00  0.00    -0.227 A  
HETATM   26  H   UNL     1      -9.271   9.224  63.489  1.00  0.00     0.000 HD 
ENDROOT
BRANCH   1  27
HETATM   27  O   UNL     1     -10.174  12.871  68.247  1.00  0.00    -0.234 OA 
BRANCH  27  28
HETATM   28  C   UNL     1      -9.016  12.660  67.455  1.00  0.00    -0.187 C  
HETATM   29  O   UNL     1      -8.189  11.644  68.069  1.00  0.00    -0.131 OA 
HETATM   30  C   UNL     1      -6.712  10.927  69.886  1.00  0.00    -0.147 C  
HETATM   31  C   UNL     1      -6.583  13.244  68.945  1.00  0.00    -0.107 C  
HETATM   32  O   UNL     1      -5.645  12.898  67.911  1.00  0.00    -0.095 OA 
HETATM   33  H   UNL     1      -5.083  12.189  68.202  1.00  0.00     0.000 HD 
HETATM   34  C   UNL     1      -7.489  14.390  68.476  1.00  0.00    -0.122 C  
HETATM   35  C   UNL     1      -7.512  12.069  69.261  1.00  0.00     0.188 C  
HETATM   36  C   UNL     1      -8.242  13.967  67.213  1.00  0.00    -0.176 C  
BRANCH  34  37
HETATM   37  N   UNL     1      -6.736  15.630  68.310  1.00  0.00    -0.114 N  
HETATM   38  H   UNL     1      -5.780  15.607  67.958  1.00  0.00     0.000 HD 
HETATM   39  C   UNL     1      -6.435  18.091  68.518  1.00  0.00    -0.209 C  
HETATM   40  F   UNL     1      -6.840  18.937  67.534  1.00  0.00    -0.197 F  
HETATM   41  O   UNL     1      -8.511  16.904  69.008  1.00  0.00    -0.231 OA 
HETATM   42  F   UNL     1      -6.399  18.814  69.672  1.00  0.00    -0.264 F  
HETATM   43  F   UNL     1      -5.141  17.758  68.237  1.00  0.00    -0.139 F  
HETATM   44  C   UNL     1      -7.336  16.849  68.637  1.00  0.00    -0.222 C  
ENDBRANCH  34  37
ENDBRANCH  27  28
ENDBRANCH   1  27
BRANCH   5  45
HETATM   45  C   UNL     1     -12.220  14.456  64.591  1.00  0.00    -0.464 C  
HETATM   46  O   UNL     1     -12.689  14.017  63.528  1.00  0.00    -0.805 OA 
BRANCH  45  47
HETATM   47  C   UNL     1     -11.974  15.963  64.702  1.00  0.00     0.078 C  
BRANCH  47  48
HETATM   48  O   UNL     1     -10.681  16.460  64.404  1.00  0.00    -0.622 OA 
BRANCH  48  49
HETATM   49  C   UNL     1     -10.001  16.923  65.487  1.00  0.00     0.019 C  
HETATM   50  O   UNL     1      -8.840  16.654  65.754  1.00  0.00    -0.493 OA 
BRANCH  49  51
HETATM   51  C   UNL     1     -10.877  17.849  66.290  1.00  0.00     0.055 C  
BRANCH  51  52
HETATM   52  C   UNL     1     -10.747  19.295  65.818  1.00  0.00    -0.417 C  
BRANCH  52  53
HETATM   53  C   UNL     1     -10.035  20.177  66.847  1.00  0.00    -0.600 C  
HETATM   54  C   UNL     1     -10.476  19.870  68.266  1.00  0.00    -0.436 C  
ENDBRANCH  52  53
ENDBRANCH  51  52
ENDBRANCH  49  51
ENDBRANCH  48  49
ENDBRANCH  47  48
ENDBRANCH  45  47
ENDBRANCH   5  45
BRANCH  15  55
HETATM   55  O   UNL     1      -7.853   5.944  69.966  1.00  0.00    -0.095 OA 
HETATM   56  C   UNL     1      -6.799   6.105  70.912  1.00  0.00    -0.063 C  
ENDBRANCH  15  55
TORSDOF 11
ENDMDL
MODEL       48
REMARK 921   NORMALIZED FREE ENERGY PREDICTED BY IDOCK:   -3.82 KCAL/MOL
REMARK 922        TOTAL FREE ENERGY PREDICTED BY IDOCK:   -9.83 KCAL/MOL
REMARK 923 INTER-LIGAND FREE ENERGY PREDICTED BY IDOCK:   -7.60 KCAL/MOL
REMARK 924 INTRA-LIGAND FREE ENERGY PREDICTED BY IDOCK:   -2.22 KCAL/MOL
REMARK 927      BINDING AFFINITY PREDICTED BY RF-SCORE:    0.00 PKD
ROOT
HETATM    1  C   UNL     1     -11.662  12.370  67.861  1.00  0.00    -0.360 C  
HETATM    2  O   UNL     1      -8.729   7.280  65.012  1.00  0.00     0.036 OA 
HETATM    3  C   UNL     1     -12.373  13.222  66.771  1.00  0.00    -0.239 C  
HETATM    4  C   UNL     1      -9.074   7.471  66.180  1.00  0.00    -0.137 C  
HETATM    5  C   UNL     1     -11.491  13.357  65.533  1.00  0.00    -0.305 C  
HETATM    6  O   UNL     1     -10.271  13.991  65.957  1.00  0.00    -0.285 OA 
HETATM    7  C   UNL     1     -11.245  11.928  64.954  1.00  0.00    -0.350 C  
HETATM    8  C   UNL     1      -8.600   6.536  67.253  1.00  0.00    -0.111 A  
HETATM    9  C   UNL     1      -7.659   5.540  66.946  1.00  0.00    -0.092 A  
HETATM   10  C   UNL     1     -10.904  10.839  65.971  1.00  0.00    -0.102 A  
HETATM   11  C   UNL     1      -7.185   4.678  67.940  1.00  0.00    -0.066 A  
HETATM   12  C   UNL     1      -7.667   4.779  69.242  1.00  0.00    -0.063 A  
HETATM   13  H   UNL     1     -11.855  10.956  69.797  1.00  0.00     0.000 HD 
HETATM   14  H   UNL     1      -9.722  14.076  65.187  1.00  0.00     0.000 HD 
HETATM   15  C   UNL     1      -8.629   5.743  69.562  1.00  0.00    -0.112 A  
HETATM   16  O   UNL     1     -11.397  10.164  69.540  1.00  0.00    -0.237 OA 
HETATM   17  C   UNL     1     -10.238   9.647  65.594  1.00  0.00    -0.034 A  
HETATM   18  C   UNL     1      -9.075   6.648  68.565  1.00  0.00    -0.128 A  
HETATM   19  O   UNL     1      -9.890   9.520  64.269  1.00  0.00    -0.366 OA 
HETATM   20  C   UNL     1      -9.899   8.645  66.541  1.00  0.00    -0.348 A  
HETATM   21  O   UNL     1     -10.603   7.823  69.951  1.00  0.00    -0.231 OA 
HETATM   22  C   UNL     1     -11.253  11.003  67.326  1.00  0.00    -0.330 A  
HETATM   23  C   UNL     1     -11.001   9.958  68.239  1.00  0.00    -0.196 A  
HETATM   24  C   UNL     1     -10.037   7.735  68.863  1.00  0.00    -0.195 C  
HETATM   25  C   UNL     1     -10.324   8.786  67.858  1.00  0.00    -0.281 A  
HETATM   26  H   UNL     1      -9.444   8.721  64.016  1.00  0.00     0.000 HD 
ENDROOT
BRANCH   1  27
HETATM   27  O   UNL     1     -10.398  12.850  68.351  1.00  0.00    -0.237 OA 
BRANCH  27  28
HETATM   28  C   UNL     1     -10.296  13.329  69.682  1.00  0.00     0.799 C  
HETATM   29  O   UNL     1     -11.583  13.829  70.116  1.00  0.00    -0.245 OA 
HETATM   30  C   UNL     1     -13.367  15.500  69.966  1.00  0.00     0.534 C  
HETATM   31  C   UNL     1     -10.954  16.161  69.850  1.00  0.00    -0.362 C  
HETATM   32  O   UNL     1     -10.803  16.303  71.273  1.00  0.00     0.143 OA 
HETATM   33  H   UNL     1     -11.624  16.578  71.664  1.00  0.00     0.000 HD 
HETATM   34  C   UNL     1      -9.628  15.717  69.218  1.00  0.00    -0.270 C  
HETATM   35  C   UNL     1     -11.973  15.070  69.510  1.00  0.00    -0.313 C  
HETATM   36  C   UNL     1      -9.188  14.385  69.828  1.00  0.00     0.727 C  
BRANCH  34  37
HETATM   37  N   UNL     1      -8.613  16.762  69.322  1.00  0.00    -0.069 N  
HETATM   38  H   UNL     1      -8.469  17.252  70.204  1.00  0.00     0.000 HD 
HETATM   39  C   UNL     1      -6.864  18.262  68.382  1.00  0.00    -0.234 C  
HETATM   40  F   UNL     1      -5.563  17.873  68.315  1.00  0.00    -0.150 F  
HETATM   41  O   UNL     1      -7.960  16.467  67.143  1.00  0.00    -0.155 OA 
HETATM   42  F   UNL     1      -7.039  19.226  67.436  1.00  0.00    -0.210 F  
HETATM   43  F   UNL     1      -7.025  18.880  69.589  1.00  0.00    -0.275 F  
HETATM   44  C   UNL     1      -7.842  17.086  68.203  1.00  0.00    -0.196 C  
ENDBRANCH  34  37
ENDBRANCH  27  28
ENDBRANCH   1  27
BRANCH   5  45
HETATM   45  C   UNL     1     -11.852  14.320  64.378  1.00  0.00    -0.426 C  
HETATM   46  O   UNL     1     -11.970  13.860  63.229  1.00  0.00    -0.259 OA 
BRANCH  45  47
HETATM   47  C   UNL     1     -11.768  15.840  64.540  1.00  0.00    -0.191 C  
BRANCH  47  48
HETATM   48  O   UNL     1     -11.129  16.362  65.693  1.00  0.00    -0.116 OA 
BRANCH  48  49
HETATM   49  C   UNL     1     -10.969  17.712  65.675  1.00  0.00     0.209 C  
HETATM   50  O   UNL     1     -10.923  18.399  64.666  1.00  0.00    -0.236 OA 
BRANCH  49  51
HETATM   51  C   UNL     1     -10.898  18.243  67.083  1.00  0.00    -0.239 C  
BRANCH  51  52
HETATM   52  C   UNL     1     -10.903  19.770  67.108  1.00  0.00    -0.467 C  
BRANCH  52  53
HETATM   53  C   UNL     1      -9.839  20.336  68.052  1.00  0.00    -0.447 C  
HETATM   54  C   UNL     1     -10.080  19.931  69.494  1.00  0.00    -0.085 C  
ENDBRANCH  52  53
ENDBRANCH  51  52
ENDBRANCH  49  51
ENDBRANCH  48  49
ENDBRANCH  47  48
ENDBRANCH  45  47
ENDBRANCH   5  45
BRANCH  15  55
HETATM   55  O   UNL     1      -9.102   5.890  70.842  1.00  0.00    -0.147 OA 
HETATM   56  C   UNL     1      -9.514   4.711  71.528  1.00  0.00    -0.155 C  
ENDBRANCH  15  55
TORSDOF 11
ENDMDL
MODEL       49
REMARK 921   NORMALIZED FREE ENERGY PREDICTED BY IDOCK:   -3.78 KCAL/MOL
REMARK 922        TOTAL FREE ENERGY PREDICTED BY IDOCK:   -9.75 KCAL/MOL
REMARK 923 INTER-LIGAND FREE ENERGY PREDICTED BY IDOCK:   -8.35 KCAL/MOL
REMARK 924 INTRA-LIGAND FREE ENERGY PREDICTED BY IDOCK:   -1.40 KCAL/MOL
REMARK 927      BINDING AFFINITY PREDICTED BY RF-SCORE:    0.00 PKD
ROOT
HETATM    1  C   UNL     1      -7.666  11.116  66.570  1.00  0.00    -0.146 C  
HETATM    2  O   UNL     1     -12.495   9.518  70.663  1.00  0.00    -0.183 OA 
HETATM    3  C   UNL     1      -7.251   9.856  65.758  1.00  0.00    -0.110 C  
HETATM    4  C   UNL     1     -12.132  10.609  70.220  1.00  0.00    -0.338 C  
HETATM    5  C   UNL     1      -7.203   8.626  66.660  1.00  0.00    -0.081 C  
HETATM    6  O   UNL     1      -6.241   8.904  67.694  1.00  0.00    -0.054 OA 
HETATM    7  C   UNL     1      -8.635   8.388  67.233  1.00  0.00    -0.123 C  
HETATM    8  C   UNL     1     -12.682  11.870  70.820  1.00  0.00    -0.242 A  
HETATM    9  C   UNL     1     -13.492  11.804  71.965  1.00  0.00    -0.319 A  
HETATM   10  C   UNL     1      -9.373   9.629  67.738  1.00  0.00    -0.142 A  
HETATM   11  C   UNL     1     -13.989  12.971  72.553  1.00  0.00    -0.320 A  
HETATM   12  C   UNL     1     -13.711  14.213  71.989  1.00  0.00    -0.554 A  
HETATM   13  H   UNL     1      -8.626  13.321  66.571  1.00  0.00     0.000 HD 
HETATM   14  H   UNL     1      -6.211   8.138  68.255  1.00  0.00     0.000 HD 
HETATM   15  C   UNL     1     -12.933  14.298  70.830  1.00  0.00    -0.304 A  
HETATM   16  O   UNL     1      -9.337  13.254  67.199  1.00  0.00    -0.222 OA 
HETATM   17  C   UNL     1     -10.444   9.536  68.660  1.00  0.00    -0.211 A  
HETATM   18  C   UNL     1     -12.389  13.119  70.260  1.00  0.00    -0.319 A  
HETATM   19  O   UNL     1     -10.781   8.278  69.100  1.00  0.00    -0.337 OA 
HETATM   20  C   UNL     1     -11.115  10.689  69.148  1.00  0.00    -0.309 A  
HETATM   21  O   UNL     1     -11.299  14.192  68.443  1.00  0.00    -0.258 OA 
HETATM   22  C   UNL     1      -8.994  10.908  67.287  1.00  0.00    -0.139 A  
HETATM   23  C   UNL     1      -9.732  12.037  67.702  1.00  0.00    -0.187 A  
HETATM   24  C   UNL     1     -11.499  13.156  69.075  1.00  0.00    -0.296 C  
HETATM   25  C   UNL     1     -10.783  11.937  68.630  1.00  0.00    -0.266 A  
HETATM   26  H   UNL     1     -11.500   8.216  69.718  1.00  0.00     0.000 HD 
ENDROOT
BRANCH   1  27
HETATM   27  O   UNL     1      -6.827  11.493  67.676  1.00  0.00    -0.072 OA 
BRANCH  27  28
HETATM   28  C   UNL     1      -5.877  12.534  67.514  1.00  0.00    -0.145 C  
HETATM   29  O   UNL     1      -5.163  12.735  68.757  1.00  0.00    -0.061 OA 
HETATM   30  C   UNL     1      -5.139  13.478  71.090  1.00  0.00    -0.146 C  
HETATM   31  C   UNL     1      -6.398  14.746  69.336  1.00  0.00    -0.124 C  
HETATM   32  O   UNL     1      -5.278  15.566  68.957  1.00  0.00    -0.095 OA 
HETATM   33  H   UNL     1      -4.710  15.710  69.705  1.00  0.00     0.000 HD 
HETATM   34  C   UNL     1      -7.315  14.514  68.128  1.00  0.00    -0.128 C  
HETATM   35  C   UNL     1      -5.936  13.360  69.792  1.00  0.00    -0.126 C  
HETATM   36  C   UNL     1      -6.529  13.831  67.007  1.00  0.00     0.929 C  
BRANCH  34  37
HETATM   37  N   UNL     1      -7.963  15.753  67.706  1.00  0.00    -0.137 N  
HETATM   38  H   UNL     1      -7.817  16.114  66.764  1.00  0.00     0.000 HD 
HETATM   39  C   UNL     1      -9.348  17.782  68.101  1.00  0.00    -0.281 C  
HETATM   40  F   UNL     1     -10.699  17.755  67.946  1.00  0.00    -0.362 F  
HETATM   41  O   UNL     1      -9.021  15.991  69.727  1.00  0.00    -0.063 OA 
HETATM   42  F   UNL     1      -9.067  18.809  68.950  1.00  0.00    -0.342 F  
HETATM   43  F   UNL     1      -8.825  18.134  66.890  1.00  0.00    -0.241 F  
HETATM   44  C   UNL     1      -8.785  16.440  68.603  1.00  0.00    -0.234 C  
ENDBRANCH  34  37
ENDBRANCH  27  28
ENDBRANCH   1  27
BRANCH   5  45
HETATM   45  C   UNL     1      -6.620   7.280  66.169  1.00  0.00    -0.052 C  
HETATM   46  O   UNL     1      -6.240   7.186  64.990  1.00  0.00    -0.036 OA 
BRANCH  45  47
HETATM   47  C   UNL     1      -6.778   5.991  66.980  1.00  0.00    -0.058 C  
BRANCH  47  48
HETATM   48  O   UNL     1      -5.889   5.759  68.060  1.00  0.00    -0.012 OA 
BRANCH  48  49
HETATM   49  C   UNL     1      -6.499   5.333  69.198  1.00  0.00    -0.042 C  
HETATM   50  O   UNL     1      -7.169   4.316  69.296  1.00  0.00    -0.050 OA 
BRANCH  49  51
HETATM   51  C   UNL     1      -6.194   6.276  70.333  1.00  0.00    -0.035 C  
BRANCH  51  52
HETATM   52  C   UNL     1      -6.972   5.908  71.594  1.00  0.00    -0.073 C  
BRANCH  52  53
HETATM   53  C   UNL     1      -8.036   6.952  71.941  1.00  0.00    -0.100 C  
HETATM   54  C   UNL     1      -7.484   8.365  71.906  1.00  0.00    -0.129 C  
ENDBRANCH  52  53
ENDBRANCH  51  52
ENDBRANCH  49  51
ENDBRANCH  48  49
ENDBRANCH  47  48
ENDBRANCH  45  47
ENDBRANCH   5  45
BRANCH  15  55
HETATM   55  O   UNL     1     -12.614  15.508  70.265  1.00  0.00    -0.403 OA 
HETATM   56  C   UNL     1     -11.699  16.340  70.972  1.00  0.00    -0.277 C  
ENDBRANCH  15  55
TORSDOF 11
ENDMDL
MODEL       50
REMARK 921   NORMALIZED FREE ENERGY PREDICTED BY IDOCK:   -3.65 KCAL/MOL
REMARK 922        TOTAL FREE ENERGY PREDICTED BY IDOCK:   -9.54 KCAL/MOL
REMARK 923 INTER-LIGAND FREE ENERGY PREDICTED BY IDOCK:   -7.91 KCAL/MOL
REMARK 924 INTRA-LIGAND FREE ENERGY PREDICTED BY IDOCK:   -1.64 KCAL/MOL
REMARK 927      BINDING AFFINITY PREDICTED BY RF-SCORE:    0.00 PKD
ROOT
HETATM    1  C   UNL     1      -8.203  11.734  67.375  1.00  0.00    -0.160 C  
HETATM    2  O   UNL     1      -5.860   7.298  71.553  1.00  0.00    -0.036 OA 
HETATM    3  C   UNL     1      -7.314  13.010  67.438  1.00  0.00    -0.122 C  
HETATM    4  C   UNL     1      -6.598   7.182  70.573  1.00  0.00    -0.048 C  
HETATM    5  C   UNL     1      -6.948  13.340  68.881  1.00  0.00    -0.096 C  
HETATM    6  O   UNL     1      -8.183  13.547  69.589  1.00  0.00     0.250 OA 
HETATM    7  C   UNL     1      -6.128  12.144  69.459  1.00  0.00    -0.117 C  
HETATM    8  C   UNL     1      -7.309   5.883  70.333  1.00  0.00    -0.087 A  
HETATM    9  C   UNL     1      -7.242   4.862  71.295  1.00  0.00    -0.060 A  
HETATM   10  C   UNL     1      -6.666  10.747  69.150  1.00  0.00    -0.074 A  
HETATM   11  C   UNL     1      -7.923   3.656  71.100  1.00  0.00    -0.059 A  
HETATM   12  C   UNL     1      -8.650   3.442  69.932  1.00  0.00    -0.109 A  
HETATM   13  H   UNL     1      -8.998   9.858  66.097  1.00  0.00     0.000 HD 
HETATM   14  H   UNL     1      -7.955  13.753  70.488  1.00  0.00     0.000 HD 
HETATM   15  C   UNL     1      -8.703   4.434  68.948  1.00  0.00    -0.086 A  
HETATM   16  O   UNL     1      -8.771   9.110  66.636  1.00  0.00    -0.124 OA 
HETATM   17  C   UNL     1      -6.319   9.622  69.939  1.00  0.00    -0.054 A  
HETATM   18  C   UNL     1      -8.052   5.676  69.165  1.00  0.00    -0.096 A  
HETATM   19  O   UNL     1      -5.490   9.846  71.013  1.00  0.00    -0.063 OA 
HETATM   20  C   UNL     1      -6.836   8.328  69.668  1.00  0.00    -0.044 A  
HETATM   21  O   UNL     1      -8.652   6.647  67.082  1.00  0.00    -0.112 OA 
HETATM   22  C   UNL     1      -7.530  10.549  68.056  1.00  0.00    -0.090 A  
HETATM   23  C   UNL     1      -7.958   9.243  67.737  1.00  0.00    -0.100 A  
HETATM   24  C   UNL     1      -8.134   6.788  68.190  1.00  0.00    -0.115 C  
HETATM   25  C   UNL     1      -7.622   8.136  68.536  1.00  0.00    -0.104 A  
HETATM   26  H   UNL     1      -5.257   9.091  71.542  1.00  0.00     0.000 HD 
ENDROOT
BRANCH   1  27
HETATM   27  O   UNL     1      -9.455  11.768  68.082  1.00  0.00    -0.181 OA 
BRANCH  27  28
HETATM   28  C   UNL     1     -10.659  11.994  67.368  1.00  0.00    -0.223 C  
HETATM   29  O   UNL     1     -10.399  12.866  66.243  1.00  0.00    -0.259 OA 
HETATM   30  C   UNL     1      -9.816  15.077  65.367  1.00  0.00    -0.312 C  
HETATM   31  C   UNL     1     -11.360  14.820  67.321  1.00  0.00    -0.357 C  
HETATM   32  O   UNL     1     -12.548  14.703  66.518  1.00  0.00    -0.372 OA 
HETATM   33  H   UNL     1     -12.451  15.204  65.716  1.00  0.00     0.000 HD 
HETATM   34  C   UNL     1     -11.516  14.011  68.616  1.00  0.00    -0.302 C  
HETATM   35  C   UNL     1     -10.145  14.233  66.597  1.00  0.00    -0.273 C  
HETATM   36  C   UNL     1     -11.771  12.541  68.278  1.00  0.00    -0.390 C  
BRANCH  34  37
HETATM   37  N   UNL     1     -12.539  14.590  69.484  1.00  0.00    -0.560 N  
HETATM   38  H   UNL     1     -13.429  14.898  69.094  1.00  0.00     0.000 HD 
HETATM   39  C   UNL     1     -13.386  15.422  71.671  1.00  0.00    -0.490 C  
HETATM   40  F   UNL     1     -13.994  14.587  72.555  1.00  0.00    -0.478 F  
HETATM   41  O   UNL     1     -11.243  14.297  71.354  1.00  0.00     0.354 OA 
HETATM   42  F   UNL     1     -12.899  16.472  72.387  1.00  0.00    -0.385 F  
HETATM   43  F   UNL     1     -14.371  15.928  70.873  1.00  0.00    -0.166 F  
HETATM   44  C   UNL     1     -12.288  14.717  70.853  1.00  0.00    -0.319 C  
ENDBRANCH  34  37
ENDBRANCH  27  28
ENDBRANCH   1  27
BRANCH   5  45
HETATM   45  C   UNL     1      -6.249  14.667  69.260  1.00  0.00    -0.111 C  
HETATM   46  O   UNL     1      -5.668  14.747  70.355  1.00  0.00    -0.129 OA 
BRANCH  45  47
HETATM   47  C   UNL     1      -6.507  15.962  68.485  1.00  0.00    -0.111 C  
BRANCH  47  48
HETATM   48  O   UNL     1      -7.229  17.001  69.125  1.00  0.00    -0.245 OA 
BRANCH  48  49
HETATM   49  C   UNL     1      -7.824  17.872  68.268  1.00  0.00    -0.285 C  
HETATM   50  O   UNL     1      -8.694  17.579  67.462  1.00  0.00    -0.222 OA 
BRANCH  49  51
HETATM   51  C   UNL     1      -7.284  19.262  68.484  1.00  0.00    -0.349 C  
BRANCH  51  52
HETATM   52  C   UNL     1      -6.071  19.254  69.412  1.00  0.00    -0.299 C  
BRANCH  52  53
HETATM   53  C   UNL     1      -6.369  19.922  70.757  1.00  0.00    -0.170 C  
HETATM   54  C   UNL     1      -6.036  19.018  71.930  1.00  0.00     0.743 C  
ENDBRANCH  52  53
ENDBRANCH  51  52
ENDBRANCH  49  51
ENDBRANCH  48  49
ENDBRANCH  47  48
ENDBRANCH  45  47
ENDBRANCH   5  45
BRANCH  15  55
HETATM   55  O   UNL     1      -9.436   4.269  67.799  1.00  0.00    -0.150 OA 
HETATM   56  C   UNL     1      -9.015   3.253  66.893  1.00  0.00    -0.158 C  
ENDBRANCH  15  55
TORSDOF 11
ENDMDL
MODEL       51
REMARK 921   NORMALIZED FREE ENERGY PREDICTED BY IDOCK:   -3.51 KCAL/MOL
REMARK 922        TOTAL FREE ENERGY PREDICTED BY IDOCK:   -9.31 KCAL/MOL
REMARK 923 INTER-LIGAND FREE ENERGY PREDICTED BY IDOCK:   -9.63 KCAL/MOL
REMARK 924 INTRA-LIGAND FREE ENERGY PREDICTED BY IDOCK:    0.32 KCAL/MOL
REMARK 927      BINDING AFFINITY PREDICTED BY RF-SCORE:    0.00 PKD
ROOT
HETATM    1  C   UNL     1     -11.093  10.978  67.016  1.00  0.00    -0.244 C  
HETATM    2  O   UNL     1      -7.095   8.487  62.495  1.00  0.00    -0.097 OA 
HETATM    3  C   UNL     1     -11.909  12.143  66.385  1.00  0.00    -0.321 C  
HETATM    4  C   UNL     1      -7.522   8.017  63.551  1.00  0.00    -0.122 C  
HETATM    5  C   UNL     1     -11.017  13.007  65.498  1.00  0.00    -0.274 C  
HETATM    6  O   UNL     1      -9.965  13.519  66.336  1.00  0.00    -0.280 OA 
HETATM    7  C   UNL     1     -10.471  12.112  64.342  1.00  0.00    -0.352 C  
HETATM    8  C   UNL     1      -6.921   6.754  64.094  1.00  0.00    -0.052 A  
HETATM    9  C   UNL     1      -5.790   6.196  63.476  1.00  0.00    -0.022 A  
HETATM   10  C   UNL     1      -9.967  10.725  64.745  1.00  0.00    -0.382 A  
HETATM   11  C   UNL     1      -5.200   5.036  63.987  1.00  0.00    -0.009 A  
HETATM   12  C   UNL     1      -5.749   4.401  65.098  1.00  0.00    -0.014 A  
HETATM   13  H   UNL     1     -11.089   8.777  67.985  1.00  0.00     0.000 HD 
HETATM   14  H   UNL     1      -9.410  14.057  65.784  1.00  0.00     0.000 HD 
HETATM   15  C   UNL     1      -6.894   4.923  65.709  1.00  0.00    -0.061 A  
HETATM   16  O   UNL     1     -10.474   8.297  67.443  1.00  0.00    -0.260 OA 
HETATM   17  C   UNL     1      -9.064   9.995  63.934  1.00  0.00    -0.259 A  
HETATM   18  C   UNL     1      -7.466   6.126  65.221  1.00  0.00    -0.084 A  
HETATM   19  O   UNL     1      -8.640  10.597  62.773  1.00  0.00    -0.181 OA 
HETATM   20  C   UNL     1      -8.577   8.717  64.318  1.00  0.00    -0.048 A  
HETATM   21  O   UNL     1      -9.254   6.211  66.780  1.00  0.00    -0.127 OA 
HETATM   22  C   UNL     1     -10.401  10.139  65.949  1.00  0.00    -0.221 A  
HETATM   23  C   UNL     1      -9.988   8.829  66.272  1.00  0.00    -0.245 A  
HETATM   24  C   UNL     1      -8.634   6.762  65.872  1.00  0.00    -0.147 C  
HETATM   25  C   UNL     1      -9.078   8.118  65.469  1.00  0.00    -0.021 A  
HETATM   26  H   UNL     1      -8.035  10.107  62.229  1.00  0.00     0.000 HD 
ENDROOT
BRANCH   1  27
HETATM   27  O   UNL     1      -9.971  11.332  67.842  1.00  0.00    -0.169 OA 
BRANCH  27  28
HETATM   28  C   UNL     1      -8.652  11.135  67.359  1.00  0.00    -0.137 C  
HETATM   29  O   UNL     1      -7.968  10.176  68.200  1.00  0.00    -0.102 OA 
HETATM   30  C   UNL     1      -6.950   9.590  70.349  1.00  0.00    -0.112 C  
HETATM   31  C   UNL     1      -6.662  11.870  69.355  1.00  0.00    -0.081 C  
HETATM   32  O   UNL     1      -5.495  11.519  68.591  1.00  0.00    -0.043 OA 
HETATM   33  H   UNL     1      -5.001  10.843  69.042  1.00  0.00     0.000 HD 
HETATM   34  C   UNL     1      -7.461  12.960  68.628  1.00  0.00    -0.092 C  
HETATM   35  C   UNL     1      -7.608  10.674  69.497  1.00  0.00    -0.124 C  
HETATM   36  C   UNL     1      -7.878  12.458  67.245  1.00  0.00    -0.166 C  
BRANCH  34  37
HETATM   37  N   UNL     1      -6.724  14.221  68.586  1.00  0.00    -0.086 N  
HETATM   38  H   UNL     1      -5.773  14.248  68.219  1.00  0.00     0.000 HD 
HETATM   39  C   UNL     1      -6.446  16.648  69.056  1.00  0.00    -0.190 C  
HETATM   40  F   UNL     1      -6.877  17.591  68.176  1.00  0.00    -0.177 F  
HETATM   41  O   UNL     1      -8.500  15.389  69.447  1.00  0.00    -0.244 OA 
HETATM   42  F   UNL     1      -6.398  17.242  70.281  1.00  0.00    -0.166 F  
HETATM   43  F   UNL     1      -5.154  16.364  68.720  1.00  0.00    -0.105 F  
HETATM   44  C   UNL     1      -7.332  15.389  69.054  1.00  0.00    -0.159 C  
ENDBRANCH  34  37
ENDBRANCH  27  28
ENDBRANCH   1  27
BRANCH   5  45
HETATM   45  C   UNL     1     -11.510  14.351  64.912  1.00  0.00    -0.386 C  
HETATM   46  O   UNL     1     -12.447  14.341  64.096  1.00  0.00    -0.675 OA 
BRANCH  45  47
HETATM   47  C   UNL     1     -10.698  15.640  65.062  1.00  0.00    -0.436 C  
BRANCH  47  48
HETATM   48  O   UNL     1     -11.216  16.834  64.499  1.00  0.00    -0.997 OA 
BRANCH  48  49
HETATM   49  C   UNL     1     -10.822  17.966  65.141  1.00  0.00     0.540 C  
HETATM   50  O   UNL     1     -11.126  19.101  64.809  1.00  0.00    -0.162 OA 
BRANCH  49  51
HETATM   51  C   UNL     1      -9.988  17.614  66.346  1.00  0.00    -0.337 C  
BRANCH  51  52
HETATM   52  C   UNL     1      -9.145  18.799  66.811  1.00  0.00    -0.314 C  
BRANCH  52  53
HETATM   53  C   UNL     1      -9.880  19.661  67.840  1.00  0.00    -0.511 C  
HETATM   54  C   UNL     1      -9.737  19.116  69.249  1.00  0.00    -0.253 C  
ENDBRANCH  52  53
ENDBRANCH  51  52
ENDBRANCH  49  51
ENDBRANCH  48  49
ENDBRANCH  47  48
ENDBRANCH  45  47
ENDBRANCH   5  45
BRANCH  15  55
HETATM   55  O   UNL     1      -7.443   4.340  66.824  1.00  0.00    -0.079 OA 
HETATM   56  C   UNL     1      -6.960   3.052  67.195  1.00  0.00    -0.049 C  
ENDBRANCH  15  55
TORSDOF 11
ENDMDL
MODEL       52
REMARK 921   NORMALIZED FREE ENERGY PREDICTED BY IDOCK:   -3.48 KCAL/MOL
REMARK 922        TOTAL FREE ENERGY PREDICTED BY IDOCK:   -9.26 KCAL/MOL
REMARK 923 INTER-LIGAND FREE ENERGY PREDICTED BY IDOCK:   -7.63 KCAL/MOL
REMARK 924 INTRA-LIGAND FREE ENERGY PREDICTED BY IDOCK:   -1.63 KCAL/MOL
REMARK 927      BINDING AFFINITY PREDICTED BY RF-SCORE:    0.00 PKD
ROOT
HETATM    1  C   UNL     1      -6.392   7.977  67.004  1.00  0.00    -0.056 C  
HETATM    2  O   UNL     1     -10.808  12.234  64.768  1.00  0.00    -0.283 OA 
HETATM    3  C   UNL     1      -6.396   6.715  66.094  1.00  0.00    -0.042 C  
HETATM    4  C   UNL     1      -9.829  12.387  65.501  1.00  0.00    -0.200 C  
HETATM    5  C   UNL     1      -7.824   6.318  65.731  1.00  0.00    -0.103 C  
HETATM    6  O   UNL     1      -8.510   6.054  66.968  1.00  0.00    -0.109 OA 
HETATM    7  C   UNL     1      -8.469   7.496  64.936  1.00  0.00     0.029 C  
HETATM    8  C   UNL     1      -9.651  13.683  66.234  1.00  0.00    -0.254 A  
HETATM    9  C   UNL     1     -10.663  14.655  66.191  1.00  0.00    -0.314 A  
HETATM   10  C   UNL     1      -8.227   8.898  65.497  1.00  0.00    -0.130 A  
HETATM   11  C   UNL     1     -10.525  15.858  66.892  1.00  0.00    -0.309 A  
HETATM   12  C   UNL     1      -9.364  16.118  67.615  1.00  0.00    -0.214 A  
HETATM   13  H   UNL     1      -5.204   9.901  67.823  1.00  0.00     0.000 HD 
HETATM   14  H   UNL     1      -9.399   5.806  66.743  1.00  0.00     0.000 HD 
HETATM   15  C   UNL     1      -8.330  15.177  67.643  1.00  0.00    -0.160 A  
HETATM   16  O   UNL     1      -5.783  10.625  67.613  1.00  0.00    -0.044 OA 
HETATM   17  C   UNL     1      -9.074   9.987  65.175  1.00  0.00    -0.204 A  
HETATM   18  C   UNL     1      -8.489  13.937  66.972  1.00  0.00    -0.153 A  
HETATM   19  O   UNL     1     -10.142   9.724  64.350  1.00  0.00    -0.408 OA 
HETATM   20  C   UNL     1      -8.865  11.285  65.713  1.00  0.00    -0.154 A  
HETATM   21  O   UNL     1      -6.355  13.064  67.540  1.00  0.00    -0.154 OA 
HETATM   22  C   UNL     1      -7.138   9.137  66.357  1.00  0.00    -0.084 A  
HETATM   23  C   UNL     1      -6.882  10.450  66.806  1.00  0.00    -0.091 A  
HETATM   24  C   UNL     1      -7.458  12.875  67.028  1.00  0.00     0.110 C  
HETATM   25  C   UNL     1      -7.738  11.521  66.495  1.00  0.00    -0.052 A  
HETATM   26  H   UNL     1     -10.710  10.454  64.134  1.00  0.00     0.000 HD 
ENDROOT
BRANCH   1  27
HETATM   27  O   UNL     1      -7.086   7.885  68.260  1.00  0.00    -0.083 OA 
BRANCH  27  28
HETATM   28  C   UNL     1      -6.873   8.873  69.255  1.00  0.00    -0.050 C  
HETATM   29  O   UNL     1      -6.048   8.325  70.311  1.00  0.00    -0.031 OA 
HETATM   30  C   UNL     1      -5.765   6.789  72.197  1.00  0.00    -0.038 C  
HETATM   31  C   UNL     1      -7.913   8.026  71.840  1.00  0.00    -0.115 C  
HETATM   32  O   UNL     1      -7.507   9.184  72.591  1.00  0.00    -0.206 OA 
HETATM   33  H   UNL     1      -6.909   8.931  73.285  1.00  0.00     0.000 HD 
HETATM   34  C   UNL     1      -8.879   8.434  70.720  1.00  0.00    -0.151 C  
HETATM   35  C   UNL     1      -6.714   7.370  71.150  1.00  0.00    -0.047 C  
HETATM   36  C   UNL     1      -8.197   9.441  69.792  1.00  0.00    -0.146 C  
BRANCH  34  37
HETATM   37  N   UNL     1     -10.147   8.915  71.261  1.00  0.00    -0.267 N  
HETATM   38  H   UNL     1     -10.160   9.509  72.089  1.00  0.00     0.000 HD 
HETATM   39  C   UNL     1     -12.632   9.031  71.329  1.00  0.00    -0.280 C  
HETATM   40  F   UNL     1     -13.316   9.944  70.590  1.00  0.00    -0.374 F  
HETATM   41  O   UNL     1     -11.347   7.885  69.599  1.00  0.00    -0.019 OA 
HETATM   42  F   UNL     1     -13.490   8.004  71.584  1.00  0.00    -0.330 F  
HETATM   43  F   UNL     1     -12.374   9.620  72.534  1.00  0.00    -0.324 F  
HETATM   44  C   UNL     1     -11.343   8.554  70.635  1.00  0.00    -0.241 C  
ENDBRANCH  34  37
ENDBRANCH  27  28
ENDBRANCH   1  27
BRANCH   5  45
HETATM   45  C   UNL     1      -8.140   4.985  65.012  1.00  0.00    -0.113 C  
HETATM   46  O   UNL     1      -8.765   5.017  63.939  1.00  0.00    -0.137 OA 
BRANCH  45  47
HETATM   47  C   UNL     1      -7.985   3.635  65.716  1.00  0.00    -0.093 C  
BRANCH  47  48
HETATM   48  O   UNL     1      -9.104   3.095  66.398  1.00  0.00    -0.146 OA 
BRANCH  48  49
HETATM   49  C   UNL     1      -8.782   2.353  67.491  1.00  0.00    -0.117 C  
HETATM   50  O   UNL     1      -7.916   1.492  67.523  1.00  0.00    -0.058 OA 
BRANCH  49  51
HETATM   51  C   UNL     1      -9.623   2.773  68.668  1.00  0.00    -0.081 C  
BRANCH  51  52
HETATM   52  C   UNL     1      -8.790   3.497  69.723  1.00  0.00    -0.151 C  
BRANCH  52  53
HETATM   53  C   UNL     1      -9.531   3.624  71.057  1.00  0.00    -0.234 C  
HETATM   54  C   UNL     1     -10.093   5.018  71.267  1.00  0.00    -0.276 C  
ENDBRANCH  52  53
ENDBRANCH  51  52
ENDBRANCH  49  51
ENDBRANCH  48  49
ENDBRANCH  47  48
ENDBRANCH  45  47
ENDBRANCH   5  45
BRANCH  15  55
HETATM   55  O   UNL     1      -7.185  15.388  68.371  1.00  0.00    -0.109 OA 
HETATM   56  C   UNL     1      -7.317  16.067  69.617  1.00  0.00    -0.039 C  
ENDBRANCH  15  55
TORSDOF 11
ENDMDL
MODEL       53
REMARK 921   NORMALIZED FREE ENERGY PREDICTED BY IDOCK:   -3.19 KCAL/MOL
REMARK 922        TOTAL FREE ENERGY PREDICTED BY IDOCK:   -8.79 KCAL/MOL
REMARK 923 INTER-LIGAND FREE ENERGY PREDICTED BY IDOCK:   -7.43 KCAL/MOL
REMARK 924 INTRA-LIGAND FREE ENERGY PREDICTED BY IDOCK:   -1.36 KCAL/MOL
REMARK 927      BINDING AFFINITY PREDICTED BY RF-SCORE:    0.00 PKD
ROOT
HETATM    1  C   UNL     1     -10.202   9.436  68.001  1.00  0.00    -0.204 C  
HETATM    2  O   UNL     1      -5.330   6.262  65.033  1.00  0.00    -0.016 OA 
HETATM    3  C   UNL     1      -9.881  10.958  68.018  1.00  0.00    -0.185 C  
HETATM    4  C   UNL     1      -6.499   5.938  65.248  1.00  0.00    -0.042 C  
HETATM    5  C   UNL     1      -8.410  11.194  68.351  1.00  0.00    -0.149 C  
HETATM    6  O   UNL     1      -8.177  10.611  69.646  1.00  0.00    -0.359 OA 
HETATM    7  C   UNL     1      -7.547  10.525  67.237  1.00  0.00    -0.096 C  
HETATM    8  C   UNL     1      -6.925   4.517  65.026  1.00  0.00    -0.061 A  
HETATM    9  C   UNL     1      -5.966   3.541  64.712  1.00  0.00    -0.022 A  
HETATM   10  C   UNL     1      -7.975   9.122  66.805  1.00  0.00    -0.104 A  
HETATM   11  C   UNL     1      -6.342   2.207  64.530  1.00  0.00    -0.019 A  
HETATM   12  C   UNL     1      -7.681   1.836  64.627  1.00  0.00    -0.064 A  
HETATM   13  H   UNL     1     -11.613   7.654  67.214  1.00  0.00     0.000 HD 
HETATM   14  H   UNL     1      -7.262  10.759  69.854  1.00  0.00     0.000 HD 
HETATM   15  C   UNL     1      -8.656   2.799  64.907  1.00  0.00    -0.098 A  
HETATM   16  O   UNL     1     -11.004   7.058  66.795  1.00  0.00    -0.317 OA 
HETATM   17  C   UNL     1      -7.079   8.232  66.163  1.00  0.00    -0.065 A  
HETATM   18  C   UNL     1      -8.270   4.145  65.139  1.00  0.00    -0.102 A  
HETATM   19  O   UNL     1      -5.794   8.678  65.963  1.00  0.00    -0.046 OA 
HETATM   20  C   UNL     1      -7.469   6.921  65.781  1.00  0.00    -0.084 A  
HETATM   21  O   UNL     1     -10.463   4.982  65.500  1.00  0.00    -0.079 OA 
HETATM   22  C   UNL     1      -9.292   8.682  67.039  1.00  0.00    -0.202 A  
HETATM   23  C   UNL     1      -9.696   7.415  66.567  1.00  0.00    -0.156 A  
HETATM   24  C   UNL     1      -9.250   5.191  65.510  1.00  0.00    -0.136 C  
HETATM   25  C   UNL     1      -8.794   6.532  65.947  1.00  0.00    -0.131 A  
HETATM   26  H   UNL     1      -5.193   8.082  65.533  1.00  0.00     0.000 HD 
ENDROOT
BRANCH   1  27
HETATM   27  O   UNL     1      -9.969   8.700  69.215  1.00  0.00    -0.184 OA 
BRANCH  27  28
HETATM   28  C   UNL     1     -10.899   7.713  69.628  1.00  0.00    -0.191 C  
HETATM   29  O   UNL     1     -11.987   8.343  70.344  1.00  0.00    -0.030 OA 
HETATM   30  C   UNL     1     -12.818   9.527  72.320  1.00  0.00    -0.426 C  
HETATM   31  C   UNL     1     -11.173   7.650  72.527  1.00  0.00    -0.346 C  
HETATM   32  O   UNL     1     -12.177   6.622  72.596  1.00  0.00    -0.494 OA 
HETATM   33  H   UNL     1     -12.964   6.960  73.007  1.00  0.00     0.000 HD 
HETATM   34  C   UNL     1      -9.902   7.104  71.864  1.00  0.00    -0.159 C  
HETATM   35  C   UNL     1     -11.641   8.818  71.654  1.00  0.00    -0.320 C  
HETATM   36  C   UNL     1     -10.229   6.604  70.456  1.00  0.00    -0.215 C  
BRANCH  34  37
HETATM   37  N   UNL     1      -9.258   6.095  72.700  1.00  0.00    -0.140 N  
HETATM   38  H   UNL     1      -9.821   5.464  73.269  1.00  0.00     0.000 HD 
HETATM   39  C   UNL     1      -7.273   4.971  73.694  1.00  0.00    -0.082 C  
HETATM   40  F   UNL     1      -6.653   3.942  73.058  1.00  0.00    -0.029 F  
HETATM   41  O   UNL     1      -7.166   6.715  71.989  1.00  0.00    -0.079 OA 
HETATM   42  F   UNL     1      -6.357   5.527  74.535  1.00  0.00    -0.062 F  
HETATM   43  F   UNL     1      -8.232   4.415  74.490  1.00  0.00    -0.088 F  
HETATM   44  C   UNL     1      -7.863   6.001  72.714  1.00  0.00    -0.107 C  
ENDBRANCH  34  37
ENDBRANCH  27  28
ENDBRANCH   1  27
BRANCH   5  45
HETATM   45  C   UNL     1      -7.859  12.610  68.642  1.00  0.00    -0.043 C  
HETATM   46  O   UNL     1      -6.692  12.726  69.051  1.00  0.00    -0.095 OA 
BRANCH  45  47
HETATM   47  C   UNL     1      -8.781  13.828  68.738  1.00  0.00     0.038 C  
BRANCH  47  48
HETATM   48  O   UNL     1      -8.207  15.087  69.049  1.00  0.00    -0.166 OA 
BRANCH  48  49
HETATM   49  C   UNL     1      -9.012  16.147  68.771  1.00  0.00    -0.236 C  
HETATM   50  O   UNL     1      -8.625  17.290  68.580  1.00  0.00    -0.269 OA 
BRANCH  49  51
HETATM   51  C   UNL     1     -10.449  15.699  68.694  1.00  0.00    -0.231 C  
BRANCH  51  52
HETATM   52  C   UNL     1     -11.228  16.093  69.947  1.00  0.00    -0.349 C  
BRANCH  52  53
HETATM   53  C   UNL     1     -11.889  14.886  70.618  1.00  0.00    -0.357 C  
HETATM   54  C   UNL     1     -13.403  14.988  70.614  1.00  0.00    -0.279 C  
ENDBRANCH  52  53
ENDBRANCH  51  52
ENDBRANCH  49  51
ENDBRANCH  48  49
ENDBRANCH  47  48
ENDBRANCH  45  47
ENDBRANCH   5  45
BRANCH  15  55
HETATM   55  O   UNL     1      -9.980   2.464  65.040  1.00  0.00     0.157 OA 
HETATM   56  C   UNL     1     -10.647   1.954  63.888  1.00  0.00     0.088 C  
ENDBRANCH  15  55
TORSDOF 11
ENDMDL
MODEL       54
REMARK 921   NORMALIZED FREE ENERGY PREDICTED BY IDOCK:   -3.14 KCAL/MOL
REMARK 922        TOTAL FREE ENERGY PREDICTED BY IDOCK:   -8.71 KCAL/MOL
REMARK 923 INTER-LIGAND FREE ENERGY PREDICTED BY IDOCK:   -9.07 KCAL/MOL
REMARK 924 INTRA-LIGAND FREE ENERGY PREDICTED BY IDOCK:    0.36 KCAL/MOL
REMARK 927      BINDING AFFINITY PREDICTED BY RF-SCORE:    0.00 PKD
ROOT
HETATM    1  C   UNL     1      -7.830   9.741  67.767  1.00  0.00    -0.094 C  
HETATM    2  O   UNL     1      -6.774   7.602  73.844  1.00  0.00    -0.079 OA 
HETATM    3  C   UNL     1      -6.876  10.935  67.475  1.00  0.00    -0.079 C  
HETATM    4  C   UNL     1      -7.297   7.058  72.870  1.00  0.00    -0.073 C  
HETATM    5  C   UNL     1      -6.795  11.866  68.682  1.00  0.00    -0.086 C  
HETATM    6  O   UNL     1      -8.131  12.335  68.938  1.00  0.00    -0.334 OA 
HETATM    7  C   UNL     1      -6.211  11.055  69.881  1.00  0.00    -0.127 C  
HETATM    8  C   UNL     1      -8.043   5.771  73.055  1.00  0.00    -0.118 A  
HETATM    9  C   UNL     1      -8.261   5.269  74.349  1.00  0.00    -0.101 A  
HETATM   10  C   UNL     1      -6.783   9.652  70.087  1.00  0.00    -0.089 A  
HETATM   11  C   UNL     1      -8.979   4.085  74.541  1.00  0.00    -0.107 A  
HETATM   12  C   UNL     1      -9.461   3.371  73.447  1.00  0.00    -0.128 A  
HETATM   13  H   UNL     1      -8.487   7.481  67.269  1.00  0.00     0.000 HD 
HETATM   14  H   UNL     1      -8.080  12.915  69.688  1.00  0.00     0.000 HD 
HETATM   15  C   UNL     1      -9.227   3.837  72.149  1.00  0.00    -0.119 A  
HETATM   16  O   UNL     1      -8.438   7.046  68.112  1.00  0.00    -0.127 OA 
HETATM   17  C   UNL     1      -6.699   8.987  71.335  1.00  0.00    -0.074 A  
HETATM   18  C   UNL     1      -8.540   5.063  71.954  1.00  0.00    -0.131 A  
HETATM   19  O   UNL     1      -6.098   9.670  72.366  1.00  0.00    -0.297 OA 
HETATM   20  C   UNL     1      -7.249   7.693  71.534  1.00  0.00    -0.063 A  
HETATM   21  O   UNL     1      -8.611   5.023  69.581  1.00  0.00    -0.087 OA 
HETATM   22  C   UNL     1      -7.411   8.982  69.020  1.00  0.00    -0.074 A  
HETATM   23  C   UNL     1      -7.866   7.659  69.201  1.00  0.00    -0.118 A  
HETATM   24  C   UNL     1      -8.327   5.640  70.607  1.00  0.00    -0.118 C  
HETATM   25  C   UNL     1      -7.794   7.014  70.449  1.00  0.00    -0.108 A  
HETATM   26  H   UNL     1      -6.042   9.225  73.203  1.00  0.00     0.000 HD 
ENDROOT
BRANCH   1  27
HETATM   27  O   UNL     1      -9.196  10.054  68.093  1.00  0.00    -0.127 OA 
BRANCH  27  28
HETATM   28  C   UNL     1     -10.206   9.903  67.109  1.00  0.00    -0.228 C  
HETATM   29  O   UNL     1      -9.721   9.051  66.044  1.00  0.00    -0.265 OA 
HETATM   30  C   UNL     1      -8.226   8.683  64.140  1.00  0.00    -0.156 C  
HETATM   31  C   UNL     1      -9.328  10.900  64.517  1.00  0.00    -0.223 C  
HETATM   32  O   UNL     1     -10.517  10.567  63.778  1.00  0.00    -0.454 OA 
HETATM   33  H   UNL     1     -10.308   9.957  63.079  1.00  0.00     0.000 HD 
HETATM   34  C   UNL     1      -9.665  11.885  65.644  1.00  0.00    -0.227 C  
HETATM   35  C   UNL     1      -8.737   9.662  65.196  1.00  0.00    -0.166 C  
HETATM   36  C   UNL     1     -10.700  11.261  66.582  1.00  0.00    -0.321 C  
BRANCH  34  37
HETATM   37  N   UNL     1     -10.076  13.182  65.112  1.00  0.00    -0.460 N  
HETATM   38  H   UNL     1      -9.405  13.770  64.621  1.00  0.00     0.000 HD 
HETATM   39  C   UNL     1     -11.710  15.026  64.772  1.00  0.00    -0.370 C  
HETATM   40  F   UNL     1     -12.569  15.022  63.718  1.00  0.00    -0.371 F  
HETATM   41  O   UNL     1     -12.237  12.887  65.823  1.00  0.00    -0.444 OA 
HETATM   42  F   UNL     1     -12.269  15.809  65.735  1.00  0.00     0.497 F  
HETATM   43  F   UNL     1     -10.587  15.680  64.355  1.00  0.00    -0.327 F  
HETATM   44  C   UNL     1     -11.395  13.609  65.283  1.00  0.00    -0.296 C  
ENDBRANCH  34  37
ENDBRANCH  27  28
ENDBRANCH   1  27
BRANCH   5  45
HETATM   45  C   UNL     1      -6.088  13.239  68.603  1.00  0.00    -0.085 C  
HETATM   46  O   UNL     1      -5.147  13.475  69.380  1.00  0.00    -0.081 OA 
BRANCH  45  47
HETATM   47  C   UNL     1      -6.693  14.413  67.828  1.00  0.00    -0.175 C  
BRANCH  47  48
HETATM   48  O   UNL     1      -5.871  15.534  67.550  1.00  0.00    -0.250 OA 
BRANCH  48  49
HETATM   49  C   UNL     1      -6.554  16.702  67.414  1.00  0.00    -0.168 C  
HETATM   50  O   UNL     1      -7.568  16.847  66.748  1.00  0.00    -0.191 OA 
BRANCH  49  51
HETATM   51  C   UNL     1      -5.902  17.782  68.237  1.00  0.00    -0.162 C  
BRANCH  51  52
HETATM   52  C   UNL     1      -6.932  18.758  68.800  1.00  0.00    -0.329 C  
BRANCH  52  53
HETATM   53  C   UNL     1      -6.328  20.136  69.081  1.00  0.00    -0.358 C  
HETATM   54  C   UNL     1      -5.707  20.218  70.463  1.00  0.00    -0.367 C  
ENDBRANCH  52  53
ENDBRANCH  51  52
ENDBRANCH  49  51
ENDBRANCH  48  49
ENDBRANCH  47  48
ENDBRANCH  45  47
ENDBRANCH   5  45
BRANCH  15  55
HETATM   55  O   UNL     1      -9.715   3.176  71.049  1.00  0.00    -0.162 OA 
HETATM   56  C   UNL     1      -9.873   1.763  71.151  1.00  0.00    -0.071 C  
ENDBRANCH  15  55
TORSDOF 11
ENDMDL
MODEL       55
REMARK 921   NORMALIZED FREE ENERGY PREDICTED BY IDOCK:   -3.10 KCAL/MOL
REMARK 922        TOTAL FREE ENERGY PREDICTED BY IDOCK:   -8.63 KCAL/MOL
REMARK 923 INTER-LIGAND FREE ENERGY PREDICTED BY IDOCK:   -7.08 KCAL/MOL
REMARK 924 INTRA-LIGAND FREE ENERGY PREDICTED BY IDOCK:   -1.56 KCAL/MOL
REMARK 927      BINDING AFFINITY PREDICTED BY RF-SCORE:    0.00 PKD
ROOT
HETATM    1  C   UNL     1      -8.118  10.677  68.796  1.00  0.00    -0.139 C  
HETATM    2  O   UNL     1      -5.294   8.974  63.161  1.00  0.00    -0.067 OA 
HETATM    3  C   UNL     1      -7.974  12.213  68.992  1.00  0.00     0.208 C  
HETATM    4  C   UNL     1      -6.137   8.402  63.853  1.00  0.00    -0.071 C  
HETATM    5  C   UNL     1      -6.578  12.679  68.588  1.00  0.00    -0.083 C  
HETATM    6  O   UNL     1      -5.644  11.971  69.423  1.00  0.00    -0.061 OA 
HETATM    7  C   UNL     1      -6.379  12.359  67.073  1.00  0.00     0.011 C  
HETATM    8  C   UNL     1      -6.487   6.973  63.561  1.00  0.00    -0.044 A  
HETATM    9  C   UNL     1      -5.756   6.257  62.598  1.00  0.00    -0.023 A  
HETATM   10  C   UNL     1      -6.844  10.978  66.610  1.00  0.00    -0.137 A  
HETATM   11  C   UNL     1      -6.051   4.916  62.334  1.00  0.00    -0.014 A  
HETATM   12  C   UNL     1      -7.096   4.283  63.001  1.00  0.00    -0.044 A  
HETATM   13  H   UNL     1      -9.566   8.789  68.442  1.00  0.00     0.000 HD 
HETATM   14  H   UNL     1      -4.775  12.261  69.172  1.00  0.00     0.000 HD 
HETATM   15  C   UNL     1      -7.857   4.988  63.939  1.00  0.00    -0.088 A  
HETATM   16  O   UNL     1      -9.221   8.389  67.652  1.00  0.00    -0.133 OA 
HETATM   17  C   UNL     1      -6.348  10.382  65.425  1.00  0.00    -0.122 A  
HETATM   18  C   UNL     1      -7.529   6.334  64.243  1.00  0.00    -0.086 A  
HETATM   19  O   UNL     1      -5.409  11.093  64.715  1.00  0.00    -0.485 OA 
HETATM   20  C   UNL     1      -6.761   9.090  65.005  1.00  0.00    -0.069 A  
HETATM   21  O   UNL     1      -9.263   6.668  65.831  1.00  0.00    -0.099 OA 
HETATM   22  C   UNL     1      -7.792  10.262  67.366  1.00  0.00    -0.102 A  
HETATM   23  C   UNL     1      -8.269   9.023  66.888  1.00  0.00    -0.116 A  
HETATM   24  C   UNL     1      -8.254   7.106  65.280  1.00  0.00    -0.128 C  
HETATM   25  C   UNL     1      -7.758   8.432  65.719  1.00  0.00    -0.094 A  
HETATM   26  H   UNL     1      -5.076  10.693  63.920  1.00  0.00     0.000 HD 
ENDROOT
BRANCH   1  27
HETATM   27  O   UNL     1      -7.214   9.832  69.528  1.00  0.00    -0.069 OA 
BRANCH  27  28
HETATM   28  C   UNL     1      -7.524   9.457  70.860  1.00  0.00    -0.072 C  
HETATM   29  O   UNL     1      -6.619   8.414  71.293  1.00  0.00    -0.044 OA 
HETATM   30  C   UNL     1      -5.826   6.102  71.144  1.00  0.00    -0.026 C  
HETATM   31  C   UNL     1      -8.267   6.647  71.035  1.00  0.00    -0.120 C  
HETATM   32  O   UNL     1      -8.463   6.595  72.459  1.00  0.00    -0.123 OA 
HETATM   33  H   UNL     1      -7.865   5.968  72.849  1.00  0.00     0.000 HD 
HETATM   34  C   UNL     1      -9.233   7.660  70.405  1.00  0.00    -0.156 C  
HETATM   35  C   UNL     1      -6.857   7.134  70.690  1.00  0.00    -0.053 C  
HETATM   36  C   UNL     1      -8.997   9.044  71.011  1.00  0.00    -0.304 C  
BRANCH  34  37
HETATM   37  N   UNL     1     -10.619   7.211  70.514  1.00  0.00    -0.220 N  
HETATM   38  H   UNL     1     -11.067   6.734  69.732  1.00  0.00     0.000 HD 
HETATM   39  C   UNL     1     -12.806   7.016  71.685  1.00  0.00    -0.364 C  
HETATM   40  F   UNL     1     -13.060   5.987  72.537  1.00  0.00    -0.165 F  
HETATM   41  O   UNL     1     -10.785   7.962  72.675  1.00  0.00    -0.290 OA 
HETATM   42  F   UNL     1     -13.637   8.036  72.036  1.00  0.00    -0.325 F  
HETATM   43  F   UNL     1     -13.209   6.605  70.447  1.00  0.00    -0.085 F  
HETATM   44  C   UNL     1     -11.326   7.440  71.697  1.00  0.00    -0.256 C  
ENDBRANCH  34  37
ENDBRANCH  27  28
ENDBRANCH   1  27
BRANCH   5  45
HETATM   45  C   UNL     1      -6.086  14.117  68.874  1.00  0.00    -0.085 C  
HETATM   46  O   UNL     1      -6.201  14.572  70.025  1.00  0.00    -0.136 OA 
BRANCH  45  47
HETATM   47  C   UNL     1      -5.754  15.094  67.744  1.00  0.00    -0.101 C  
BRANCH  47  48
HETATM   48  O   UNL     1      -6.816  15.599  66.953  1.00  0.00    -0.245 OA 
BRANCH  48  49
HETATM   49  C   UNL     1      -7.899  16.001  67.670  1.00  0.00    -0.142 C  
HETATM   50  O   UNL     1      -7.908  16.930  68.464  1.00  0.00    -0.217 OA 
BRANCH  49  51
HETATM   51  C   UNL     1      -9.098  15.161  67.313  1.00  0.00    -0.210 C  
BRANCH  51  52
HETATM   52  C   UNL     1      -9.454  15.290  65.834  1.00  0.00    -0.351 C  
BRANCH  52  53
HETATM   53  C   UNL     1     -10.042  13.996  65.266  1.00  0.00    -0.345 C  
HETATM   54  C   UNL     1     -10.269  12.951  66.342  1.00  0.00    -0.273 C  
ENDBRANCH  52  53
ENDBRANCH  51  52
ENDBRANCH  49  51
ENDBRANCH  48  49
ENDBRANCH  47  48
ENDBRANCH  45  47
ENDBRANCH   5  45
BRANCH  15  55
HETATM   55  O   UNL     1      -8.874   4.386  64.638  1.00  0.00    -0.135 OA 
HETATM   56  C   UNL     1      -9.977   3.883  63.887  1.00  0.00    -0.180 C  
ENDBRANCH  15  55
TORSDOF 11
ENDMDL
MODEL       56
REMARK 921   NORMALIZED FREE ENERGY PREDICTED BY IDOCK:   -2.89 KCAL/MOL
REMARK 922        TOTAL FREE ENERGY PREDICTED BY IDOCK:   -8.29 KCAL/MOL
REMARK 923 INTER-LIGAND FREE ENERGY PREDICTED BY IDOCK:   -6.32 KCAL/MOL
REMARK 924 INTRA-LIGAND FREE ENERGY PREDICTED BY IDOCK:   -1.97 KCAL/MOL
REMARK 927      BINDING AFFINITY PREDICTED BY RF-SCORE:    0.00 PKD
ROOT
HETATM    1  C   UNL     1      -9.128   6.838  68.777  1.00  0.00    -0.132 C  
HETATM    2  O   UNL     1      -5.615  11.500  65.855  1.00  0.00    -0.214 OA 
HETATM    3  C   UNL     1      -9.137   5.569  67.877  1.00  0.00    -0.109 C  
HETATM    4  C   UNL     1      -5.946  11.349  67.032  1.00  0.00    -0.112 C  
HETATM    5  C   UNL     1      -9.318   5.950  66.411  1.00  0.00    -0.157 C  
HETATM    6  O   UNL     1     -10.572   6.650  66.314  1.00  0.00    -0.461 OA 
HETATM    7  C   UNL     1      -8.109   6.841  65.988  1.00  0.00    -0.119 C  
HETATM    8  C   UNL     1      -5.746  12.472  68.006  1.00  0.00    -0.082 A  
HETATM    9  C   UNL     1      -5.317  13.728  67.546  1.00  0.00     0.151 A  
HETATM   10  C   UNL     1      -7.700   7.935  66.975  1.00  0.00    -0.100 A  
HETATM   11  C   UNL     1      -5.153  14.793  68.436  1.00  0.00    -0.108 A  
HETATM   12  C   UNL     1      -5.383  14.611  69.797  1.00  0.00    -0.093 A  
HETATM   13  H   UNL     1      -8.463   7.872  70.844  1.00  0.00     0.000 HD 
HETATM   14  H   UNL     1     -10.686   6.887  65.401  1.00  0.00     0.000 HD 
HETATM   15  C   UNL     1      -5.779  13.359  70.280  1.00  0.00    -0.154 A  
HETATM   16  O   UNL     1      -7.972   8.635  70.563  1.00  0.00    -0.088 OA 
HETATM   17  C   UNL     1      -6.954   9.068  66.568  1.00  0.00    -0.080 A  
HETATM   18  C   UNL     1      -5.992  12.291  69.372  1.00  0.00    -0.100 A  
HETATM   19  O   UNL     1      -6.629   9.153  65.235  1.00  0.00    -0.067 OA 
HETATM   20  C   UNL     1      -6.593  10.096  67.479  1.00  0.00    -0.068 A  
HETATM   21  O   UNL     1      -6.593  10.679  71.009  1.00  0.00    -0.289 OA 
HETATM   22  C   UNL     1      -8.063   7.833  68.332  1.00  0.00    -0.124 A  
HETATM   23  C   UNL     1      -7.615   8.809  69.246  1.00  0.00    -0.093 A  
HETATM   24  C   UNL     1      -6.480  10.965  69.818  1.00  0.00    -0.128 C  
HETATM   25  C   UNL     1      -6.889   9.939  68.829  1.00  0.00    -0.054 A  
HETATM   26  H   UNL     1      -6.128   9.913  64.961  1.00  0.00     0.000 HD 
ENDROOT
BRANCH   1  27
HETATM   27  O   UNL     1     -10.298   7.673  68.749  1.00  0.00    -0.200 OA 
BRANCH  27  28
HETATM   28  C   UNL     1     -11.495   7.227  69.364  1.00  0.00     0.208 C  
HETATM   29  O   UNL     1     -12.142   8.339  70.027  1.00  0.00     0.402 OA 
HETATM   30  C   UNL     1     -12.185   9.997  71.828  1.00  0.00    -0.383 C  
HETATM   31  C   UNL     1     -11.435   7.645  72.245  1.00  0.00    -0.317 C  
HETATM   32  O   UNL     1     -12.755   7.150  72.533  1.00  0.00    -0.476 OA 
HETATM   33  H   UNL     1     -13.283   7.836  72.925  1.00  0.00     0.000 HD 
HETATM   34  C   UNL     1     -10.582   6.538  71.612  1.00  0.00    -0.217 C  
HETATM   35  C   UNL     1     -11.484   8.783  71.222  1.00  0.00    -0.292 C  
HETATM   36  C   UNL     1     -11.244   6.051  70.322  1.00  0.00    -0.392 C  
BRANCH  34  37
HETATM   37  N   UNL     1     -10.313   5.464  72.564  1.00  0.00    -0.198 N  
HETATM   38  H   UNL     1     -11.053   5.122  73.175  1.00  0.00     0.000 HD 
HETATM   39  C   UNL     1      -8.820   3.847  73.726  1.00  0.00    -0.092 C  
HETATM   40  F   UNL     1      -8.588   2.609  73.215  1.00  0.00    -0.070 F  
HETATM   41  O   UNL     1      -8.138   5.266  71.860  1.00  0.00    -0.110 OA 
HETATM   42  F   UNL     1      -7.766   4.146  74.535  1.00  0.00    -0.074 F  
HETATM   43  F   UNL     1      -9.907   3.733  74.543  1.00  0.00    -0.129 F  
HETATM   44  C   UNL     1      -9.032   4.908  72.630  1.00  0.00    -0.127 C  
ENDBRANCH  34  37
ENDBRANCH  27  28
ENDBRANCH   1  27
BRANCH   5  45
HETATM   45  C   UNL     1      -9.573   4.885  65.319  1.00  0.00    -0.064 C  
HETATM   46  O   UNL     1     -10.542   4.117  65.446  1.00  0.00    -0.182 OA 
BRANCH  45  47
HETATM   47  C   UNL     1      -8.517   4.545  64.264  1.00  0.00    -0.120 C  
BRANCH  47  48
HETATM   48  O   UNL     1      -7.433   3.711  64.637  1.00  0.00    -0.070 OA 
BRANCH  48  49
HETATM   49  C   UNL     1      -7.788   2.657  65.419  1.00  0.00    -0.078 C  
HETATM   50  O   UNL     1      -8.520   1.742  65.073  1.00  0.00    -0.081 OA 
BRANCH  49  51
HETATM   51  C   UNL     1      -7.115   2.760  66.764  1.00  0.00    -0.050 C  
BRANCH  51  52
HETATM   52  C   UNL     1      -7.751   1.819  67.784  1.00  0.00    -0.058 C  
BRANCH  52  53
HETATM   53  C   UNL     1      -8.269   2.567  69.015  1.00  0.00    -0.071 C  
HETATM   54  C   UNL     1      -7.422   2.300  70.245  1.00  0.00    -0.039 C  
ENDBRANCH  52  53
ENDBRANCH  51  52
ENDBRANCH  49  51
ENDBRANCH  48  49
ENDBRANCH  47  48
ENDBRANCH  45  47
ENDBRANCH   5  45
BRANCH  15  55
HETATM   55  O   UNL     1      -6.044  13.153  71.611  1.00  0.00    -0.066 OA 
HETATM   56  C   UNL     1      -5.383  13.998  72.549  1.00  0.00    -0.197 C  
ENDBRANCH  15  55
TORSDOF 11
ENDMDL
MODEL       57
REMARK 921   NORMALIZED FREE ENERGY PREDICTED BY IDOCK:   -2.76 KCAL/MOL
REMARK 922        TOTAL FREE ENERGY PREDICTED BY IDOCK:   -8.09 KCAL/MOL
REMARK 923 INTER-LIGAND FREE ENERGY PREDICTED BY IDOCK:  -10.82 KCAL/MOL
REMARK 924 INTRA-LIGAND FREE ENERGY PREDICTED BY IDOCK:    2.73 KCAL/MOL
REMARK 927      BINDING AFFINITY PREDICTED BY RF-SCORE:    0.00 PKD
ROOT
HETATM    1  C   UNL     1     -11.309  12.459  68.415  1.00  0.00    -0.285 C  
HETATM    2  O   UNL     1      -9.576   6.244  67.419  1.00  0.00    -0.116 OA 
HETATM    3  C   UNL     1     -11.933  13.028  67.109  1.00  0.00    -0.389 C  
HETATM    4  C   UNL     1      -9.792   6.872  68.457  1.00  0.00    -0.144 C  
HETATM    5  C   UNL     1     -11.137  12.572  65.889  1.00  0.00    -0.299 C  
HETATM    6  O   UNL     1      -9.794  13.057  66.063  1.00  0.00    -0.272 OA 
HETATM    7  C   UNL     1     -11.200  11.014  65.823  1.00  0.00     0.085 C  
HETATM    8  C   UNL     1      -9.416   6.267  69.777  1.00  0.00    -0.163 A  
HETATM    9  C   UNL     1      -8.698   5.061  69.815  1.00  0.00    -0.111 A  
HETATM   10  C   UNL     1     -10.987  10.275  67.144  1.00  0.00    -0.233 A  
HETATM   11  C   UNL     1      -8.315   4.498  71.036  1.00  0.00    -0.098 A  
HETATM   12  C   UNL     1      -8.671   5.114  72.234  1.00  0.00    -0.127 A  
HETATM   13  H   UNL     1     -11.609  11.827  70.716  1.00  0.00     0.000 HD 
HETATM   14  H   UNL     1      -9.298  12.774  65.303  1.00  0.00     0.000 HD 
HETATM   15  C   UNL     1      -9.414   6.299  72.219  1.00  0.00    -0.149 A  
HETATM   16  O   UNL     1     -11.324  10.920  70.736  1.00  0.00    -0.191 OA 
HETATM   17  C   UNL     1     -10.580   8.919  67.184  1.00  0.00    -0.231 A  
HETATM   18  C   UNL     1      -9.761   6.895  70.980  1.00  0.00    -0.178 A  
HETATM   19  O   UNL     1     -10.363   8.298  65.976  1.00  0.00    -0.299 OA 
HETATM   20  C   UNL     1     -10.359   8.237  68.410  1.00  0.00    -0.237 A  
HETATM   21  O   UNL     1     -10.941   8.737  71.905  1.00  0.00    -0.318 OA 
HETATM   22  C   UNL     1     -11.197  10.940  68.367  1.00  0.00    -0.347 A  
HETATM   23  C   UNL     1     -11.071  10.226  69.577  1.00  0.00    -0.262 A  
HETATM   24  C   UNL     1     -10.484   8.186  70.904  1.00  0.00    -0.202 C  
HETATM   25  C   UNL     1     -10.650   8.884  69.607  1.00  0.00    -0.230 A  
HETATM   26  H   UNL     1     -10.089   7.388  66.002  1.00  0.00     0.000 HD 
ENDROOT
BRANCH   1  27
HETATM   27  O   UNL     1      -9.945  12.814  68.702  1.00  0.00    -0.190 OA 
BRANCH  27  28
HETATM   28  C   UNL     1      -8.972  12.760  67.672  1.00  0.00    -0.191 C  
HETATM   29  O   UNL     1      -7.992  11.743  67.986  1.00  0.00    -0.125 OA 
HETATM   30  C   UNL     1      -6.136  10.946  69.371  1.00  0.00    -0.056 C  
HETATM   31  C   UNL     1      -6.307  13.348  68.686  1.00  0.00    -0.091 C  
HETATM   32  O   UNL     1      -5.594  13.169  67.450  1.00  0.00    -0.320 OA 
HETATM   33  H   UNL     1      -4.954  12.472  67.539  1.00  0.00     0.000 HD 
HETATM   34  C   UNL     1      -7.340  14.474  68.543  1.00  0.00    -0.120 C  
HETATM   35  C   UNL     1      -7.098  12.090  69.054  1.00  0.00    -0.077 C  
HETATM   36  C   UNL     1      -8.323  14.131  67.422  1.00  0.00    -0.210 C  
BRANCH  34  37
HETATM   37  N   UNL     1      -6.692  15.771  68.365  1.00  0.00    -0.113 N  
HETATM   38  H   UNL     1      -5.728  15.822  68.039  1.00  0.00     0.000 HD 
HETATM   39  C   UNL     1      -6.610  18.253  68.518  1.00  0.00    -0.222 C  
HETATM   40  F   UNL     1      -7.059  19.037  67.502  1.00  0.00    -0.209 F  
HETATM   41  O   UNL     1      -8.589  16.902  68.984  1.00  0.00    -0.238 OA 
HETATM   42  F   UNL     1      -6.669  19.002  69.653  1.00  0.00    -0.305 F  
HETATM   43  F   UNL     1      -5.285  18.027  68.279  1.00  0.00    -0.150 F  
HETATM   44  C   UNL     1      -7.404  16.940  68.645  1.00  0.00    -0.222 C  
ENDBRANCH  34  37
ENDBRANCH  27  28
ENDBRANCH   1  27
BRANCH   5  45
HETATM   45  C   UNL     1     -11.403  13.154  64.480  1.00  0.00    -0.349 C  
HETATM   46  O   UNL     1     -10.724  12.743  63.525  1.00  0.00    -0.372 OA 
BRANCH  45  47
HETATM   47  C   UNL     1     -12.245  14.416  64.276  1.00  0.00    -0.423 C  
BRANCH  47  48
HETATM   48  O   UNL     1     -11.577  15.643  64.042  1.00  0.00    -0.330 OA 
BRANCH  48  49
HETATM   49  C   UNL     1     -10.675  15.976  65.004  1.00  0.00    -0.378 C  
HETATM   50  O   UNL     1      -9.530  15.555  65.067  1.00  0.00    -0.076 OA 
BRANCH  49  51
HETATM   51  C   UNL     1     -11.280  16.973  65.958  1.00  0.00     0.585 C  
BRANCH  51  52
HETATM   52  C   UNL     1     -10.233  17.950  66.488  1.00  0.00    -0.379 C  
BRANCH  52  53
HETATM   53  C   UNL     1     -10.869  19.146  67.201  1.00  0.00    -0.507 C  
HETATM   54  C   UNL     1      -9.967  20.366  67.187  1.00  0.00    -0.568 C  
ENDBRANCH  52  53
ENDBRANCH  51  52
ENDBRANCH  49  51
ENDBRANCH  48  49
ENDBRANCH  47  48
ENDBRANCH  45  47
ENDBRANCH   5  45
BRANCH  15  55
HETATM   55  O   UNL     1      -9.754   6.948  73.379  1.00  0.00    -0.167 OA 
HETATM   56  C   UNL     1      -8.693   7.348  74.242  1.00  0.00    -0.222 C  
ENDBRANCH  15  55
TORSDOF 11
ENDMDL
MODEL       58
REMARK 921   NORMALIZED FREE ENERGY PREDICTED BY IDOCK:   -2.66 KCAL/MOL
REMARK 922        TOTAL FREE ENERGY PREDICTED BY IDOCK:   -7.92 KCAL/MOL
REMARK 923 INTER-LIGAND FREE ENERGY PREDICTED BY IDOCK:   -7.04 KCAL/MOL
REMARK 924 INTRA-LIGAND FREE ENERGY PREDICTED BY IDOCK:   -0.88 KCAL/MOL
REMARK 927      BINDING AFFINITY PREDICTED BY RF-SCORE:    0.00 PKD
ROOT
HETATM    1  C   UNL     1     -11.296  13.024  67.357  1.00  0.00    -0.305 C  
HETATM    2  O   UNL     1      -5.178  10.778  66.967  1.00  0.00    -0.040 OA 
HETATM    3  C   UNL     1     -11.274  14.576  67.262  1.00  0.00    -0.341 C  
HETATM    4  C   UNL     1      -6.262  10.225  66.772  1.00  0.00    -0.070 C  
HETATM    5  C   UNL     1     -10.124  15.150  68.085  1.00  0.00    -0.222 C  
HETATM    6  O   UNL     1     -10.333  14.728  69.445  1.00  0.00    -0.282 OA 
HETATM    7  C   UNL     1      -8.786  14.605  67.495  1.00  0.00    -0.191 C  
HETATM    8  C   UNL     1      -6.313   8.733  66.624  1.00  0.00    -0.059 A  
HETATM    9  C   UNL     1      -5.156   7.968  66.848  1.00  0.00    -0.031 A  
HETATM   10  C   UNL     1      -8.759  13.115  67.152  1.00  0.00    -0.214 A  
HETATM   11  C   UNL     1      -5.194   6.574  66.744  1.00  0.00    -0.013 A  
HETATM   12  C   UNL     1      -6.374   5.930  66.383  1.00  0.00    -0.038 A  
HETATM   13  H   UNL     1     -11.946  10.926  66.378  1.00  0.00     0.000 HD 
HETATM   14  H   UNL     1      -9.617  15.085  69.958  1.00  0.00     0.000 HD 
HETATM   15  C   UNL     1      -7.529   6.676  66.124  1.00  0.00    -0.081 A  
HETATM   16  O   UNL     1     -11.128  10.447  66.315  1.00  0.00     0.060 OA 
HETATM   17  C   UNL     1      -7.543  12.398  67.039  1.00  0.00    -0.044 A  
HETATM   18  C   UNL     1      -7.505   8.086  66.277  1.00  0.00    -0.082 A  
HETATM   19  O   UNL     1      -6.382  13.097  67.273  1.00  0.00    -0.370 OA 
HETATM   20  C   UNL     1      -7.516  11.009  66.744  1.00  0.00    -0.139 A  
HETATM   21  O   UNL     1      -9.766   8.450  65.652  1.00  0.00     0.019 OA 
HETATM   22  C   UNL     1      -9.963  12.418  66.936  1.00  0.00    -0.223 A  
HETATM   23  C   UNL     1      -9.920  11.063  66.546  1.00  0.00    -0.212 A  
HETATM   24  C   UNL     1      -8.715   8.919  66.087  1.00  0.00    -0.153 C  
HETATM   25  C   UNL     1      -8.709  10.355  66.453  1.00  0.00    -0.149 A  
HETATM   26  H   UNL     1      -5.566  12.615  67.198  1.00  0.00     0.000 HD 
ENDROOT
BRANCH   1  27
HETATM   27  O   UNL     1     -11.446  12.446  68.666  1.00  0.00    -0.254 OA 
BRANCH  27  28
HETATM   28  C   UNL     1     -12.599  11.678  68.967  1.00  0.00     0.626 C  
HETATM   29  O   UNL     1     -13.278  12.252  70.109  1.00  0.00     0.688 OA 
HETATM   30  C   UNL     1     -13.344  12.745  72.507  1.00  0.00    -0.319 C  
HETATM   31  C   UNL     1     -12.467  10.561  71.654  1.00  0.00    -0.340 C  
HETATM   32  O   UNL     1     -13.750   9.912  71.649  1.00  0.00    -0.277 OA 
HETATM   33  H   UNL     1     -14.299  10.267  72.339  1.00  0.00     0.000 HD 
HETATM   34  C   UNL     1     -11.581   9.989  70.539  1.00  0.00    -0.323 C  
HETATM   35  C   UNL     1     -12.604  12.058  71.361  1.00  0.00    -0.225 C  
HETATM   36  C   UNL     1     -12.260  10.194  69.184  1.00  0.00     0.470 C  
BRANCH  34  37
HETATM   37  N   UNL     1     -11.228   8.596  70.802  1.00  0.00    -0.257 N  
HETATM   38  H   UNL     1     -11.605   7.851  70.217  1.00  0.00     0.000 HD 
HETATM   39  C   UNL     1     -10.131   6.793  72.121  1.00  0.00    -0.181 C  
HETATM   40  F   UNL     1      -8.847   6.420  71.873  1.00  0.00    -0.136 F  
HETATM   41  O   UNL     1      -9.858   9.181  72.547  1.00  0.00     0.029 OA 
HETATM   42  F   UNL     1     -10.405   6.441  73.407  1.00  0.00    -0.184 F  
HETATM   43  F   UNL     1     -10.923   6.007  71.334  1.00  0.00    -0.285 F  
HETATM   44  C   UNL     1     -10.371   8.292  71.863  1.00  0.00    -0.255 C  
ENDBRANCH  34  37
ENDBRANCH  27  28
ENDBRANCH   1  27
BRANCH   5  45
HETATM   45  C   UNL     1      -9.987  16.669  68.343  1.00  0.00    -0.255 C  
HETATM   46  O   UNL     1     -11.008  17.327  68.604  1.00  0.00    -0.260 OA 
BRANCH  45  47
HETATM   47  C   UNL     1      -8.708  17.433  67.990  1.00  0.00    -0.241 C  
BRANCH  47  48
HETATM   48  O   UNL     1      -8.773  18.432  66.986  1.00  0.00    -0.258 OA 
BRANCH  48  49
HETATM   49  C   UNL     1      -7.626  19.147  66.840  1.00  0.00    -0.235 C  
HETATM   50  O   UNL     1      -7.539  20.224  66.271  1.00  0.00    -0.273 OA 
BRANCH  49  51
HETATM   51  C   UNL     1      -6.484  18.436  67.519  1.00  0.00    -0.198 C  
BRANCH  51  52
HETATM   52  C   UNL     1      -6.525  18.626  69.033  1.00  0.00    -0.275 C  
BRANCH  52  53
HETATM   53  C   UNL     1      -5.318  17.990  69.727  1.00  0.00    -0.212 C  
HETATM   54  C   UNL     1      -5.348  18.197  71.230  1.00  0.00    -0.128 C  
ENDBRANCH  52  53
ENDBRANCH  51  52
ENDBRANCH  49  51
ENDBRANCH  48  49
ENDBRANCH  47  48
ENDBRANCH  45  47
ENDBRANCH   5  45
BRANCH  15  55
HETATM   55  O   UNL     1      -8.717   6.071  65.797  1.00  0.00    -0.151 OA 
HETATM   56  C   UNL     1      -8.652   4.852  65.062  1.00  0.00    -0.147 C  
ENDBRANCH  15  55
TORSDOF 11
ENDMDL
MODEL       59
REMARK 921   NORMALIZED FREE ENERGY PREDICTED BY IDOCK:   -2.49 KCAL/MOL
REMARK 922        TOTAL FREE ENERGY PREDICTED BY IDOCK:   -7.64 KCAL/MOL
REMARK 923 INTER-LIGAND FREE ENERGY PREDICTED BY IDOCK:   -7.49 KCAL/MOL
REMARK 924 INTRA-LIGAND FREE ENERGY PREDICTED BY IDOCK:   -0.15 KCAL/MOL
REMARK 927      BINDING AFFINITY PREDICTED BY RF-SCORE:    0.00 PKD
ROOT
HETATM    1  C   UNL     1      -8.075  10.997  66.567  1.00  0.00    -0.161 C  
HETATM    2  O   UNL     1     -13.160  10.088  70.560  1.00  0.00    -0.234 OA 
HETATM    3  C   UNL     1      -7.842   9.701  65.739  1.00  0.00    -0.106 C  
HETATM    4  C   UNL     1     -12.628  11.118  70.142  1.00  0.00    -0.178 C  
HETATM    5  C   UNL     1      -7.996   8.464  66.619  1.00  0.00    -0.097 C  
HETATM    6  O   UNL     1      -7.021   8.577  67.671  1.00  0.00    -0.075 OA 
HETATM    7  C   UNL     1      -9.457   8.438  67.166  1.00  0.00    -0.209 C  
HETATM    8  C   UNL     1     -12.991  12.438  70.755  1.00  0.00     0.032 A  
HETATM    9  C   UNL     1     -13.821  12.478  71.887  1.00  0.00     0.074 A  
HETATM   10  C   UNL     1     -10.007   9.768  67.683  1.00  0.00    -0.217 A  
HETATM   11  C   UNL     1     -14.145  13.698  72.489  1.00  0.00    -0.487 A  
HETATM   12  C   UNL     1     -13.673  14.892  71.950  1.00  0.00    -0.527 A  
HETATM   13  H   UNL     1      -8.690  13.322  66.593  1.00  0.00     0.000 HD 
HETATM   14  H   UNL     1      -7.117   7.807  68.220  1.00  0.00     0.000 HD 
HETATM   15  C   UNL     1     -12.872  14.876  70.804  1.00  0.00    -0.372 A  
HETATM   16  O   UNL     1      -9.413  13.354  67.208  1.00  0.00    -0.218 OA 
HETATM   17  C   UNL     1     -11.096   9.825  68.587  1.00  0.00    -0.093 A  
HETATM   18  C   UNL     1     -12.502  13.636  70.221  1.00  0.00    -0.335 A  
HETATM   19  O   UNL     1     -11.627   8.626  69.000  1.00  0.00     0.011 OA 
HETATM   20  C   UNL     1     -11.593  11.059  69.086  1.00  0.00    -0.389 A  
HETATM   21  O   UNL     1     -11.232  14.559  68.440  1.00  0.00    -0.250 OA 
HETATM   22  C   UNL     1      -9.432  10.982  67.260  1.00  0.00    -0.179 A  
HETATM   23  C   UNL     1      -9.997  12.203  67.684  1.00  0.00    -0.197 A  
HETATM   24  C   UNL     1     -11.598  13.556  69.051  1.00  0.00    -0.311 C  
HETATM   25  C   UNL     1     -11.067  12.249  68.595  1.00  0.00    -0.291 A  
HETATM   26  H   UNL     1     -12.357   8.664  69.606  1.00  0.00     0.000 HD 
ENDROOT
BRANCH   1  27
HETATM   27  O   UNL     1      -7.207  11.225  67.691  1.00  0.00    -0.085 OA 
BRANCH  27  28
HETATM   28  C   UNL     1      -6.155  12.170  67.586  1.00  0.00    -0.110 C  
HETATM   29  O   UNL     1      -5.377  12.165  68.806  1.00  0.00    -0.050 OA 
HETATM   30  C   UNL     1      -5.182  12.660  71.196  1.00  0.00    -0.161 C  
HETATM   31  C   UNL     1      -6.357  14.227  69.637  1.00  0.00    -0.136 C  
HETATM   32  O   UNL     1      -5.168  14.957  69.286  1.00  0.00    -0.090 OA 
HETATM   33  H   UNL     1      -4.560  14.962  70.016  1.00  0.00     0.000 HD 
HETATM   34  C   UNL     1      -7.339  14.219  68.458  1.00  0.00    -0.117 C  
HETATM   35  C   UNL     1      -6.036  12.760  69.933  1.00  0.00    -0.138 C  
HETATM   36  C   UNL     1      -6.676  13.574  67.239  1.00  0.00     0.136 C  
BRANCH  34  37
HETATM   37  N   UNL     1      -7.861  15.557  68.191  1.00  0.00    -0.125 N  
HETATM   38  H   UNL     1      -8.649  15.917  68.727  1.00  0.00     0.000 HD 
HETATM   39  C   UNL     1      -7.946  17.695  66.922  1.00  0.00    -0.226 C  
HETATM   40  F   UNL     1      -7.157  18.749  67.261  1.00  0.00    -0.201 F  
HETATM   41  O   UNL     1      -6.280  15.946  66.574  1.00  0.00     0.005 OA 
HETATM   42  F   UNL     1      -8.275  17.853  65.610  1.00  0.00    -0.111 F  
HETATM   43  F   UNL     1      -9.108  17.837  67.625  1.00  0.00    -0.238 F  
HETATM   44  C   UNL     1      -7.271  16.339  67.194  1.00  0.00    -0.208 C  
ENDBRANCH  34  37
ENDBRANCH  27  28
ENDBRANCH   1  27
BRANCH   5  45
HETATM   45  C   UNL     1      -7.616   7.053  66.113  1.00  0.00    -0.095 C  
HETATM   46  O   UNL     1      -6.615   6.926  65.387  1.00  0.00    -0.048 OA 
BRANCH  45  47
HETATM   47  C   UNL     1      -8.584   5.872  66.217  1.00  0.00    -0.132 C  
BRANCH  47  48
HETATM   48  O   UNL     1      -8.987   5.440  67.506  1.00  0.00    -0.110 OA 
BRANCH  48  49
HETATM   49  C   UNL     1      -7.977   4.930  68.260  1.00  0.00    -0.086 C  
HETATM   50  O   UNL     1      -7.489   5.474  69.239  1.00  0.00    -0.074 OA 
BRANCH  49  51
HETATM   51  C   UNL     1      -7.573   3.576  67.737  1.00  0.00    -0.069 C  
BRANCH  51  52
HETATM   52  C   UNL     1      -7.356   2.578  68.872  1.00  0.00    -0.044 C  
BRANCH  52  53
HETATM   53  C   UNL     1      -5.907   2.088  68.940  1.00  0.00    -0.023 C  
HETATM   54  C   UNL     1      -5.563   1.508  70.300  1.00  0.00    -0.016 C  
ENDBRANCH  52  53
ENDBRANCH  51  52
ENDBRANCH  49  51
ENDBRANCH  48  49
ENDBRANCH  47  48
ENDBRANCH  45  47
ENDBRANCH   5  45
BRANCH  15  55
HETATM   55  O   UNL     1     -12.364  16.032  70.266  1.00  0.00    -0.275 OA 
HETATM   56  C   UNL     1     -11.344  16.704  71.001  1.00  0.00     0.145 C  
ENDBRANCH  15  55
TORSDOF 11
ENDMDL
MODEL       60
REMARK 921   NORMALIZED FREE ENERGY PREDICTED BY IDOCK:   -2.48 KCAL/MOL
REMARK 922        TOTAL FREE ENERGY PREDICTED BY IDOCK:   -7.62 KCAL/MOL
REMARK 923 INTER-LIGAND FREE ENERGY PREDICTED BY IDOCK:   -7.59 KCAL/MOL
REMARK 924 INTRA-LIGAND FREE ENERGY PREDICTED BY IDOCK:   -0.04 KCAL/MOL
REMARK 927      BINDING AFFINITY PREDICTED BY RF-SCORE:    0.00 PKD
ROOT
HETATM    1  C   UNL     1      -8.631   9.031  68.652  1.00  0.00    -0.129 C  
HETATM    2  O   UNL     1      -5.320   7.160  63.346  1.00  0.00    -0.032 OA 
HETATM    3  C   UNL     1      -8.660  10.585  68.711  1.00  0.00    -0.146 C  
HETATM    4  C   UNL     1      -6.139   6.562  64.047  1.00  0.00    -0.034 C  
HETATM    5  C   UNL     1      -7.299  11.163  68.334  1.00  0.00    -0.094 C  
HETATM    6  O   UNL     1      -6.347  10.637  69.276  1.00  0.00    -0.049 OA 
HETATM    7  C   UNL     1      -6.980  10.736  66.867  1.00  0.00    -0.109 C  
HETATM    8  C   UNL     1      -6.320   5.084  63.872  1.00  0.00    -0.022 A  
HETATM    9  C   UNL     1      -5.464   4.370  63.017  1.00  0.00    -0.009 A  
HETATM   10  C   UNL     1      -7.271   9.277  66.513  1.00  0.00    -0.086 A  
HETATM   11  C   UNL     1      -5.600   2.987  62.865  1.00  0.00    -0.009 A  
HETATM   12  C   UNL     1      -6.612   2.305  63.536  1.00  0.00    -0.026 A  
HETATM   13  H   UNL     1      -9.851   6.973  68.406  1.00  0.00     0.000 HD 
HETATM   14  H   UNL     1      -5.500  10.997  69.041  1.00  0.00     0.000 HD 
HETATM   15  C   UNL     1      -7.495   3.001  64.367  1.00  0.00    -0.075 A  
HETATM   16  O   UNL     1      -9.420   6.545  67.675  1.00  0.00    -0.124 OA 
HETATM   17  C   UNL     1      -6.647   8.637  65.414  1.00  0.00    -0.067 A  
HETATM   18  C   UNL     1      -7.328   4.397  64.559  1.00  0.00    -0.071 A  
HETATM   19  O   UNL     1      -5.747   9.382  64.688  1.00  0.00    -0.065 OA 
HETATM   20  C   UNL     1      -6.897   7.276  65.098  1.00  0.00    -0.047 A  
HETATM   21  O   UNL     1      -9.177   4.677  66.023  1.00  0.00    -0.130 OA 
HETATM   22  C   UNL     1      -8.181   8.531  67.286  1.00  0.00    -0.108 A  
HETATM   23  C   UNL     1      -8.497   7.210  66.903  1.00  0.00    -0.123 A  
HETATM   24  C   UNL     1      -8.188   5.173  65.483  1.00  0.00    -0.121 C  
HETATM   25  C   UNL     1      -7.860   6.578  65.820  1.00  0.00    -0.104 A  
HETATM   26  H   UNL     1      -5.328   8.953  63.951  1.00  0.00     0.000 HD 
ENDROOT
BRANCH   1  27
HETATM   27  O   UNL     1      -7.688   8.357  69.503  1.00  0.00    -0.091 OA 
BRANCH  27  28
HETATM   28  C   UNL     1      -8.003   8.141  70.869  1.00  0.00    -0.096 C  
HETATM   29  O   UNL     1      -7.590   6.809  71.256  1.00  0.00    -0.089 OA 
HETATM   30  C   UNL     1      -7.868   4.380  71.115  1.00  0.00    -0.072 C  
HETATM   31  C   UNL     1      -9.847   5.911  71.200  1.00  0.00    -0.181 C  
HETATM   32  O   UNL     1      -9.914   5.937  72.637  1.00  0.00    -0.174 OA 
HETATM   33  H   UNL     1      -9.604   5.113  72.993  1.00  0.00     0.000 HD 
HETATM   34  C   UNL     1     -10.347   7.243  70.623  1.00  0.00    -0.204 C  
HETATM   35  C   UNL     1      -8.402   5.755  70.718  1.00  0.00    -0.124 C  
HETATM   36  C   UNL     1      -9.491   8.391  71.161  1.00  0.00    -0.227 C  
BRANCH  34  37
HETATM   37  N   UNL     1     -11.776   7.425  70.867  1.00  0.00    -0.297 N  
HETATM   38  H   UNL     1     -12.451   6.771  70.472  1.00  0.00     0.000 HD 
HETATM   39  C   UNL     1     -13.736   8.665  71.768  1.00  0.00    -0.417 C  
HETATM   40  F   UNL     1     -14.181   8.454  73.035  1.00  0.00    -0.213 F  
HETATM   41  O   UNL     1     -11.407   9.270  72.179  1.00  0.00    -0.285 OA 
HETATM   42  F   UNL     1     -14.152   9.909  71.403  1.00  0.00    -0.206 F  
HETATM   43  F   UNL     1     -14.409   7.788  70.967  1.00  0.00    -0.415 F  
HETATM   44  C   UNL     1     -12.210   8.502  71.644  1.00  0.00    -0.322 C  
ENDBRANCH  34  37
ENDBRANCH  27  28
ENDBRANCH   1  27
BRANCH   5  45
HETATM   45  C   UNL     1      -6.978  12.666  68.508  1.00  0.00    -0.094 C  
HETATM   46  O   UNL     1      -6.540  13.062  69.602  1.00  0.00    -0.083 OA 
BRANCH  45  47
HETATM   47  C   UNL     1      -7.462  13.715  67.504  1.00  0.00    -0.170 C  
BRANCH  47  48
HETATM   48  O   UNL     1      -6.941  15.030  67.597  1.00  0.00    -0.153 OA 
BRANCH  48  49
HETATM   49  C   UNL     1      -7.683  15.967  66.948  1.00  0.00    -0.244 C  
HETATM   50  O   UNL     1      -8.453  15.738  66.028  1.00  0.00    -0.227 OA 
BRANCH  49  51
HETATM   51  C   UNL     1      -7.449  17.326  67.558  1.00  0.00    -0.186 C  
BRANCH  51  52
HETATM   52  C   UNL     1      -8.741  17.922  68.112  1.00  0.00    -0.268 C  
BRANCH  52  53
HETATM   53  C   UNL     1      -8.599  19.414  68.426  1.00  0.00    -0.397 C  
HETATM   54  C   UNL     1      -7.879  20.165  67.322  1.00  0.00    -0.348 C  
ENDBRANCH  52  53
ENDBRANCH  51  52
ENDBRANCH  49  51
ENDBRANCH  48  49
ENDBRANCH  47  48
ENDBRANCH  45  47
ENDBRANCH   5  45
BRANCH  15  55
HETATM   55  O   UNL     1      -8.483   2.356  65.068  1.00  0.00    -0.091 OA 
HETATM   56  C   UNL     1      -9.502   1.703  64.315  1.00  0.00    -0.134 C  
ENDBRANCH  15  55
TORSDOF 11
ENDMDL
MODEL       61
REMARK 921   NORMALIZED FREE ENERGY PREDICTED BY IDOCK:   -2.27 KCAL/MOL
REMARK 922        TOTAL FREE ENERGY PREDICTED BY IDOCK:   -7.27 KCAL/MOL
REMARK 923 INTER-LIGAND FREE ENERGY PREDICTED BY IDOCK:   -9.14 KCAL/MOL
REMARK 924 INTRA-LIGAND FREE ENERGY PREDICTED BY IDOCK:    1.87 KCAL/MOL
REMARK 927      BINDING AFFINITY PREDICTED BY RF-SCORE:    0.00 PKD
ROOT
HETATM    1  C   UNL     1      -8.701  10.518  68.709  1.00  0.00    -0.154 C  
HETATM    2  O   UNL     1     -10.694  14.743  64.148  1.00  0.00     0.172 OA 
HETATM    3  C   UNL     1      -8.468   9.129  68.048  1.00  0.00    -0.121 C  
HETATM    4  C   UNL     1     -10.188  14.922  65.257  1.00  0.00    -0.373 C  
HETATM    5  C   UNL     1      -9.580   8.813  67.052  1.00  0.00    -0.179 C  
HETATM    6  O   UNL     1     -10.816   8.823  67.789  1.00  0.00    -0.466 OA 
HETATM    7  C   UNL     1      -9.550   9.899  65.931  1.00  0.00    -0.300 C  
HETATM    8  C   UNL     1     -10.180  16.299  65.851  1.00  0.00    -0.384 A  
HETATM    9  C   UNL     1     -10.867  17.342  65.209  1.00  0.00    -0.001 A  
HETATM   10  C   UNL     1      -9.387  11.346  66.400  1.00  0.00    -0.219 A  
HETATM   11  C   UNL     1     -10.893  18.625  65.763  1.00  0.00    -0.093 A  
HETATM   12  C   UNL     1     -10.208  18.891  66.946  1.00  0.00    -0.443 A  
HETATM   13  H   UNL     1      -7.767  12.431  69.828  1.00  0.00     0.000 HD 
HETATM   14  H   UNL     1     -11.508   8.626  67.169  1.00  0.00     0.000 HD 
HETATM   15  C   UNL     1      -9.491  17.874  67.585  1.00  0.00    -0.260 A  
HETATM   16  O   UNL     1      -8.042  13.161  69.286  1.00  0.00     0.372 OA 
HETATM   17  C   UNL     1      -9.777  12.441  65.591  1.00  0.00    -0.172 A  
HETATM   18  C   UNL     1      -9.503  16.561  67.048  1.00  0.00    -0.249 A  
HETATM   19  O   UNL     1     -10.332  12.146  64.367  1.00  0.00    -0.287 OA 
HETATM   20  C   UNL     1      -9.647  13.784  66.033  1.00  0.00    -0.197 A  
HETATM   21  O   UNL     1      -8.095  15.597  68.700  1.00  0.00    -0.140 OA 
HETATM   22  C   UNL     1      -8.834  11.620  67.665  1.00  0.00    -0.159 A  
HETATM   23  C   UNL     1      -8.618  12.959  68.054  1.00  0.00    -0.186 A  
HETATM   24  C   UNL     1      -8.821  15.431  67.720  1.00  0.00    -0.168 C  
HETATM   25  C   UNL     1      -9.024  14.039  67.251  1.00  0.00    -0.223 A  
HETATM   26  H   UNL     1     -10.593  12.881  63.825  1.00  0.00     0.000 HD 
ENDROOT
BRANCH   1  27
HETATM   27  O   UNL     1      -9.925  10.700  69.442  1.00  0.00    -0.216 OA 
BRANCH  27  28
HETATM   28  C   UNL     1     -10.836   9.621  69.569  1.00  0.00    -0.231 C  
HETATM   29  O   UNL     1     -12.114  10.119  70.030  1.00  0.00    -0.199 OA 
HETATM   30  C   UNL     1     -13.491  11.101  71.801  1.00  0.00    -0.235 C  
HETATM   31  C   UNL     1     -11.784   9.341  72.309  1.00  0.00    -0.005 C  
HETATM   32  O   UNL     1     -12.680   8.239  72.084  1.00  0.00    -0.332 OA 
HETATM   33  H   UNL     1     -13.569   8.489  72.307  1.00  0.00     0.000 HD 
HETATM   34  C   UNL     1     -10.348   8.937  71.948  1.00  0.00    -0.337 C  
HETATM   35  C   UNL     1     -12.132  10.528  71.406  1.00  0.00    -0.282 C  
HETATM   36  C   UNL     1     -10.286   8.511  70.480  1.00  0.00    -0.226 C  
BRANCH  34  37
HETATM   37  N   UNL     1      -9.834   7.924  72.865  1.00  0.00    -0.257 N  
HETATM   38  H   UNL     1      -9.283   8.199  73.677  1.00  0.00     0.000 HD 
HETATM   39  C   UNL     1      -9.442   5.575  73.588  1.00  0.00    -0.138 C  
HETATM   40  F   UNL     1     -10.350   4.912  74.352  1.00  0.00    -0.213 F  
HETATM   41  O   UNL     1     -10.815   6.224  71.677  1.00  0.00    -0.234 OA 
HETATM   42  F   UNL     1      -8.710   4.632  72.934  1.00  0.00    -0.112 F  
HETATM   43  F   UNL     1      -8.583   6.192  74.451  1.00  0.00    -0.116 F  
HETATM   44  C   UNL     1     -10.102   6.574  72.621  1.00  0.00    -0.174 C  
ENDBRANCH  34  37
ENDBRANCH  27  28
ENDBRANCH   1  27
BRANCH   5  45
HETATM   45  C   UNL     1      -9.719   7.416  66.403  1.00  0.00    -0.093 C  
HETATM   46  O   UNL     1      -9.185   7.212  65.300  1.00  0.00     0.297 OA 
BRANCH  45  47
HETATM   47  C   UNL     1     -10.731   6.388  66.915  1.00  0.00    -0.338 C  
BRANCH  47  48
HETATM   48  O   UNL     1     -10.725   5.091  66.342  1.00  0.00    -0.300 OA 
BRANCH  48  49
HETATM   49  C   UNL     1      -9.827   4.240  66.905  1.00  0.00    -0.193 C  
HETATM   50  O   UNL     1      -9.257   3.333  66.318  1.00  0.00    -0.151 OA 
BRANCH  49  51
HETATM   51  C   UNL     1      -9.606   4.603  68.351  1.00  0.00    -0.212 C  
BRANCH  51  52
HETATM   52  C   UNL     1      -8.119   4.652  68.696  1.00  0.00    -0.082 C  
BRANCH  52  53
HETATM   53  C   UNL     1      -7.836   5.552  69.902  1.00  0.00    -0.082 C  
HETATM   54  C   UNL     1      -6.458   6.184  69.833  1.00  0.00    -0.043 C  
ENDBRANCH  52  53
ENDBRANCH  51  52
ENDBRANCH  49  51
ENDBRANCH  48  49
ENDBRANCH  47  48
ENDBRANCH  45  47
ENDBRANCH   5  45
BRANCH  15  55
HETATM   55  O   UNL     1      -8.831  18.095  68.768  1.00  0.00    -0.294 OA 
HETATM   56  C   UNL     1      -8.649  19.448  69.175  1.00  0.00    -0.113 C  
ENDBRANCH  15  55
TORSDOF 11
ENDMDL
MODEL       62
REMARK 921   NORMALIZED FREE ENERGY PREDICTED BY IDOCK:   -2.23 KCAL/MOL
REMARK 922        TOTAL FREE ENERGY PREDICTED BY IDOCK:   -7.22 KCAL/MOL
REMARK 923 INTER-LIGAND FREE ENERGY PREDICTED BY IDOCK:   -6.95 KCAL/MOL
REMARK 924 INTRA-LIGAND FREE ENERGY PREDICTED BY IDOCK:   -0.27 KCAL/MOL
REMARK 927      BINDING AFFINITY PREDICTED BY RF-SCORE:    0.00 PKD
ROOT
HETATM    1  C   UNL     1      -7.160   7.953  67.025  1.00  0.00    -0.078 C  
HETATM    2  O   UNL     1     -12.047  12.181  67.957  1.00  0.00    -0.478 OA 
HETATM    3  C   UNL     1      -7.706   6.702  66.280  1.00  0.00    -0.098 C  
HETATM    4  C   UNL     1     -10.824  12.337  67.959  1.00  0.00    -0.220 C  
HETATM    5  C   UNL     1      -9.065   6.291  66.840  1.00  0.00    -0.128 C  
HETATM    6  O   UNL     1      -8.870   6.005  68.237  1.00  0.00    -0.113 OA 
HETATM    7  C   UNL     1     -10.061   7.470  66.611  1.00  0.00    -0.263 C  
HETATM    8  C   UNL     1     -10.246  13.628  68.458  1.00  0.00    -0.234 A  
HETATM    9  C   UNL     1     -11.084  14.588  69.048  1.00  0.00    -0.279 A  
HETATM   10  C   UNL     1      -9.535   8.869  66.937  1.00  0.00    -0.230 A  
HETATM   11  C   UNL     1     -10.557  15.784  69.544  1.00  0.00    -0.272 A  
HETATM   12  C   UNL     1      -9.195  16.051  69.430  1.00  0.00    -0.202 A  
HETATM   13  H   UNL     1      -5.724   9.883  66.998  1.00  0.00     0.000 HD 
HETATM   14  H   UNL     1      -9.716   5.749  68.587  1.00  0.00     0.000 HD 
HETATM   15  C   UNL     1      -8.348  15.122  68.816  1.00  0.00    -0.175 A  
HETATM   16  O   UNL     1      -6.315  10.601  67.189  1.00  0.00    -0.064 OA 
HETATM   17  C   UNL     1     -10.409   9.951  67.206  1.00  0.00    -0.245 A  
HETATM   18  C   UNL     1      -8.874  13.888  68.355  1.00  0.00    -0.177 A  
HETATM   19  O   UNL     1     -11.758   9.684  67.182  1.00  0.00     0.372 OA 
HETATM   20  C   UNL     1      -9.923  11.245  67.532  1.00  0.00    -0.203 A  
HETATM   21  O   UNL     1      -6.824  13.034  67.514  1.00  0.00    -0.146 OA 
HETATM   22  C   UNL     1      -8.149   9.111  66.974  1.00  0.00    -0.109 A  
HETATM   23  C   UNL     1      -7.678  10.422  67.201  1.00  0.00    -0.100 A  
HETATM   24  C   UNL     1      -8.013  12.837  67.764  1.00  0.00    -0.157 C  
HETATM   25  C   UNL     1      -8.553  11.486  67.484  1.00  0.00    -0.143 A  
HETATM   26  H   UNL     1     -12.344  10.409  67.363  1.00  0.00     0.000 HD 
ENDROOT
BRANCH   1  27
HETATM   27  O   UNL     1      -6.961   7.839  68.445  1.00  0.00    -0.068 OA 
BRANCH  27  28
HETATM   28  C   UNL     1      -7.746   8.621  69.330  1.00  0.00    -0.096 C  
HETATM   29  O   UNL     1      -6.880   9.429  70.160  1.00  0.00    -0.053 OA 
HETATM   30  C   UNL     1      -5.222   9.602  71.954  1.00  0.00    -0.077 C  
HETATM   31  C   UNL     1      -7.148   8.009  72.113  1.00  0.00    -0.079 C  
HETATM   32  O   UNL     1      -8.041   8.965  72.710  1.00  0.00    -0.380 OA 
HETATM   33  H   UNL     1      -7.552   9.585  73.239  1.00  0.00     0.000 HD 
HETATM   34  C   UNL     1      -7.937   7.008  71.260  1.00  0.00    -0.103 C  
HETATM   35  C   UNL     1      -6.162   8.694  71.163  1.00  0.00    -0.046 C  
HETATM   36  C   UNL     1      -8.703   7.755  70.166  1.00  0.00    -0.140 C  
BRANCH  34  37
HETATM   37  N   UNL     1      -8.793   6.162  72.088  1.00  0.00    -0.138 N  
HETATM   38  H   UNL     1      -9.306   6.562  72.872  1.00  0.00     0.000 HD 
HETATM   39  C   UNL     1      -9.752   3.972  72.778  1.00  0.00    -0.141 C  
HETATM   40  F   UNL     1     -10.885   3.487  72.206  1.00  0.00    -0.116 F  
HETATM   41  O   UNL     1      -8.337   4.307  70.817  1.00  0.00    -0.076 OA 
HETATM   42  F   UNL     1      -9.070   2.903  73.274  1.00  0.00    -0.083 F  
HETATM   43  F   UNL     1     -10.145   4.708  73.859  1.00  0.00    -0.148 F  
HETATM   44  C   UNL     1      -8.902   4.799  71.796  1.00  0.00    -0.123 C  
ENDBRANCH  34  37
ENDBRANCH  27  28
ENDBRANCH   1  27
BRANCH   5  45
HETATM   45  C   UNL     1      -9.745   4.963  66.434  1.00  0.00    -0.189 C  
HETATM   46  O   UNL     1     -10.918   4.991  66.025  1.00  0.00    -0.243 OA 
BRANCH  45  47
HETATM   47  C   UNL     1      -9.143   3.604  66.802  1.00  0.00    -0.164 C  
BRANCH  47  48
HETATM   48  O   UNL     1      -7.789   3.556  67.220  1.00  0.00    -0.078 OA 
BRANCH  48  49
HETATM   49  C   UNL     1      -7.125   2.439  66.821  1.00  0.00    -0.049 C  
HETATM   50  O   UNL     1      -6.151   1.963  67.384  1.00  0.00    -0.019 OA 
BRANCH  49  51
HETATM   51  C   UNL     1      -7.790   1.848  65.604  1.00  0.00    -0.073 C  
BRANCH  51  52
HETATM   52  C   UNL     1      -7.083   2.270  64.318  1.00  0.00    -0.048 C  
BRANCH  52  53
HETATM   53  C   UNL     1      -7.971   3.147  63.432  1.00  0.00    -0.077 C  
HETATM   54  C   UNL     1      -9.286   2.471  63.092  1.00  0.00    -0.091 C  
ENDBRANCH  52  53
ENDBRANCH  51  52
ENDBRANCH  49  51
ENDBRANCH  48  49
ENDBRANCH  47  48
ENDBRANCH  45  47
ENDBRANCH   5  45
BRANCH  15  55
HETATM   55  O   UNL     1      -6.996  15.339  68.715  1.00  0.00    -0.103 OA 
HETATM   56  C   UNL     1      -6.442  16.396  69.493  1.00  0.00    -0.210 C  
ENDBRANCH  15  55
TORSDOF 11
ENDMDL
MODEL       63
REMARK 921   NORMALIZED FREE ENERGY PREDICTED BY IDOCK:   -1.82 KCAL/MOL
REMARK 922        TOTAL FREE ENERGY PREDICTED BY IDOCK:   -6.54 KCAL/MOL
REMARK 923 INTER-LIGAND FREE ENERGY PREDICTED BY IDOCK:   -4.76 KCAL/MOL
REMARK 924 INTRA-LIGAND FREE ENERGY PREDICTED BY IDOCK:   -1.78 KCAL/MOL
REMARK 927      BINDING AFFINITY PREDICTED BY RF-SCORE:    0.00 PKD
ROOT
HETATM    1  C   UNL     1     -10.057  12.605  68.693  1.00  0.00    -0.122 C  
HETATM    2  O   UNL     1      -8.641   7.436  64.965  1.00  0.00    -0.042 OA 
HETATM    3  C   UNL     1     -11.309  13.322  68.112  1.00  0.00    -0.323 C  
HETATM    4  C   UNL     1      -8.331   7.711  66.125  1.00  0.00    -0.134 C  
HETATM    5  C   UNL     1     -11.232  13.391  66.590  1.00  0.00    -0.309 C  
HETATM    6  O   UNL     1     -10.035  14.120  66.265  1.00  0.00    -0.283 OA 
HETATM    7  C   UNL     1     -11.206  11.932  66.038  1.00  0.00    -0.377 C  
HETATM    8  C   UNL     1      -7.281   6.898  66.821  1.00  0.00    -0.076 A  
HETATM    9  C   UNL     1      -6.561   5.926  66.107  1.00  0.00    -0.047 A  
HETATM   10  C   UNL     1     -10.282  10.954  66.766  1.00  0.00    -0.277 A  
HETATM   11  C   UNL     1      -5.558   5.180  66.733  1.00  0.00    -0.017 A  
HETATM   12  C   UNL     1      -5.284   5.370  68.085  1.00  0.00    -0.004 A  
HETATM   13  H   UNL     1      -9.069  11.358  70.497  1.00  0.00     0.000 HD 
HETATM   14  H   UNL     1      -9.987  14.164  65.318  1.00  0.00     0.000 HD 
HETATM   15  C   UNL     1      -6.012   6.310  68.823  1.00  0.00    -0.021 A  
HETATM   16  O   UNL     1      -8.750  10.570  70.073  1.00  0.00     0.133 OA 
HETATM   17  C   UNL     1      -9.815   9.768  66.149  1.00  0.00    -0.263 A  
HETATM   18  C   UNL     1      -6.996   7.101  68.177  1.00  0.00    -0.076 A  
HETATM   19  O   UNL     1     -10.212   9.542  64.851  1.00  0.00    -0.191 OA 
HETATM   20  C   UNL     1      -8.939   8.870  66.815  1.00  0.00    -0.155 A  
HETATM   21  O   UNL     1      -7.655   8.316  70.108  1.00  0.00    -0.072 OA 
HETATM   22  C   UNL     1      -9.875  11.219  68.088  1.00  0.00    -0.190 A  
HETATM   23  C   UNL     1      -9.085  10.271  68.774  1.00  0.00    -0.159 A  
HETATM   24  C   UNL     1      -7.746   8.161  68.891  1.00  0.00    -0.103 C  
HETATM   25  C   UNL     1      -8.612   9.105  68.146  1.00  0.00    -0.129 A  
HETATM   26  H   UNL     1      -9.899   8.747  64.437  1.00  0.00     0.000 HD 
ENDROOT
BRANCH   1  27
HETATM   27  O   UNL     1      -8.773  13.187  68.408  1.00  0.00    -0.174 OA 
BRANCH  27  28
HETATM   28  C   UNL     1      -8.128  13.982  69.389  1.00  0.00     0.422 C  
HETATM   29  O   UNL     1      -9.120  14.713  70.148  1.00  0.00     0.565 OA 
HETATM   30  C   UNL     1     -10.822  16.470  70.272  1.00  0.00    -0.156 C  
HETATM   31  C   UNL     1      -8.689  16.814  69.007  1.00  0.00    -0.176 C  
HETATM   32  O   UNL     1      -7.956  17.304  70.144  1.00  0.00     1.553 OA 
HETATM   33  H   UNL     1      -8.541  17.758  70.739  1.00  0.00     0.000 HD 
HETATM   34  C   UNL     1      -7.744  16.082  68.045  1.00  0.00    -0.133 C  
HETATM   35  C   UNL     1      -9.743  15.789  69.431  1.00  0.00    -0.286 C  
HETATM   36  C   UNL     1      -7.073  14.914  68.770  1.00  0.00    -0.115 C  
BRANCH  34  37
HETATM   37  N   UNL     1      -6.792  17.003  67.430  1.00  0.00    -0.138 N  
HETATM   38  H   UNL     1      -5.964  17.304  67.943  1.00  0.00     0.000 HD 
HETATM   39  C   UNL     1      -6.017  18.506  65.604  1.00  0.00    -0.225 C  
HETATM   40  F   UNL     1      -5.276  18.032  64.567  1.00  0.00    -0.098 F  
HETATM   41  O   UNL     1      -7.988  17.072  65.473  1.00  0.00    -0.120 OA 
HETATM   42  F   UNL     1      -6.628  19.642  65.168  1.00  0.00    -0.255 F  
HETATM   43  F   UNL     1      -5.133  18.895  66.568  1.00  0.00    -0.135 F  
HETATM   44  C   UNL     1      -7.024  17.468  66.133  1.00  0.00    -0.288 C  
ENDBRANCH  34  37
ENDBRANCH  27  28
ENDBRANCH   1  27
BRANCH   5  45
HETATM   45  C   UNL     1     -12.234  14.231  65.762  1.00  0.00    -0.403 C  
HETATM   46  O   UNL     1     -13.202  13.658  65.233  1.00  0.00    -0.724 OA 
BRANCH  45  47
HETATM   47  C   UNL     1     -11.915  15.661  65.321  1.00  0.00     0.460 C  
BRANCH  47  48
HETATM   48  O   UNL     1     -10.944  16.392  66.051  1.00  0.00    -0.141 OA 
BRANCH  48  49
HETATM   49  C   UNL     1     -10.906  17.718  65.750  1.00  0.00     0.037 C  
HETATM   50  O   UNL     1     -10.822  18.178  64.622  1.00  0.00    -0.222 OA 
BRANCH  49  51
HETATM   51  C   UNL     1     -11.024  18.538  67.009  1.00  0.00    -0.103 C  
BRANCH  51  52
HETATM   52  C   UNL     1     -10.620  19.991  66.772  1.00  0.00    -0.454 C  
BRANCH  52  53
HETATM   53  C   UNL     1      -9.818  20.565  67.942  1.00  0.00    -0.360 C  
HETATM   54  C   UNL     1      -8.472  21.109  67.502  1.00  0.00     0.163 C  
ENDBRANCH  52  53
ENDBRANCH  51  52
ENDBRANCH  49  51
ENDBRANCH  48  49
ENDBRANCH  47  48
ENDBRANCH  45  47
ENDBRANCH   5  45
BRANCH  15  55
HETATM   55  O   UNL     1      -5.746   6.545  70.149  1.00  0.00    -0.018 OA 
HETATM   56  C   UNL     1      -5.133   5.494  70.891  1.00  0.00    -0.005 C  
ENDBRANCH  15  55
TORSDOF 11
ENDMDL
MODEL       64
REMARK 921   NORMALIZED FREE ENERGY PREDICTED BY IDOCK:   -1.70 KCAL/MOL
REMARK 922        TOTAL FREE ENERGY PREDICTED BY IDOCK:   -6.35 KCAL/MOL
REMARK 923 INTER-LIGAND FREE ENERGY PREDICTED BY IDOCK:   -8.31 KCAL/MOL
REMARK 924 INTRA-LIGAND FREE ENERGY PREDICTED BY IDOCK:    1.96 KCAL/MOL
REMARK 927      BINDING AFFINITY PREDICTED BY RF-SCORE:    0.00 PKD
ROOT
HETATM    1  C   UNL     1      -7.990  12.193  67.584  1.00  0.00    -0.157 C  
HETATM    2  O   UNL     1     -13.332   9.891  70.548  1.00  0.00    -0.167 OA 
HETATM    3  C   UNL     1      -8.269  13.640  67.086  1.00  0.00    -0.123 C  
HETATM    4  C   UNL     1     -12.152   9.545  70.616  1.00  0.00    -0.162 C  
HETATM    5  C   UNL     1      -9.665  13.739  66.477  1.00  0.00    -0.293 C  
HETATM    6  O   UNL     1      -9.711  12.808  65.382  1.00  0.00    -0.443 OA 
HETATM    7  C   UNL     1     -10.705  13.397  67.590  1.00  0.00    -0.257 C  
HETATM    8  C   UNL     1     -11.798   8.256  71.296  1.00  0.00    -0.319 A  
HETATM    9  C   UNL     1     -12.817   7.388  71.723  1.00  0.00    -0.365 A  
HETATM   10  C   UNL     1     -10.380  12.185  68.464  1.00  0.00    -0.233 A  
HETATM   11  C   UNL     1     -12.504   6.169  72.333  1.00  0.00     0.023 A  
HETATM   12  C   UNL     1     -11.176   5.816  72.552  1.00  0.00    -0.347 A  
HETATM   13  H   UNL     1      -6.758  10.739  69.052  1.00  0.00     0.000 HD 
HETATM   14  H   UNL     1     -10.579  12.870  65.003  1.00  0.00     0.000 HD 
HETATM   15  C   UNL     1     -10.147   6.680  72.163  1.00  0.00    -0.178 A  
HETATM   16  O   UNL     1      -7.438  10.274  69.526  1.00  0.00    -0.110 OA 
HETATM   17  C   UNL     1     -11.385  11.496  69.187  1.00  0.00    -0.286 A  
HETATM   18  C   UNL     1     -10.461   7.895  71.502  1.00  0.00    -0.251 A  
HETATM   19  O   UNL     1     -12.675  11.952  69.052  1.00  0.00     0.221 OA 
HETATM   20  C   UNL     1     -11.089  10.356  69.981  1.00  0.00    -0.379 A  
HETATM   21  O   UNL     1      -8.220   8.642  71.259  1.00  0.00    -0.128 OA 
HETATM   22  C   UNL     1      -9.054  11.725  68.569  1.00  0.00    -0.144 A  
HETATM   23  C   UNL     1      -8.757  10.654  69.438  1.00  0.00    -0.023 A  
HETATM   24  C   UNL     1      -9.412   8.814  71.003  1.00  0.00    -0.228 C  
HETATM   25  C   UNL     1      -9.763   9.965  70.138  1.00  0.00    -0.255 A  
HETATM   26  H   UNL     1     -13.349  11.490  69.536  1.00  0.00     0.000 HD 
ENDROOT
BRANCH   1  27
HETATM   27  O   UNL     1      -8.052  11.137  66.609  1.00  0.00    -0.148 OA 
BRANCH  27  28
HETATM   28  C   UNL     1      -6.864  10.462  66.228  1.00  0.00    -0.117 C  
HETATM   29  O   UNL     1      -7.124   9.649  65.060  1.00  0.00    -0.104 OA 
HETATM   30  C   UNL     1      -8.203   7.708  64.028  1.00  0.00     0.018 C  
HETATM   31  C   UNL     1      -7.202   7.571  66.318  1.00  0.00    -0.074 C  
HETATM   32  O   UNL     1      -5.888   7.216  65.851  1.00  0.00    -0.034 OA 
HETATM   33  H   UNL     1      -5.952   6.719  65.044  1.00  0.00     0.000 HD 
HETATM   34  C   UNL     1      -7.100   8.374  67.622  1.00  0.00    -0.083 C  
HETATM   35  C   UNL     1      -7.917   8.480  65.315  1.00  0.00    -0.120 C  
HETATM   36  C   UNL     1      -6.274   9.640  67.385  1.00  0.00    -0.064 C  
BRANCH  34  37
HETATM   37  N   UNL     1      -6.592   7.550  68.716  1.00  0.00    -0.047 N  
HETATM   38  H   UNL     1      -5.861   7.906  69.330  1.00  0.00     0.000 HD 
HETATM   39  C   UNL     1      -6.453   5.441  70.030  1.00  0.00    -0.031 C  
HETATM   40  F   UNL     1      -7.295   5.202  71.070  1.00  0.00    -0.063 F  
HETATM   41  O   UNL     1      -8.040   5.842  68.218  1.00  0.00    -0.106 OA 
HETATM   42  F   UNL     1      -6.019   4.230  69.585  1.00  0.00    -0.016 F  
HETATM   43  F   UNL     1      -5.359   6.070  70.551  1.00  0.00    -0.011 F  
HETATM   44  C   UNL     1      -7.115   6.269  68.913  1.00  0.00    -0.082 C  
ENDBRANCH  34  37
ENDBRANCH  27  28
ENDBRANCH   1  27
BRANCH   5  45
HETATM   45  C   UNL     1     -10.132  15.002  65.715  1.00  0.00    -0.340 C  
HETATM   46  O   UNL     1     -11.095  14.909  64.935  1.00  0.00    -0.383 OA 
BRANCH  45  47
HETATM   47  C   UNL     1      -9.273  16.268  65.652  1.00  0.00     0.047 C  
BRANCH  47  48
HETATM   48  O   UNL     1      -8.095  16.325  66.438  1.00  0.00    -0.291 OA 
BRANCH  48  49
HETATM   49  C   UNL     1      -8.274  16.878  67.667  1.00  0.00    -0.186 C  
HETATM   50  O   UNL     1      -8.889  16.360  68.587  1.00  0.00    -0.213 OA 
BRANCH  49  51
HETATM   51  C   UNL     1      -7.569  18.208  67.744  1.00  0.00    -0.222 C  
BRANCH  51  52
HETATM   52  C   UNL     1      -8.526  19.367  67.474  1.00  0.00    -0.328 C  
BRANCH  52  53
HETATM   53  C   UNL     1      -9.777  18.918  66.715  1.00  0.00    -0.362 C  
HETATM   54  C   UNL     1     -10.069  19.803  65.517  1.00  0.00    -0.099 C  
ENDBRANCH  52  53
ENDBRANCH  51  52
ENDBRANCH  49  51
ENDBRANCH  48  49
ENDBRANCH  47  48
ENDBRANCH  45  47
ENDBRANCH   5  45
BRANCH  15  55
HETATM   55  O   UNL     1      -8.826   6.349  72.336  1.00  0.00    -0.134 OA 
HETATM   56  C   UNL     1      -8.326   6.321  73.670  1.00  0.00    -0.120 C  
ENDBRANCH  15  55
TORSDOF 11
ENDMDL
MODEL       65
REMARK 921   NORMALIZED FREE ENERGY PREDICTED BY IDOCK:   -1.36 KCAL/MOL
REMARK 922        TOTAL FREE ENERGY PREDICTED BY IDOCK:   -5.79 KCAL/MOL
REMARK 923 INTER-LIGAND FREE ENERGY PREDICTED BY IDOCK:   -7.73 KCAL/MOL
REMARK 924 INTRA-LIGAND FREE ENERGY PREDICTED BY IDOCK:    1.94 KCAL/MOL
REMARK 927      BINDING AFFINITY PREDICTED BY RF-SCORE:    0.00 PKD
ROOT
HETATM    1  C   UNL     1      -5.938  11.725  67.026  1.00  0.00    -0.153 C  
HETATM    2  O   UNL     1      -8.533   7.534  71.307  1.00  0.00    -0.114 OA 
HETATM    3  C   UNL     1      -5.378  12.956  67.796  1.00  0.00    -0.114 C  
HETATM    4  C   UNL     1      -8.139   7.376  70.151  1.00  0.00    -0.131 C  
HETATM    5  C   UNL     1      -6.341  13.384  68.899  1.00  0.00    -0.099 C  
HETATM    6  O   UNL     1      -7.589  13.710  68.261  1.00  0.00    -0.110 OA 
HETATM    7  C   UNL     1      -6.483  12.201  69.907  1.00  0.00    -0.009 C  
HETATM    8  C   UNL     1      -8.456   6.099  69.431  1.00  0.00    -0.120 A  
HETATM    9  C   UNL     1      -9.314   5.157  70.023  1.00  0.00    -0.201 A  
HETATM   10  C   UNL     1      -6.657  10.811  69.293  1.00  0.00    -0.074 A  
HETATM   11  C   UNL     1      -9.643   3.975  69.353  1.00  0.00    -0.257 A  
HETATM   12  C   UNL     1      -9.097   3.703  68.102  1.00  0.00    -0.197 A  
HETATM   13  H   UNL     1      -5.496   9.793  65.664  1.00  0.00     0.000 HD 
HETATM   14  H   UNL     1      -8.189  13.977  68.947  1.00  0.00     0.000 HD 
HETATM   15  C   UNL     1      -8.215   4.612  67.509  1.00  0.00    -0.101 A  
HETATM   16  O   UNL     1      -5.889   9.081  66.155  1.00  0.00    -0.052 OA 
HETATM   17  C   UNL     1      -7.226   9.739  70.022  1.00  0.00    -0.130 A  
HETATM   18  C   UNL     1      -7.918   5.834  68.166  1.00  0.00    -0.104 A  
HETATM   19  O   UNL     1      -7.638  10.008  71.307  1.00  0.00    -0.102 OA 
HETATM   20  C   UNL     1      -7.411   8.454  69.447  1.00  0.00    -0.070 A  
HETATM   21  O   UNL     1      -6.429   6.660  66.510  1.00  0.00    -0.041 OA 
HETATM   22  C   UNL     1      -6.245  10.568  67.969  1.00  0.00    -0.054 A  
HETATM   23  C   UNL     1      -6.341   9.263  67.440  1.00  0.00    -0.062 A  
HETATM   24  C   UNL     1      -7.048   6.865  67.554  1.00  0.00    -0.085 C  
HETATM   25  C   UNL     1      -6.924   8.209  68.166  1.00  0.00    -0.077 A  
HETATM   26  H   UNL     1      -8.020   9.289  71.796  1.00  0.00     0.000 HD 
ENDROOT
BRANCH   1  27
HETATM   27  O   UNL     1      -7.211  11.879  66.375  1.00  0.00     0.089 OA 
BRANCH  27  28
HETATM   28  C   UNL     1      -8.116  10.788  66.333  1.00  0.00    -0.153 C  
HETATM   29  O   UNL     1      -8.750  10.735  65.033  1.00  0.00    -0.191 OA 
HETATM   30  C   UNL     1     -10.291  11.691  63.388  1.00  0.00    -0.482 C  
HETATM   31  C   UNL     1     -10.842  11.679  65.831  1.00  0.00    -0.287 C  
HETATM   32  O   UNL     1     -11.461  10.381  65.805  1.00  0.00     0.639 OA 
HETATM   33  H   UNL     1     -11.863  10.227  64.958  1.00  0.00     0.000 HD 
HETATM   34  C   UNL     1     -10.192  11.929  67.198  1.00  0.00    -0.208 C  
HETATM   35  C   UNL     1      -9.714  11.773  64.800  1.00  0.00    -0.161 C  
HETATM   36  C   UNL     1      -9.143  10.850  67.475  1.00  0.00    -0.142 C  
BRANCH  34  37
HETATM   37  N   UNL     1     -11.197  12.041  68.252  1.00  0.00    -0.239 N  
HETATM   38  H   UNL     1     -11.851  12.823  68.257  1.00  0.00     0.000 HD 
HETATM   39  C   UNL     1     -12.284  11.319  70.371  1.00  0.00    -0.365 C  
HETATM   40  F   UNL     1     -13.287  10.402  70.372  1.00  0.00    -0.386 F  
HETATM   41  O   UNL     1     -10.513  10.083  69.233  1.00  0.00    -0.198 OA 
HETATM   42  F   UNL     1     -11.718  11.289  71.609  1.00  0.00     0.047 F  
HETATM   43  F   UNL     1     -12.876  12.544  70.253  1.00  0.00    -0.118 F  
HETATM   44  C   UNL     1     -11.255  11.068  69.253  1.00  0.00    -0.257 C  
ENDBRANCH  34  37
ENDBRANCH  27  28
ENDBRANCH   1  27
BRANCH   5  45
HETATM   45  C   UNL     1      -6.143  14.702  69.685  1.00  0.00    -0.121 C  
HETATM   46  O   UNL     1      -5.191  14.789  70.479  1.00  0.00    -0.110 OA 
BRANCH  45  47
HETATM   47  C   UNL     1      -7.236  15.773  69.750  1.00  0.00    -0.046 C  
BRANCH  47  48
HETATM   48  O   UNL     1      -8.252  15.762  68.762  1.00  0.00    -0.165 OA 
BRANCH  48  49
HETATM   49  C   UNL     1      -9.426  16.314  69.169  1.00  0.00    -0.246 C  
HETATM   50  O   UNL     1      -9.719  17.495  69.064  1.00  0.00    -0.263 OA 
BRANCH  49  51
HETATM   51  C   UNL     1     -10.331  15.249  69.731  1.00  0.00    -0.266 C  
BRANCH  51  52
HETATM   52  C   UNL     1     -11.501  15.856  70.503  1.00  0.00    -0.412 C  
BRANCH  52  53
HETATM   53  C   UNL     1     -11.689  15.202  71.874  1.00  0.00    -0.490 C  
HETATM   54  C   UNL     1     -12.019  16.217  72.952  1.00  0.00    -0.615 C  
ENDBRANCH  52  53
ENDBRANCH  51  52
ENDBRANCH  49  51
ENDBRANCH  48  49
ENDBRANCH  47  48
ENDBRANCH  45  47
ENDBRANCH   5  45
BRANCH  15  55
HETATM   55  O   UNL     1      -7.683   4.390  66.263  1.00  0.00    -0.092 OA 
HETATM   56  C   UNL     1      -6.605   3.463  66.167  1.00  0.00    -0.037 C  
ENDBRANCH  15  55
TORSDOF 11
ENDMDL
MODEL       66
REMARK 921   NORMALIZED FREE ENERGY PREDICTED BY IDOCK:   -1.31 KCAL/MOL
REMARK 922        TOTAL FREE ENERGY PREDICTED BY IDOCK:   -5.70 KCAL/MOL
REMARK 923 INTER-LIGAND FREE ENERGY PREDICTED BY IDOCK:   -5.55 KCAL/MOL
REMARK 924 INTRA-LIGAND FREE ENERGY PREDICTED BY IDOCK:   -0.15 KCAL/MOL
REMARK 927      BINDING AFFINITY PREDICTED BY RF-SCORE:    0.00 PKD
ROOT
HETATM    1  C   UNL     1      -7.540   8.701  71.036  1.00  0.00    -0.100 C  
HETATM    2  O   UNL     1      -6.797   7.038  64.766  1.00  0.00    -0.045 OA 
HETATM    3  C   UNL     1      -6.505   7.919  71.895  1.00  0.00    -0.046 C  
HETATM    4  C   UNL     1      -7.324   8.021  65.290  1.00  0.00    -0.070 C  
HETATM    5  C   UNL     1      -6.401   6.471  71.426  1.00  0.00    -0.042 C  
HETATM    6  O   UNL     1      -7.713   5.894  71.561  1.00  0.00    -0.097 OA 
HETATM    7  C   UNL     1      -5.905   6.474  69.946  1.00  0.00    -0.018 C  
HETATM    8  C   UNL     1      -8.154   8.948  64.452  1.00  0.00    -0.153 A  
HETATM    9  C   UNL     1      -8.440   8.617  63.118  1.00  0.00    -0.100 A  
HETATM   10  C   UNL     1      -6.568   7.491  69.016  1.00  0.00    -0.044 A  
HETATM   11  C   UNL     1      -9.236   9.455  62.331  1.00  0.00    -0.100 A  
HETATM   12  C   UNL     1      -9.728  10.648  62.855  1.00  0.00    -0.329 A  
HETATM   13  H   UNL     1      -8.320  10.819  70.203  1.00  0.00     0.000 HD 
HETATM   14  H   UNL     1      -7.648   4.992  71.269  1.00  0.00     0.000 HD 
HETATM   15  C   UNL     1      -9.428  11.011  64.172  1.00  0.00    -0.242 A  
HETATM   16  O   UNL     1      -8.323  10.699  69.261  1.00  0.00    -0.152 OA 
HETATM   17  C   UNL     1      -6.562   7.330  67.609  1.00  0.00    -0.057 A  
HETATM   18  C   UNL     1      -8.661  10.138  64.986  1.00  0.00    -0.178 A  
HETATM   19  O   UNL     1      -5.950   6.203  67.113  1.00  0.00    -0.016 OA 
HETATM   20  C   UNL     1      -7.198   8.260  66.745  1.00  0.00    -0.082 A  
HETATM   21  O   UNL     1      -8.665  11.519  66.918  1.00  0.00    -0.167 OA 
HETATM   22  C   UNL     1      -7.206   8.627  69.551  1.00  0.00    -0.060 A  
HETATM   23  C   UNL     1      -7.746   9.595  68.679  1.00  0.00    -0.080 A  
HETATM   24  C   UNL     1      -8.374  10.438  66.408  1.00  0.00    -0.139 C  
HETATM   25  C   UNL     1      -7.751   9.417  67.284  1.00  0.00    -0.091 A  
HETATM   26  H   UNL     1      -5.947   6.094  66.169  1.00  0.00     0.000 HD 
ENDROOT
BRANCH   1  27
HETATM   27  O   UNL     1      -8.892   8.212  71.026  1.00  0.00    -0.133 OA 
BRANCH  27  28
HETATM   28  C   UNL     1      -9.926   8.993  71.602  1.00  0.00    -0.313 C  
HETATM   29  O   UNL     1     -11.028   8.134  71.979  1.00  0.00    -0.247 OA 
HETATM   30  C   UNL     1     -12.890   6.675  71.344  1.00  0.00    -0.163 C  
HETATM   31  C   UNL     1     -12.399   8.779  70.079  1.00  0.00     0.974 C  
HETATM   32  O   UNL     1     -13.210   9.615  70.923  1.00  0.00    -0.552 OA 
HETATM   33  H   UNL     1     -13.942   9.118  71.270  1.00  0.00     0.000 HD 
HETATM   34  C   UNL     1     -11.218   9.582  69.517  1.00  0.00    -0.074 C  
HETATM   35  C   UNL     1     -11.788   7.622  70.873  1.00  0.00    -0.250 C  
HETATM   36  C   UNL     1     -10.373  10.130  70.668  1.00  0.00    -0.006 C  
BRANCH  34  37
HETATM   37  N   UNL     1     -11.671  10.616  68.590  1.00  0.00    -0.488 N  
HETATM   38  H   UNL     1     -12.062  10.359  67.685  1.00  0.00     0.000 HD 
HETATM   39  C   UNL     1     -11.980  12.980  67.878  1.00  0.00    -0.291 C  
HETATM   40  F   UNL     1     -13.091  13.682  68.225  1.00  0.00     0.742 F  
HETATM   41  O   UNL     1     -11.150  12.292  70.068  1.00  0.00     0.102 OA 
HETATM   42  F   UNL     1     -10.999  13.890  67.624  1.00  0.00    -0.252 F  
HETATM   43  F   UNL     1     -12.257  12.377  66.685  1.00  0.00    -0.416 F  
HETATM   44  C   UNL     1     -11.564  11.961  68.954  1.00  0.00    -0.311 C  
ENDBRANCH  34  37
ENDBRANCH  27  28
ENDBRANCH   1  27
BRANCH   5  45
HETATM   45  C   UNL     1      -5.609   5.411  72.227  1.00  0.00    -0.017 C  
HETATM   46  O   UNL     1      -5.221   4.385  71.643  1.00  0.00    -0.003 OA 
BRANCH  45  47
HETATM   47  C   UNL     1      -5.552   5.435  73.757  1.00  0.00    -0.024 C  
BRANCH  47  48
HETATM   48  O   UNL     1      -6.754   5.234  74.480  1.00  0.00    -0.073 OA 
BRANCH  48  49
HETATM   49  C   UNL     1      -7.381   4.061  74.199  1.00  0.00    -0.067 C  
HETATM   50  O   UNL     1      -6.823   2.984  74.059  1.00  0.00    -0.033 OA 
BRANCH  49  51
HETATM   51  C   UNL     1      -8.871   4.275  74.126  1.00  0.00    -0.095 C  
BRANCH  51  52
HETATM   52  C   UNL     1      -9.604   2.995  73.731  1.00  0.00    -0.123 C  
BRANCH  52  53
HETATM   53  C   UNL     1      -9.995   2.987  72.251  1.00  0.00    -0.237 C  
HETATM   54  C   UNL     1      -9.199   1.970  71.455  1.00  0.00    -0.171 C  
ENDBRANCH  52  53
ENDBRANCH  51  52
ENDBRANCH  49  51
ENDBRANCH  48  49
ENDBRANCH  47  48
ENDBRANCH  45  47
ENDBRANCH   5  45
BRANCH  15  55
HETATM   55  O   UNL     1      -9.923  12.164  64.730  1.00  0.00    -0.255 OA 
HETATM   56  C   UNL     1     -11.205  12.607  64.291  1.00  0.00    -0.362 C  
ENDBRANCH  15  55
TORSDOF 11
ENDMDL
MODEL       67
REMARK 921   NORMALIZED FREE ENERGY PREDICTED BY IDOCK:   -0.96 KCAL/MOL
REMARK 922        TOTAL FREE ENERGY PREDICTED BY IDOCK:   -5.13 KCAL/MOL
REMARK 923 INTER-LIGAND FREE ENERGY PREDICTED BY IDOCK:   -5.89 KCAL/MOL
REMARK 924 INTRA-LIGAND FREE ENERGY PREDICTED BY IDOCK:    0.76 KCAL/MOL
REMARK 927      BINDING AFFINITY PREDICTED BY RF-SCORE:    0.00 PKD
ROOT
HETATM    1  C   UNL     1      -7.615   9.468  67.561  1.00  0.00    -0.095 C  
HETATM    2  O   UNL     1     -11.011  13.789  64.037  1.00  0.00    -0.228 OA 
HETATM    3  C   UNL     1      -7.451   8.158  66.738  1.00  0.00    -0.090 C  
HETATM    4  C   UNL     1     -10.257  13.938  65.000  1.00  0.00    -0.358 C  
HETATM    5  C   UNL     1      -8.751   7.807  66.021  1.00  0.00    -0.161 C  
HETATM    6  O   UNL     1      -9.758   7.646  67.037  1.00  0.00    -0.165 OA 
HETATM    7  C   UNL     1      -9.089   8.966  65.032  1.00  0.00    -0.110 C  
HETATM    8  C   UNL     1     -10.203  15.265  65.697  1.00  0.00    -0.398 A  
HETATM    9  C   UNL     1     -11.108  16.279  65.342  1.00  0.00    -0.090 A  
HETATM   10  C   UNL     1      -8.923  10.386  65.577  1.00  0.00    -0.199 A  
HETATM   11  C   UNL     1     -11.091  17.511  66.002  1.00  0.00     0.481 A  
HETATM   12  C   UNL     1     -10.152  17.759  66.999  1.00  0.00    -0.337 A  
HETATM   13  H   UNL     1      -6.577  11.380  68.587  1.00  0.00     0.000 HD 
HETATM   14  H   UNL     1     -10.567   7.426  66.591  1.00  0.00     0.000 HD 
HETATM   15  C   UNL     1      -9.221  16.775  67.346  1.00  0.00    -0.218 A  
HETATM   16  O   UNL     1      -7.034  12.116  68.198  1.00  0.00    -0.070 OA 
HETATM   17  C   UNL     1      -9.587  11.492  64.993  1.00  0.00    -0.197 A  
HETATM   18  C   UNL     1      -9.268  15.507  66.711  1.00  0.00    -0.272 A  
HETATM   19  O   UNL     1     -10.409  11.231  63.922  1.00  0.00    -0.316 OA 
HETATM   20  C   UNL     1      -9.452  12.807  65.511  1.00  0.00     0.098 A  
HETATM   21  O   UNL     1      -7.420  14.570  67.870  1.00  0.00    -0.119 OA 
HETATM   22  C   UNL     1      -8.090  10.622  66.688  1.00  0.00    -0.136 A  
HETATM   23  C   UNL     1      -7.886  11.946  67.133  1.00  0.00    -0.168 A  
HETATM   24  C   UNL     1      -8.355  14.404  67.088  1.00  0.00    -0.191 C  
HETATM   25  C   UNL     1      -8.563  13.035  66.557  1.00  0.00     0.131 A  
HETATM   26  H   UNL     1     -10.854  11.973  63.530  1.00  0.00     0.000 HD 
ENDROOT
BRANCH   1  27
HETATM   27  O   UNL     1      -8.624   9.480  68.586  1.00  0.00    -0.117 OA 
BRANCH  27  28
HETATM   28  C   UNL     1      -9.198   8.259  69.022  1.00  0.00    -0.147 C  
HETATM   29  O   UNL     1     -10.538   8.501  69.510  1.00  0.00    -0.224 OA 
HETATM   30  C   UNL     1     -12.040   9.461  71.189  1.00  0.00    -0.406 C  
HETATM   31  C   UNL     1      -9.893   8.354  71.848  1.00  0.00    -0.258 C  
HETATM   32  O   UNL     1     -10.464   7.037  71.943  1.00  0.00    -0.201 OA 
HETATM   33  H   UNL     1     -11.375   7.094  72.207  1.00  0.00     0.000 HD 
HETATM   34  C   UNL     1      -8.422   8.262  71.422  1.00  0.00    -0.138 C  
HETATM   35  C   UNL     1     -10.597   9.184  70.771  1.00  0.00    -0.260 C  
HETATM   36  C   UNL     1      -8.320   7.554  70.069  1.00  0.00    -0.136 C  
BRANCH  34  37
HETATM   37  N   UNL     1      -7.604   7.641  72.461  1.00  0.00    -0.082 N  
HETATM   38  H   UNL     1      -7.121   8.219  73.147  1.00  0.00     0.000 HD 
HETATM   39  C   UNL     1      -6.535   5.691  73.577  1.00  0.00    -0.072 C  
HETATM   40  F   UNL     1      -7.186   4.986  74.540  1.00  0.00    -0.076 F  
HETATM   41  O   UNL     1      -8.113   5.530  71.722  1.00  0.00    -0.114 OA 
HETATM   42  F   UNL     1      -5.594   4.863  73.047  1.00  0.00    -0.011 F  
HETATM   43  F   UNL     1      -5.851   6.684  74.218  1.00  0.00    -0.058 F  
HETATM   44  C   UNL     1      -7.490   6.249  72.507  1.00  0.00    -0.093 C  
ENDBRANCH  34  37
ENDBRANCH  27  28
ENDBRANCH   1  27
BRANCH   5  45
HETATM   45  C   UNL     1      -8.942   6.451  65.301  1.00  0.00     0.200 C  
HETATM   46  O   UNL     1      -8.707   6.381  64.083  1.00  0.00     0.243 OA 
BRANCH  45  47
HETATM   47  C   UNL     1      -9.694   5.290  65.957  1.00  0.00    -0.139 C  
BRANCH  47  48
HETATM   48  O   UNL     1      -9.976   4.141  65.177  1.00  0.00    -0.192 OA 
BRANCH  48  49
HETATM   49  C   UNL     1      -9.356   3.011  65.609  1.00  0.00    -0.091 C  
HETATM   50  O   UNL     1      -8.512   2.391  64.981  1.00  0.00    -0.091 OA 
BRANCH  49  51
HETATM   51  C   UNL     1      -9.833   2.656  66.994  1.00  0.00     0.627 C  
BRANCH  51  52
HETATM   52  C   UNL     1      -8.678   2.213  67.888  1.00  0.00    -0.130 C  
BRANCH  52  53
HETATM   53  C   UNL     1      -8.908   2.584  69.355  1.00  0.00    -0.150 C  
HETATM   54  C   UNL     1      -7.648   2.436  70.188  1.00  0.00    -0.043 C  
ENDBRANCH  52  53
ENDBRANCH  51  52
ENDBRANCH  49  51
ENDBRANCH  48  49
ENDBRANCH  47  48
ENDBRANCH  45  47
ENDBRANCH   5  45
BRANCH  15  55
HETATM   55  O   UNL     1      -8.302  16.974  68.346  1.00  0.00    -0.223 OA 
HETATM   56  C   UNL     1      -7.862  18.310  68.574  1.00  0.00    -0.298 C  
ENDBRANCH  15  55
TORSDOF 11
ENDMDL
MODEL       68
REMARK 921   NORMALIZED FREE ENERGY PREDICTED BY IDOCK:   -0.86 KCAL/MOL
REMARK 922        TOTAL FREE ENERGY PREDICTED BY IDOCK:   -4.97 KCAL/MOL
REMARK 923 INTER-LIGAND FREE ENERGY PREDICTED BY IDOCK:   -8.34 KCAL/MOL
REMARK 924 INTRA-LIGAND FREE ENERGY PREDICTED BY IDOCK:    3.38 KCAL/MOL
REMARK 927      BINDING AFFINITY PREDICTED BY RF-SCORE:    0.00 PKD
ROOT
HETATM    1  C   UNL     1     -10.913  11.722  66.893  1.00  0.00    -0.285 C  
HETATM    2  O   UNL     1      -7.997   8.068  62.335  1.00  0.00    -0.141 OA 
HETATM    3  C   UNL     1     -11.894  12.711  66.200  1.00  0.00    -0.477 C  
HETATM    4  C   UNL     1      -8.149   7.891  63.545  1.00  0.00    -0.079 C  
HETATM    5  C   UNL     1     -11.264  13.300  64.941  1.00  0.00    -0.318 C  
HETATM    6  O   UNL     1     -10.065  13.979  65.352  1.00  0.00    -0.370 OA 
HETATM    7  C   UNL     1     -10.972  12.128  63.951  1.00  0.00    -0.463 C  
HETATM    8  C   UNL     1      -7.394   6.791  64.231  1.00  0.00    -0.088 A  
HETATM    9  C   UNL     1      -6.420   6.067  63.526  1.00  0.00    -0.029 A  
HETATM   10  C   UNL     1     -10.340  10.875  64.560  1.00  0.00    -0.417 A  
HETATM   11  C   UNL     1      -5.687   5.058  64.158  1.00  0.00    -0.017 A  
HETATM   12  C   UNL     1      -5.939   4.738  65.489  1.00  0.00    -0.023 A  
HETATM   13  H   UNL     1     -10.606   9.837  68.355  1.00  0.00     0.000 HD 
HETATM   14  H   UNL     1      -9.673  14.346  64.568  1.00  0.00     0.000 HD 
HETATM   15  C   UNL     1      -6.928   5.426  66.201  1.00  0.00    -0.063 A  
HETATM   16  O   UNL     1     -10.119   9.220  67.822  1.00  0.00    -0.179 OA 
HETATM   17  C   UNL     1      -9.627   9.941  63.770  1.00  0.00     0.002 A  
HETATM   18  C   UNL     1      -7.638   6.482  65.574  1.00  0.00    -0.088 A  
HETATM   19  O   UNL     1      -9.507  10.220  62.429  1.00  0.00    -0.375 OA 
HETATM   20  C   UNL     1      -9.019   8.789  64.337  1.00  0.00     0.129 A  
HETATM   21  O   UNL     1      -9.016   7.003  67.437  1.00  0.00    -0.118 OA 
HETATM   22  C   UNL     1     -10.460  10.623  65.940  1.00  0.00    -0.243 A  
HETATM   23  C   UNL     1      -9.938   9.426  66.475  1.00  0.00    -0.269 A  
HETATM   24  C   UNL     1      -8.644   7.291  66.300  1.00  0.00    -0.142 C  
HETATM   25  C   UNL     1      -9.217   8.513  65.686  1.00  0.00    -0.161 A  
HETATM   26  H   UNL     1      -9.028   9.594  61.899  1.00  0.00     0.000 HD 
ENDROOT
BRANCH   1  27
HETATM   27  O   UNL     1      -9.642  12.244  67.317  1.00  0.00    -0.182 OA 
BRANCH  27  28
HETATM   28  C   UNL     1      -9.356  12.360  68.701  1.00  0.00     0.003 C  
HETATM   29  O   UNL     1      -7.927  12.489  68.891  1.00  0.00     0.005 OA 
HETATM   30  C   UNL     1      -5.683  11.511  68.813  1.00  0.00    -0.046 C  
HETATM   31  C   UNL     1      -7.649  10.189  69.624  1.00  0.00    -0.156 C  
HETATM   32  O   UNL     1      -7.523  10.619  70.991  1.00  0.00     0.260 OA 
HETATM   33  H   UNL     1      -6.611  10.787  71.199  1.00  0.00     0.000 HD 
HETATM   34  C   UNL     1      -9.121   9.918  69.288  1.00  0.00    -0.189 C  
HETATM   35  C   UNL     1      -7.186  11.282  68.658  1.00  0.00    -0.098 C  
HETATM   36  C   UNL     1      -9.942  11.190  69.508  1.00  0.00     0.166 C  
BRANCH  34  37
HETATM   37  N   UNL     1      -9.632   8.766  70.026  1.00  0.00    -0.165 N  
HETATM   38  H   UNL     1     -10.587   8.767  70.382  1.00  0.00     0.000 HD 
HETATM   39  C   UNL     1      -9.396   6.538  71.109  1.00  0.00    -0.163 C  
HETATM   40  F   UNL     1      -9.593   5.390  70.409  1.00  0.00    -0.178 F  
HETATM   41  O   UNL     1      -7.663   7.618  69.771  1.00  0.00    -0.094 OA 
HETATM   42  F   UNL     1      -8.597   6.226  72.166  1.00  0.00    -0.124 F  
HETATM   43  F   UNL     1     -10.606   6.885  71.636  1.00  0.00    -0.215 F  
HETATM   44  C   UNL     1      -8.802   7.663  70.242  1.00  0.00    -0.145 C  
ENDBRANCH  34  37
ENDBRANCH  27  28
ENDBRANCH   1  27
BRANCH   5  45
HETATM   45  C   UNL     1     -11.927  14.465  64.169  1.00  0.00    -0.346 C  
HETATM   46  O   UNL     1     -12.342  14.260  63.015  1.00  0.00    -0.380 OA 
BRANCH  45  47
HETATM   47  C   UNL     1     -11.813  15.915  64.647  1.00  0.00    -0.027 C  
BRANCH  47  48
HETATM   48  O   UNL     1     -11.092  16.179  65.838  1.00  0.00    -0.133 OA 
BRANCH  48  49
HETATM   49  C   UNL     1     -10.387  17.341  65.814  1.00  0.00    -0.234 C  
HETATM   50  O   UNL     1     -10.558  18.248  65.014  1.00  0.00    -0.346 OA 
BRANCH  49  51
HETATM   51  C   UNL     1      -9.392  17.366  66.945  1.00  0.00    -0.271 C  
BRANCH  51  52
HETATM   52  C   UNL     1      -9.543  18.623  67.798  1.00  0.00    -0.332 C  
BRANCH  52  53
HETATM   53  C   UNL     1      -8.226  19.392  67.931  1.00  0.00    -0.341 C  
HETATM   54  C   UNL     1      -8.082  20.467  66.870  1.00  0.00    -0.279 C  
ENDBRANCH  52  53
ENDBRANCH  51  52
ENDBRANCH  49  51
ENDBRANCH  48  49
ENDBRANCH  47  48
ENDBRANCH  45  47
ENDBRANCH   5  45
BRANCH  15  55
HETATM   55  O   UNL     1      -7.180   5.157  67.523  1.00  0.00    -0.069 OA 
HETATM   56  C   UNL     1      -7.020   3.811  67.961  1.00  0.00    -0.051 C  
ENDBRANCH  15  55
TORSDOF 11
ENDMDL
MODEL       69
REMARK 921   NORMALIZED FREE ENERGY PREDICTED BY IDOCK:   -0.44 KCAL/MOL
REMARK 922        TOTAL FREE ENERGY PREDICTED BY IDOCK:   -4.28 KCAL/MOL
REMARK 923 INTER-LIGAND FREE ENERGY PREDICTED BY IDOCK:   -5.17 KCAL/MOL
REMARK 924 INTRA-LIGAND FREE ENERGY PREDICTED BY IDOCK:    0.89 KCAL/MOL
REMARK 927      BINDING AFFINITY PREDICTED BY RF-SCORE:    0.00 PKD
ROOT
HETATM    1  C   UNL     1      -7.867   9.241  71.275  1.00  0.00     0.085 C  
HETATM    2  O   UNL     1      -7.004   8.274  64.876  1.00  0.00    -0.072 OA 
HETATM    3  C   UNL     1      -6.714   8.545  72.053  1.00  0.00    -0.087 C  
HETATM    4  C   UNL     1      -7.659   9.118  65.490  1.00  0.00    -0.090 C  
HETATM    5  C   UNL     1      -6.409   7.175  71.453  1.00  0.00    -0.037 C  
HETATM    6  O   UNL     1      -7.620   6.402  71.541  1.00  0.00    -0.095 OA 
HETATM    7  C   UNL     1      -5.946   7.384  69.978  1.00  0.00    -0.024 C  
HETATM    8  C   UNL     1      -8.630   9.985  64.745  1.00  0.00    -0.188 A  
HETATM    9  C   UNL     1      -8.889   9.737  63.387  1.00  0.00    -0.258 A  
HETATM   10  C   UNL     1      -6.766   8.372  69.148  1.00  0.00    -0.047 A  
HETATM   11  C   UNL     1      -9.813  10.517  62.684  1.00  0.00    -0.115 A  
HETATM   12  C   UNL     1     -10.464  11.573  63.318  1.00  0.00    -0.421 A  
HETATM   13  H   UNL     1      -8.962  11.287  70.643  1.00  0.00     0.000 HD 
HETATM   14  H   UNL     1      -7.430   5.550  71.168  1.00  0.00     0.000 HD 
HETATM   15  C   UNL     1     -10.196  11.857  64.661  1.00  0.00    -0.278 A  
HETATM   16  O   UNL     1      -8.965  11.253  69.694  1.00  0.00     0.459 OA 
HETATM   17  C   UNL     1      -6.763   8.340  67.732  1.00  0.00    -0.066 A  
HETATM   18  C   UNL     1      -9.295  11.036  65.387  1.00  0.00    -0.244 A  
HETATM   19  O   UNL     1      -6.003   7.364  67.132  1.00  0.00    -0.038 OA 
HETATM   20  C   UNL     1      -7.543   9.242  66.960  1.00  0.00    -0.091 A  
HETATM   21  O   UNL     1      -9.465  12.222  67.438  1.00  0.00    -0.175 OA 
HETATM   22  C   UNL     1      -7.552   9.349  69.788  1.00  0.00    -0.095 A  
HETATM   23  C   UNL     1      -8.244  10.302  69.011  1.00  0.00    -0.139 A  
HETATM   24  C   UNL     1      -9.029  11.245  66.829  1.00  0.00    -0.171 C  
HETATM   25  C   UNL     1      -8.248  10.252  67.605  1.00  0.00    -0.114 A  
HETATM   26  H   UNL     1      -6.001   7.343  66.182  1.00  0.00     0.000 HD 
ENDROOT
BRANCH   1  27
HETATM   27  O   UNL     1      -9.133   8.561  71.227  1.00  0.00    -0.160 OA 
BRANCH  27  28
HETATM   28  C   UNL     1      -9.854   8.501  70.007  1.00  0.00    -0.179 C  
HETATM   29  O   UNL     1     -11.268   8.655  70.272  1.00  0.00    -0.249 OA 
HETATM   30  C   UNL     1     -13.356   7.779  71.203  1.00  0.00    -0.141 C  
HETATM   31  C   UNL     1     -11.748   6.290  69.992  1.00  0.00    -0.178 C  
HETATM   32  O   UNL     1     -12.313   6.538  68.693  1.00  0.00     1.028 OA 
HETATM   33  H   UNL     1     -13.245   6.709  68.769  1.00  0.00     0.000 HD 
HETATM   34  C   UNL     1     -10.244   6.013  69.870  1.00  0.00    -0.205 C  
HETATM   35  C   UNL     1     -11.883   7.518  70.896  1.00  0.00    -0.267 C  
HETATM   36  C   UNL     1      -9.550   7.214  69.224  1.00  0.00    -0.155 C  
BRANCH  34  37
HETATM   37  N   UNL     1      -9.989   4.755  69.173  1.00  0.00    -0.187 N  
HETATM   38  H   UNL     1     -10.644   4.417  68.469  1.00  0.00     0.000 HD 
HETATM   39  C   UNL     1      -8.706   2.664  68.761  1.00  0.00    -0.086 C  
HETATM   40  F   UNL     1      -7.662   2.637  67.891  1.00  0.00    -0.058 F  
HETATM   41  O   UNL     1      -8.007   4.439  70.284  1.00  0.00    -0.061 OA 
HETATM   42  F   UNL     1      -8.521   1.635  69.634  1.00  0.00    -0.058 F  
HETATM   43  F   UNL     1      -9.822   2.354  68.040  1.00  0.00    -0.239 F  
HETATM   44  C   UNL     1      -8.841   4.019  69.478  1.00  0.00    -0.091 C  
ENDBRANCH  34  37
ENDBRANCH  27  28
ENDBRANCH   1  27
BRANCH   5  45
HETATM   45  C   UNL     1      -5.456   6.175  72.150  1.00  0.00    -0.031 C  
HETATM   46  O   UNL     1      -5.125   5.142  71.545  1.00  0.00    -0.004 OA 
BRANCH  45  47
HETATM   47  C   UNL     1      -5.158   6.259  73.649  1.00  0.00    -0.035 C  
BRANCH  47  48
HETATM   48  O   UNL     1      -6.029   5.595  74.549  1.00  0.00    -0.055 OA 
BRANCH  48  49
HETATM   49  C   UNL     1      -6.166   4.264  74.309  1.00  0.00    -0.041 C  
HETATM   50  O   UNL     1      -5.273   3.437  74.416  1.00  0.00     0.000 OA 
BRANCH  49  51
HETATM   51  C   UNL     1      -7.590   3.950  73.930  1.00  0.00    -0.078 C  
BRANCH  51  52
HETATM   52  C   UNL     1      -8.561   4.988  74.488  1.00  0.00    -0.109 C  
BRANCH  52  53
HETATM   53  C   UNL     1      -9.670   5.336  73.492  1.00  0.00    -0.158 C  
HETATM   54  C   UNL     1     -11.001   4.719  73.878  1.00  0.00    -0.325 C  
ENDBRANCH  52  53
ENDBRANCH  51  52
ENDBRANCH  49  51
ENDBRANCH  48  49
ENDBRANCH  47  48
ENDBRANCH  45  47
ENDBRANCH   5  45
BRANCH  15  55
HETATM   55  O   UNL     1     -10.843  12.869  65.325  1.00  0.00    -0.283 OA 
HETATM   56  C   UNL     1     -12.241  13.019  65.090  1.00  0.00    -0.459 C  
ENDBRANCH  15  55
TORSDOF 11
ENDMDL
MODEL       70
REMARK 921   NORMALIZED FREE ENERGY PREDICTED BY IDOCK:   -0.41 KCAL/MOL
REMARK 922        TOTAL FREE ENERGY PREDICTED BY IDOCK:   -4.23 KCAL/MOL
REMARK 923 INTER-LIGAND FREE ENERGY PREDICTED BY IDOCK:   -5.94 KCAL/MOL
REMARK 924 INTRA-LIGAND FREE ENERGY PREDICTED BY IDOCK:    1.71 KCAL/MOL
REMARK 927      BINDING AFFINITY PREDICTED BY RF-SCORE:    0.00 PKD
ROOT
HETATM    1  C   UNL     1      -9.122  11.129  67.845  1.00  0.00    -0.150 C  
HETATM    2  O   UNL     1      -5.711   7.080  71.665  1.00  0.00    -0.036 OA 
HETATM    3  C   UNL     1      -8.252  12.378  67.525  1.00  0.00    -0.173 C  
HETATM    4  C   UNL     1      -6.691   6.885  70.944  1.00  0.00    -0.054 C  
HETATM    5  C   UNL     1      -7.501  12.845  68.768  1.00  0.00    -0.047 C  
HETATM    6  O   UNL     1      -8.493  13.159  69.762  1.00  0.00     0.932 OA 
HETATM    7  C   UNL     1      -6.552  11.692  69.222  1.00  0.00    -0.111 C  
HETATM    8  C   UNL     1      -7.440   5.590  71.049  1.00  0.00    -0.089 A  
HETATM    9  C   UNL     1      -7.109   4.671  72.058  1.00  0.00    -0.061 A  
HETATM   10  C   UNL     1      -7.153  10.286  69.224  1.00  0.00    -0.083 A  
HETATM   11  C   UNL     1      -7.816   3.472  72.188  1.00  0.00    -0.059 A  
HETATM   12  C   UNL     1      -8.838   3.160  71.295  1.00  0.00    -0.137 A  
HETATM   13  H   UNL     1     -10.238   9.156  67.042  1.00  0.00     0.000 HD 
HETATM   14  H   UNL     1      -8.025  13.449  70.536  1.00  0.00     0.000 HD 
HETATM   15  C   UNL     1      -9.161   4.047  70.263  1.00  0.00    -0.140 A  
HETATM   16  O   UNL     1      -9.870   8.461  67.575  1.00  0.00    -0.159 OA 
HETATM   17  C   UNL     1      -6.601   9.239  70.001  1.00  0.00    -0.051 A  
HETATM   18  C   UNL     1      -8.477   5.285  70.159  1.00  0.00    -0.109 A  
HETATM   19  O   UNL     1      -5.507   9.547  70.776  1.00  0.00    -0.039 OA 
HETATM   20  C   UNL     1      -7.172   7.938  70.023  1.00  0.00    -0.062 A  
HETATM   21  O   UNL     1      -9.630   6.054  68.231  1.00  0.00    -0.117 OA 
HETATM   22  C   UNL     1      -8.286  10.002  68.437  1.00  0.00    -0.106 A  
HETATM   23  C   UNL     1      -8.785   8.683  68.389  1.00  0.00    -0.142 A  
HETATM   24  C   UNL     1      -8.827   6.293  69.132  1.00  0.00    -0.128 C  
HETATM   25  C   UNL     1      -8.240   7.654  69.178  1.00  0.00    -0.130 A  
HETATM   26  H   UNL     1      -5.137   8.845  71.298  1.00  0.00     0.000 HD 
ENDROOT
BRANCH   1  27
HETATM   27  O   UNL     1     -10.129  11.272  68.862  1.00  0.00    -0.204 OA 
BRANCH  27  28
HETATM   28  C   UNL     1     -11.436  11.691  68.503  1.00  0.00    -0.298 C  
HETATM   29  O   UNL     1     -11.697  11.334  67.125  1.00  0.00    -0.533 OA 
HETATM   30  C   UNL     1     -11.262  11.648  64.736  1.00  0.00    -0.300 C  
HETATM   31  C   UNL     1     -11.378  13.598  66.302  1.00  0.00    -0.312 C  
HETATM   32  O   UNL     1     -12.800  13.771  66.169  1.00  0.00    -0.349 OA 
HETATM   33  H   UNL     1     -13.082  13.504  65.301  1.00  0.00     0.000 HD 
HETATM   34  C   UNL     1     -10.922  14.028  67.703  1.00  0.00    -0.269 C  
HETATM   35  C   UNL     1     -10.987  12.124  66.161  1.00  0.00    -0.298 C  
HETATM   36  C   UNL     1     -11.647  13.193  68.760  1.00  0.00    -0.348 C  
BRANCH  34  37
HETATM   37  N   UNL     1     -11.081  15.467  67.895  1.00  0.00    -0.313 N  
HETATM   38  H   UNL     1     -11.672  16.007  67.265  1.00  0.00     0.000 HD 
HETATM   39  C   UNL     1     -10.571  17.628  69.018  1.00  0.00    -0.081 C  
HETATM   40  F   UNL     1     -11.265  18.034  70.114  1.00  0.00     0.975 F  
HETATM   41  O   UNL     1      -9.745  15.454  69.760  1.00  0.00    -0.272 OA 
HETATM   42  F   UNL     1      -9.368  18.265  69.052  1.00  0.00    -0.298 F  
HETATM   43  F   UNL     1     -11.233  18.123  67.932  1.00  0.00    -0.301 F  
HETATM   44  C   UNL     1     -10.417  16.097  68.951  1.00  0.00    -0.258 C  
ENDBRANCH  34  37
ENDBRANCH  27  28
ENDBRANCH   1  27
BRANCH   5  45
HETATM   45  C   UNL     1      -6.726  14.183  68.796  1.00  0.00    -0.098 C  
HETATM   46  O   UNL     1      -7.058  15.050  69.623  1.00  0.00    -0.176 OA 
BRANCH  45  47
HETATM   47  C   UNL     1      -5.786  14.594  67.660  1.00  0.00     0.018 C  
BRANCH  47  48
HETATM   48  O   UNL     1      -6.177  15.660  66.811  1.00  0.00    -0.140 OA 
BRANCH  48  49
HETATM   49  C   UNL     1      -6.293  16.858  67.443  1.00  0.00    -0.156 C  
HETATM   50  O   UNL     1      -5.408  17.398  68.089  1.00  0.00    -0.130 OA 
BRANCH  49  51
HETATM   51  C   UNL     1      -7.660  17.442  67.198  1.00  0.00    -0.226 C  
BRANCH  51  52
HETATM   52  C   UNL     1      -7.645  18.441  66.043  1.00  0.00    -0.231 C  
BRANCH  52  53
HETATM   53  C   UNL     1      -7.674  19.890  66.533  1.00  0.00    -0.316 C  
HETATM   54  C   UNL     1      -7.138  20.028  67.946  1.00  0.00    -0.319 C  
ENDBRANCH  52  53
ENDBRANCH  51  52
ENDBRANCH  49  51
ENDBRANCH  48  49
ENDBRANCH  47  48
ENDBRANCH  45  47
ENDBRANCH   5  45
BRANCH  15  55
HETATM   55  O   UNL     1     -10.184   3.785  69.385  1.00  0.00     0.312 OA 
HETATM   56  C   UNL     1      -9.830   3.296  68.094  1.00  0.00     0.235 C  
ENDBRANCH  15  55
TORSDOF 11
ENDMDL
MODEL       71
REMARK 921   NORMALIZED FREE ENERGY PREDICTED BY IDOCK:    0.46 KCAL/MOL
REMARK 922        TOTAL FREE ENERGY PREDICTED BY IDOCK:   -2.79 KCAL/MOL
REMARK 923 INTER-LIGAND FREE ENERGY PREDICTED BY IDOCK:   -6.66 KCAL/MOL
REMARK 924 INTRA-LIGAND FREE ENERGY PREDICTED BY IDOCK:    3.86 KCAL/MOL
REMARK 927      BINDING AFFINITY PREDICTED BY RF-SCORE:    0.00 PKD
ROOT
HETATM    1  C   UNL     1     -10.576  12.238  68.344  1.00  0.00    -0.235 C  
HETATM    2  O   UNL     1     -10.686   6.327  71.115  1.00  0.00    -0.229 OA 
HETATM    3  C   UNL     1     -11.118  13.285  69.359  1.00  0.00    -0.148 C  
HETATM    4  C   UNL     1     -10.051   6.763  70.153  1.00  0.00    -0.178 C  
HETATM    5  C   UNL     1     -12.335  12.736  70.099  1.00  0.00    -0.165 C  
HETATM    6  O   UNL     1     -13.328  12.433  69.103  1.00  0.00     2.103 OA 
HETATM    7  C   UNL     1     -11.888  11.470  70.895  1.00  0.00    -0.038 C  
HETATM    8  C   UNL     1      -9.311   5.809  69.264  1.00  0.00    -0.148 A  
HETATM    9  C   UNL     1      -9.460   4.424  69.446  1.00  0.00    -0.251 A  
HETATM   10  C   UNL     1     -10.993  10.484  70.144  1.00  0.00    -0.338 A  
HETATM   11  C   UNL     1      -8.800   3.521  68.607  1.00  0.00    -0.159 A  
HETATM   12  C   UNL     1      -7.960   3.986  67.599  1.00  0.00    -0.090 A  
HETATM   13  H   UNL     1      -8.720  11.411  67.057  1.00  0.00     0.000 HD 
HETATM   14  H   UNL     1     -14.085  12.093  69.564  1.00  0.00     0.000 HD 
HETATM   15  C   UNL     1      -7.772   5.360  67.422  1.00  0.00    -0.096 A  
HETATM   16  O   UNL     1      -8.654  10.501  67.322  1.00  0.00    -0.123 OA 
HETATM   17  C   UNL     1     -10.875   9.130  70.543  1.00  0.00    -0.255 A  
HETATM   18  C   UNL     1      -8.478   6.278  68.241  1.00  0.00    -0.114 A  
HETATM   19  O   UNL     1     -11.621   8.732  71.627  1.00  0.00    -0.276 OA 
HETATM   20  C   UNL     1     -10.062   8.207  69.833  1.00  0.00    -0.195 A  
HETATM   21  O   UNL     1      -7.567   8.243  67.268  1.00  0.00    -0.094 OA 
HETATM   22  C   UNL     1     -10.254  10.913  69.024  1.00  0.00    -0.219 A  
HETATM   23  C   UNL     1      -9.374  10.013  68.387  1.00  0.00    -0.138 A  
HETATM   24  C   UNL     1      -8.374   7.744  68.051  1.00  0.00    -0.124 C  
HETATM   25  C   UNL     1      -9.277   8.666  68.779  1.00  0.00    -0.142 A  
HETATM   26  H   UNL     1     -11.542   7.824  71.894  1.00  0.00     0.000 HD 
ENDROOT
BRANCH   1  27
HETATM   27  O   UNL     1     -11.474  11.793  67.313  1.00  0.00    -0.360 OA 
BRANCH  27  28
HETATM   28  C   UNL     1     -12.522  12.645  66.878  1.00  0.00     0.609 C  
HETATM   29  O   UNL     1     -12.751  12.447  65.463  1.00  0.00    -0.530 OA 
HETATM   30  C   UNL     1     -12.002  12.680  63.144  1.00  0.00    -0.359 C  
HETATM   31  C   UNL     1     -11.612  14.496  64.823  1.00  0.00    -0.413 C  
HETATM   32  O   UNL     1     -12.873  15.146  64.587  1.00  0.00    -0.208 OA 
HETATM   33  H   UNL     1     -13.140  15.023  63.684  1.00  0.00     0.000 HD 
HETATM   34  C   UNL     1     -11.179  14.694  66.282  1.00  0.00    -0.340 C  
HETATM   35  C   UNL     1     -11.725  12.983  64.615  1.00  0.00    -0.361 C  
HETATM   36  C   UNL     1     -12.242  14.118  67.218  1.00  0.00    -0.314 C  
BRANCH  34  37
HETATM   37  N   UNL     1     -10.864  16.094  66.557  1.00  0.00    -0.209 N  
HETATM   38  H   UNL     1     -10.850  16.437  67.517  1.00  0.00     0.000 HD 
HETATM   39  C   UNL     1     -10.356  18.433  65.876  1.00  0.00    -0.301 C  
HETATM   40  F   UNL     1      -9.079  18.839  65.648  1.00  0.00    -0.033 F  
HETATM   41  O   UNL     1     -10.539  16.550  64.333  1.00  0.00    -0.420 OA 
HETATM   42  F   UNL     1     -11.171  19.275  65.183  1.00  0.00    -0.315 F  
HETATM   43  F   UNL     1     -10.607  18.663  67.198  1.00  0.00    -0.388 F  
HETATM   44  C   UNL     1     -10.584  16.958  65.496  1.00  0.00    -0.202 C  
ENDBRANCH  34  37
ENDBRANCH  27  28
ENDBRANCH   1  27
BRANCH   5  45
HETATM   45  C   UNL     1     -13.203  13.633  71.013  1.00  0.00    -0.119 C  
HETATM   46  O   UNL     1     -14.029  13.096  71.770  1.00  0.00    -0.163 OA 
BRANCH  45  47
HETATM   47  C   UNL     1     -13.298  15.146  70.801  1.00  0.00    -0.341 C  
BRANCH  47  48
HETATM   48  O   UNL     1     -12.385  15.984  71.490  1.00  0.00    -0.442 OA 
BRANCH  48  49
HETATM   49  C   UNL     1     -11.097  15.863  71.071  1.00  0.00    -0.236 C  
HETATM   50  O   UNL     1     -10.199  15.335  71.708  1.00  0.00     0.821 OA 
BRANCH  49  51
HETATM   51  C   UNL     1     -10.947  16.441  69.687  1.00  0.00    -0.329 C  
BRANCH  51  52
HETATM   52  C   UNL     1      -9.934  17.583  69.663  1.00  0.00     0.272 C  
BRANCH  52  53
HETATM   53  C   UNL     1      -8.579  17.142  69.104  1.00  0.00     0.013 C  
HETATM   54  C   UNL     1      -8.517  15.644  68.871  1.00  0.00    -0.213 C  
ENDBRANCH  52  53
ENDBRANCH  51  52
ENDBRANCH  49  51
ENDBRANCH  48  49
ENDBRANCH  47  48
ENDBRANCH  45  47
ENDBRANCH   5  45
BRANCH  15  55
HETATM   55  O   UNL     1      -6.975   5.853  66.418  1.00  0.00    -0.057 OA 
HETATM   56  C   UNL     1      -7.070   5.230  65.140  1.00  0.00    -0.065 C  
ENDBRANCH  15  55
TORSDOF 11
ENDMDL
MODEL       72
REMARK 921   NORMALIZED FREE ENERGY PREDICTED BY IDOCK:    2.14 KCAL/MOL
REMARK 922        TOTAL FREE ENERGY PREDICTED BY IDOCK:   -0.03 KCAL/MOL
REMARK 923 INTER-LIGAND FREE ENERGY PREDICTED BY IDOCK:   -0.68 KCAL/MOL
REMARK 924 INTRA-LIGAND FREE ENERGY PREDICTED BY IDOCK:    0.65 KCAL/MOL
REMARK 927      BINDING AFFINITY PREDICTED BY RF-SCORE:    0.00 PKD
ROOT
HETATM    1  C   UNL     1      -9.393   8.056  69.650  1.00  0.00    -0.156 C  
HETATM    2  O   UNL     1      -5.373  11.754  66.075  1.00  0.00    -0.260 OA 
HETATM    3  C   UNL     1      -9.325   6.589  69.137  1.00  0.00    -0.133 C  
HETATM    4  C   UNL     1      -5.861  11.930  67.193  1.00  0.00    -0.144 C  
HETATM    5  C   UNL     1      -9.299   6.553  67.612  1.00  0.00    -0.118 C  
HETATM    6  O   UNL     1     -10.505   7.194  67.158  1.00  0.00    -0.252 OA 
HETATM    7  C   UNL     1      -8.015   7.299  67.131  1.00  0.00    -0.110 C  
HETATM    8  C   UNL     1      -5.754  13.278  67.842  1.00  0.00    -0.131 A  
HETATM    9  C   UNL     1      -5.228  14.361  67.121  1.00  0.00     0.908 A  
HETATM   10  C   UNL     1      -7.705   8.623  67.829  1.00  0.00    -0.102 A  
HETATM   11  C   UNL     1      -5.147  15.631  67.701  1.00  0.00    -0.075 A  
HETATM   12  C   UNL     1      -5.560  15.828  69.016  1.00  0.00    -0.104 A  
HETATM   13  H   UNL     1      -8.973   9.620  71.428  1.00  0.00     0.000 HD 
HETATM   14  H   UNL     1     -10.489   7.171  66.209  1.00  0.00     0.000 HD 
HETATM   15  C   UNL     1      -6.058  14.754  69.763  1.00  0.00    -0.131 A  
HETATM   16  O   UNL     1      -8.424  10.279  71.019  1.00  0.00     0.728 OA 
HETATM   17  C   UNL     1      -6.874   9.604  67.235  1.00  0.00    -0.083 A  
HETATM   18  C   UNL     1      -6.184  13.477  69.159  1.00  0.00    -0.097 A  
HETATM   19  O   UNL     1      -6.373   9.323  65.985  1.00  0.00    -0.065 OA 
HETATM   20  C   UNL     1      -6.603  10.844  67.872  1.00  0.00    -0.063 A  
HETATM   21  O   UNL     1      -7.050  12.373  71.076  1.00  0.00     2.357 OA 
HETATM   22  C   UNL     1      -8.247   8.895  69.100  1.00  0.00    -0.118 A  
HETATM   23  C   UNL     1      -7.891  10.087  69.766  1.00  0.00    -0.177 A  
HETATM   24  C   UNL     1      -6.771  12.322  69.878  1.00  0.00     0.205 C  
HETATM   25  C   UNL     1      -7.080  11.063  69.160  1.00  0.00    -0.116 A  
HETATM   26  H   UNL     1      -5.816   9.981  65.586  1.00  0.00     0.000 HD 
ENDROOT
BRANCH   1  27
HETATM   27  O   UNL     1     -10.521   8.846  69.237  1.00  0.00    -0.221 OA 
BRANCH  27  28
HETATM   28  C   UNL     1     -11.835   8.342  69.412  1.00  0.00     1.227 C  
HETATM   29  O   UNL     1     -12.670   9.364  70.007  1.00  0.00     0.544 OA 
HETATM   30  C   UNL     1     -13.267  10.757  71.930  1.00  0.00    -0.524 C  
HETATM   31  C   UNL     1     -12.618   8.356  72.217  1.00  0.00    -0.349 C  
HETATM   32  O   UNL     1     -13.954   7.851  72.039  1.00  0.00    -0.472 OA 
HETATM   33  H   UNL     1     -14.587   8.486  72.353  1.00  0.00     0.000 HD 
HETATM   34  C   UNL     1     -11.594   7.331  71.710  1.00  0.00    -0.275 C  
HETATM   35  C   UNL     1     -12.394   9.625  71.391  1.00  0.00    -0.378 C  
HETATM   36  C   UNL     1     -11.846   7.040  70.230  1.00  0.00    -0.243 C  
BRANCH  34  37
HETATM   37  N   UNL     1     -11.588   6.130  72.541  1.00  0.00    -0.420 N  
HETATM   38  H   UNL     1     -12.391   5.908  73.128  1.00  0.00     0.000 HD 
HETATM   39  C   UNL     1     -10.519   4.099  73.502  1.00  0.00    -0.184 C  
HETATM   40  F   UNL     1     -10.579   2.901  72.862  1.00  0.00    -0.215 F  
HETATM   41  O   UNL     1      -9.516   5.507  71.779  1.00  0.00    -0.148 OA 
HETATM   42  F   UNL     1      -9.428   4.059  74.317  1.00  0.00    -0.108 F  
HETATM   43  F   UNL     1     -11.607   4.156  74.324  1.00  0.00     0.019 F  
HETATM   44  C   UNL     1     -10.473   5.288  72.525  1.00  0.00    -0.216 C  
ENDBRANCH  34  37
ENDBRANCH  27  28
ENDBRANCH   1  27
BRANCH   5  45
HETATM   45  C   UNL     1      -9.443   5.228  66.826  1.00  0.00    -0.140 C  
HETATM   46  O   UNL     1      -9.433   4.156  67.454  1.00  0.00    -0.163 OA 
BRANCH  45  47
HETATM   47  C   UNL     1      -9.288   5.173  65.305  1.00  0.00    -0.040 C  
BRANCH  47  48
HETATM   48  O   UNL     1      -8.473   6.146  64.673  1.00  0.00    -0.093 OA 
BRANCH  48  49
HETATM   49  C   UNL     1      -8.268   5.921  63.347  1.00  0.00    -0.052 C  
HETATM   50  O   UNL     1      -8.718   4.975  62.719  1.00  0.00    -0.124 OA 
BRANCH  49  51
HETATM   51  C   UNL     1      -7.438   7.031  62.757  1.00  0.00    -0.091 C  
BRANCH  51  52
HETATM   52  C   UNL     1      -7.955   8.404  63.178  1.00  0.00    -0.161 C  
BRANCH  52  53
HETATM   53  C   UNL     1      -7.135   9.542  62.566  1.00  0.00    -0.100 C  
HETATM   54  C   UNL     1      -7.928  10.832  62.472  1.00  0.00    -0.175 C  
ENDBRANCH  52  53
ENDBRANCH  51  52
ENDBRANCH  49  51
ENDBRANCH  48  49
ENDBRANCH  47  48
ENDBRANCH  45  47
ENDBRANCH   5  45
BRANCH  15  55
HETATM   55  O   UNL     1      -6.503  14.920  71.051  1.00  0.00     0.114 OA 
HETATM   56  C   UNL     1      -5.604  15.513  71.984  1.00  0.00     0.546 C  
ENDBRANCH  15  55
TORSDOF 11
ENDMDL
MODEL       73
REMARK 921   NORMALIZED FREE ENERGY PREDICTED BY IDOCK:    2.63 KCAL/MOL
REMARK 922        TOTAL FREE ENERGY PREDICTED BY IDOCK:    0.76 KCAL/MOL
REMARK 923 INTER-LIGAND FREE ENERGY PREDICTED BY IDOCK:   -3.15 KCAL/MOL
REMARK 924 INTRA-LIGAND FREE ENERGY PREDICTED BY IDOCK:    3.91 KCAL/MOL
REMARK 927      BINDING AFFINITY PREDICTED BY RF-SCORE:    0.00 PKD
ROOT
HETATM    1  C   UNL     1      -7.532  10.892  69.880  1.00  0.00     0.172 C  
HETATM    2  O   UNL     1      -9.726   9.668  63.854  1.00  0.00     0.047 OA 
HETATM    3  C   UNL     1      -6.358   9.923  70.200  1.00  0.00    -0.084 C  
HETATM    4  C   UNL     1      -9.838  10.661  64.575  1.00  0.00    -0.327 C  
HETATM    5  C   UNL     1      -6.669   8.516  69.699  1.00  0.00    -0.040 C  
HETATM    6  O   UNL     1      -7.872   8.092  70.365  1.00  0.00    -0.085 OA 
HETATM    7  C   UNL     1      -6.842   8.580  68.149  1.00  0.00    -0.069 C  
HETATM    8  C   UNL     1     -10.800  11.746  64.191  1.00  0.00    -0.418 A  
HETATM    9  C   UNL     1     -11.662  11.562  63.097  1.00  0.00     0.022 A  
HETATM   10  C   UNL     1      -7.679   9.742  67.612  1.00  0.00    -0.094 A  
HETATM   11  C   UNL     1     -12.584  12.552  62.743  1.00  0.00     0.692 A  
HETATM   12  C   UNL     1     -12.635  13.748  63.454  1.00  0.00     0.242 A  
HETATM   13  H   UNL     1      -8.276  13.148  69.507  1.00  0.00     0.000 HD 
HETATM   14  H   UNL     1      -8.065   7.216  70.054  1.00  0.00     0.000 HD 
HETATM   15  C   UNL     1     -11.763  13.965  64.526  1.00  0.00    -0.410 A  
HETATM   16  O   UNL     1      -8.690  13.107  68.653  1.00  0.00    -0.091 OA 
HETATM   17  C   UNL     1      -8.285   9.696  66.333  1.00  0.00    -0.119 A  
HETATM   18  C   UNL     1     -10.860  12.942  64.916  1.00  0.00    -0.331 A  
HETATM   19  O   UNL     1      -8.106   8.548  65.599  1.00  0.00    -0.106 OA 
HETATM   20  C   UNL     1      -9.082  10.764  65.842  1.00  0.00    -0.208 A  
HETATM   21  O   UNL     1      -9.858  14.151  66.697  1.00  0.00    -0.264 OA 
HETATM   22  C   UNL     1      -7.864  10.899  68.393  1.00  0.00    -0.123 A  
HETATM   23  C   UNL     1      -8.574  11.993  67.856  1.00  0.00    -0.165 A  
HETATM   24  C   UNL     1      -9.965  13.088  66.087  1.00  0.00    -0.278 C  
HETATM   25  C   UNL     1      -9.187  11.932  66.592  1.00  0.00    -0.206 A  
HETATM   26  H   UNL     1      -8.513   8.517  64.740  1.00  0.00     0.000 HD 
ENDROOT
BRANCH   1  27
HETATM   27  O   UNL     1      -8.820  10.571  70.436  1.00  0.00     0.501 OA 
BRANCH  27  28
HETATM   28  C   UNL     1      -9.961  10.545  69.595  1.00  0.00    -0.112 C  
HETATM   29  O   UNL     1     -11.147  10.815  70.379  1.00  0.00    -0.266 OA 
HETATM   30  C   UNL     1     -12.758  10.126  72.089  1.00  0.00    -0.316 C  
HETATM   31  C   UNL     1     -11.851   8.490  70.424  1.00  0.00     0.086 C  
HETATM   32  O   UNL     1     -12.861   8.756  69.435  1.00  0.00     2.236 OA 
HETATM   33  H   UNL     1     -13.676   9.002  69.858  1.00  0.00     0.000 HD 
HETATM   34  C   UNL     1     -10.535   8.093  69.742  1.00  0.00    -0.227 C  
HETATM   35  C   UNL     1     -11.542   9.743  71.248  1.00  0.00    -0.390 C  
HETATM   36  C   UNL     1     -10.071   9.221  68.819  1.00  0.00    -0.210 C  
BRANCH  34  37
HETATM   37  N   UNL     1     -10.655   6.805  69.064  1.00  0.00    -0.216 N  
HETATM   38  H   UNL     1     -10.885   5.965  69.594  1.00  0.00     0.000 HD 
HETATM   39  C   UNL     1     -10.509   5.321  67.072  1.00  0.00    -0.229 C  
HETATM   40  F   UNL     1     -11.568   5.156  66.236  1.00  0.00     0.163 F  
HETATM   41  O   UNL     1     -10.233   7.746  67.015  1.00  0.00    -0.247 OA 
HETATM   42  F   UNL     1      -9.389   5.026  66.355  1.00  0.00    -0.127 F  
HETATM   43  F   UNL     1     -10.614   4.354  68.029  1.00  0.00     0.049 F  
HETATM   44  C   UNL     1     -10.453   6.733  67.683  1.00  0.00    -0.229 C  
ENDBRANCH  34  37
ENDBRANCH  27  28
ENDBRANCH   1  27
BRANCH   5  45
HETATM   45  C   UNL     1      -5.775   7.307  70.063  1.00  0.00    -0.024 C  
HETATM   46  O   UNL     1      -5.135   6.742  69.160  1.00  0.00    -0.012 OA 
BRANCH  45  47
HETATM   47  C   UNL     1      -5.888   6.600  71.416  1.00  0.00    -0.036 C  
BRANCH  47  48
HETATM   48  O   UNL     1      -7.142   6.605  72.078  1.00  0.00    -0.077 OA 
BRANCH  48  49
HETATM   49  C   UNL     1      -7.641   5.365  72.328  1.00  0.00    -0.100 C  
HETATM   50  O   UNL     1      -7.286   4.340  71.767  1.00  0.00    -0.059 OA 
BRANCH  49  51
HETATM   51  C   UNL     1      -8.669   5.434  73.428  1.00  0.00    -0.115 C  
BRANCH  51  52
HETATM   52  C   UNL     1     -10.082   5.580  72.867  1.00  0.00    -0.202 C  
BRANCH  52  53
HETATM   53  C   UNL     1     -11.011   4.462  73.347  1.00  0.00    -0.375 C  
HETATM   54  C   UNL     1     -10.905   3.219  72.483  1.00  0.00     0.123 C  
ENDBRANCH  52  53
ENDBRANCH  51  52
ENDBRANCH  49  51
ENDBRANCH  48  49
ENDBRANCH  47  48
ENDBRANCH  45  47
ENDBRANCH   5  45
BRANCH  15  55
HETATM   55  O   UNL     1     -11.808  15.119  65.267  1.00  0.00    -0.212 OA 
HETATM   56  C   UNL     1     -11.156  16.268  64.732  1.00  0.00    -0.281 C  
ENDBRANCH  15  55
TORSDOF 11
ENDMDL
MODEL       74
REMARK 921   NORMALIZED FREE ENERGY PREDICTED BY IDOCK:    2.66 KCAL/MOL
REMARK 922        TOTAL FREE ENERGY PREDICTED BY IDOCK:    0.82 KCAL/MOL
REMARK 923 INTER-LIGAND FREE ENERGY PREDICTED BY IDOCK:   -0.82 KCAL/MOL
REMARK 924 INTRA-LIGAND FREE ENERGY PREDICTED BY IDOCK:    1.65 KCAL/MOL
REMARK 927      BINDING AFFINITY PREDICTED BY RF-SCORE:    0.00 PKD
ROOT
HETATM    1  C   UNL     1      -7.075  12.415  66.630  1.00  0.00     0.455 C  
HETATM    2  O   UNL     1      -8.311   8.125  71.395  1.00  0.00    -0.104 OA 
HETATM    3  C   UNL     1      -6.230  13.586  67.208  1.00  0.00     0.286 C  
HETATM    4  C   UNL     1      -8.332   8.007  70.168  1.00  0.00    -0.126 C  
HETATM    5  C   UNL     1      -6.749  13.997  68.583  1.00  0.00    -0.096 C  
HETATM    6  O   UNL     1      -8.120  14.399  68.408  1.00  0.00    -0.130 OA 
HETATM    7  C   UNL     1      -6.608  12.774  69.541  1.00  0.00    -0.031 C  
HETATM    8  C   UNL     1      -8.934   6.778  69.555  1.00  0.00    -0.139 A  
HETATM    9  C   UNL     1      -9.594   5.842  70.368  1.00  0.00    -0.204 A  
HETATM   10  C   UNL     1      -7.046  11.422  68.976  1.00  0.00    -0.117 A  
HETATM   11  C   UNL     1     -10.186   4.706  69.809  1.00  0.00    -0.139 A  
HETATM   12  C   UNL     1     -10.101   4.473  68.439  1.00  0.00    -0.030 A  
HETATM   13  H   UNL     1      -7.209  10.534  65.137  1.00  0.00     0.000 HD 
HETATM   14  H   UNL     1      -8.443  14.655  69.263  1.00  0.00     0.000 HD 
HETATM   15  C   UNL     1      -9.420   5.376  67.616  1.00  0.00    -0.122 A  
HETATM   16  O   UNL     1      -7.453   9.814  65.707  1.00  0.00    -0.097 OA 
HETATM   17  C   UNL     1      -7.395  10.338  69.819  1.00  0.00    -0.165 A  
HETATM   18  C   UNL     1      -8.860   6.553  68.175  1.00  0.00    -0.115 A  
HETATM   19  O   UNL     1      -7.343  10.561  71.175  1.00  0.00     0.204 OA 
HETATM   20  C   UNL     1      -7.825   9.090  69.296  1.00  0.00    -0.095 A  
HETATM   21  O   UNL     1      -7.966   7.401  66.145  1.00  0.00    -0.102 OA 
HETATM   22  C   UNL     1      -7.110  11.226  67.583  1.00  0.00    -0.090 A  
HETATM   23  C   UNL     1      -7.442   9.952  67.075  1.00  0.00    -0.091 A  
HETATM   24  C   UNL     1      -8.192   7.580  67.341  1.00  0.00    -0.116 C  
HETATM   25  C   UNL     1      -7.804   8.888  67.920  1.00  0.00    -0.102 A  
HETATM   26  H   UNL     1      -7.577   9.834  71.740  1.00  0.00     0.000 HD 
ENDROOT
BRANCH   1  27
HETATM   27  O   UNL     1      -8.482  12.646  66.446  1.00  0.00     0.038 OA 
BRANCH  27  28
HETATM   28  C   UNL     1      -9.262  11.705  65.727  1.00  0.00    -0.173 C  
HETATM   29  O   UNL     1     -10.254  12.402  64.937  1.00  0.00    -0.281 OA 
HETATM   30  C   UNL     1     -12.298  13.745  64.809  1.00  0.00    -0.420 C  
HETATM   31  C   UNL     1     -12.077  11.870  66.454  1.00  0.00     0.376 C  
HETATM   32  O   UNL     1     -12.562  10.862  65.550  1.00  0.00     2.712 OA 
HETATM   33  H   UNL     1     -13.188  11.241  64.944  1.00  0.00     0.000 HD 
HETATM   34  C   UNL     1     -11.065  11.259  67.433  1.00  0.00    -0.297 C  
HETATM   35  C   UNL     1     -11.327  12.972  65.701  1.00  0.00    -0.301 C  
HETATM   36  C   UNL     1      -9.895  10.655  66.655  1.00  0.00    -0.245 C  
BRANCH  34  37
HETATM   37  N   UNL     1     -11.707  10.310  68.338  1.00  0.00    -0.477 N  
HETATM   38  H   UNL     1     -11.823   9.336  68.062  1.00  0.00     0.000 HD 
HETATM   39  C   UNL     1     -12.907   9.699  70.431  1.00  0.00     0.245 C  
HETATM   40  F   UNL     1     -12.229   9.361  71.560  1.00  0.00    -0.339 F  
HETATM   41  O   UNL     1     -11.979  11.908  69.962  1.00  0.00    -0.322 OA 
HETATM   42  F   UNL     1     -14.137  10.133  70.822  1.00  0.00    -0.103 F  
HETATM   43  F   UNL     1     -13.114   8.540  69.740  1.00  0.00     1.620 F  
HETATM   44  C   UNL     1     -12.161  10.748  69.585  1.00  0.00    -0.254 C  
ENDBRANCH  34  37
ENDBRANCH  27  28
ENDBRANCH   1  27
BRANCH   5  45
HETATM   45  C   UNL     1      -6.235  15.268  69.299  1.00  0.00    -0.118 C  
HETATM   46  O   UNL     1      -5.172  15.206  69.940  1.00  0.00    -0.095 OA 
BRANCH  45  47
HETATM   47  C   UNL     1      -7.127  16.495  69.502  1.00  0.00    -0.091 C  
BRANCH  47  48
HETATM   48  O   UNL     1      -6.523  17.777  69.505  1.00  0.00    -0.245 OA 
BRANCH  48  49
HETATM   49  C   UNL     1      -7.131  18.679  68.688  1.00  0.00    -0.288 C  
HETATM   50  O   UNL     1      -8.230  19.173  68.886  1.00  0.00    -0.351 OA 
BRANCH  49  51
HETATM   51  C   UNL     1      -6.233  19.010  67.524  1.00  0.00    -0.188 C  
BRANCH  51  52
HETATM   52  C   UNL     1      -5.956  17.781  66.661  1.00  0.00    -0.204 C  
BRANCH  52  53
HETATM   53  C   UNL     1      -6.590  17.895  65.273  1.00  0.00     0.246 C  
HETATM   54  C   UNL     1      -5.587  18.326  64.219  1.00  0.00     0.256 C  
ENDBRANCH  52  53
ENDBRANCH  51  52
ENDBRANCH  49  51
ENDBRANCH  48  49
ENDBRANCH  47  48
ENDBRANCH  45  47
ENDBRANCH   5  45
BRANCH  15  55
HETATM   55  O   UNL     1      -9.344   5.194  66.257  1.00  0.00    -0.139 OA 
HETATM   56  C   UNL     1      -8.671   4.028  65.789  1.00  0.00    -0.119 C  
ENDBRANCH  15  55
TORSDOF 11
ENDMDL
MODEL       75
REMARK 921   NORMALIZED FREE ENERGY PREDICTED BY IDOCK:    2.70 KCAL/MOL
REMARK 922        TOTAL FREE ENERGY PREDICTED BY IDOCK:    0.89 KCAL/MOL
REMARK 923 INTER-LIGAND FREE ENERGY PREDICTED BY IDOCK:    0.43 KCAL/MOL
REMARK 924 INTRA-LIGAND FREE ENERGY PREDICTED BY IDOCK:    0.46 KCAL/MOL
REMARK 927      BINDING AFFINITY PREDICTED BY RF-SCORE:    0.00 PKD
ROOT
HETATM    1  C   UNL     1     -11.160  11.072  68.369  1.00  0.00    -0.251 C  
HETATM    2  O   UNL     1      -7.955   8.399  63.349  1.00  0.00    -0.149 OA 
HETATM    3  C   UNL     1     -12.019  12.260  67.849  1.00  0.00    -0.240 C  
HETATM    4  C   UNL     1      -8.238   7.954  64.462  1.00  0.00    -0.069 C  
HETATM    5  C   UNL     1     -11.237  13.083  66.829  1.00  0.00    -0.298 C  
HETATM    6  O   UNL     1     -10.057  13.564  67.497  1.00  0.00    -0.229 OA 
HETATM    7  C   UNL     1     -10.897  12.159  65.618  1.00  0.00    -0.323 C  
HETATM    8  C   UNL     1      -7.608   6.675  64.929  1.00  0.00    -0.101 A  
HETATM    9  C   UNL     1      -6.599   6.072  64.160  1.00  0.00    -0.037 A  
HETATM   10  C   UNL     1     -10.387  10.759  65.962  1.00  0.00    -0.300 A  
HETATM   11  C   UNL     1      -5.981   4.896  64.595  1.00  0.00    -0.021 A  
HETATM   12  C   UNL     1      -6.383   4.290  65.783  1.00  0.00    -0.032 A  
HETATM   13  H   UNL     1     -11.089   8.881  69.358  1.00  0.00     0.000 HD 
HETATM   14  H   UNL     1      -9.571  14.077  66.862  1.00  0.00     0.000 HD 
HETATM   15  C   UNL     1      -7.408   4.858  66.547  1.00  0.00    -0.082 A  
HETATM   16  O   UNL     1     -10.577   8.374  68.739  1.00  0.00    -0.203 OA 
HETATM   17  C   UNL     1      -9.639   9.989  65.039  1.00  0.00    -0.297 A  
HETATM   18  C   UNL     1      -8.003   6.077  66.131  1.00  0.00    -0.107 A  
HETATM   19  O   UNL     1      -9.369  10.566  63.820  1.00  0.00    -0.231 OA 
HETATM   20  C   UNL     1      -9.145   8.698  65.364  1.00  0.00    -0.150 A  
HETATM   21  O   UNL     1      -9.540   6.239  67.934  1.00  0.00    -0.119 OA 
HETATM   22  C   UNL     1     -10.660  10.199  67.225  1.00  0.00    -0.321 A  
HETATM   23  C   UNL     1     -10.250   8.877  67.502  1.00  0.00    -0.248 A  
HETATM   24  C   UNL     1      -9.041   6.760  66.937  1.00  0.00    -0.137 C  
HETATM   25  C   UNL     1      -9.492   8.128  66.585  1.00  0.00    -0.274 A  
HETATM   26  H   UNL     1      -8.867  10.050  63.200  1.00  0.00     0.000 HD 
ENDROOT
BRANCH   1  27
HETATM   27  O   UNL     1      -9.917  11.393  69.018  1.00  0.00    -0.171 OA 
BRANCH  27  28
HETATM   28  C   UNL     1      -9.847  11.408  70.434  1.00  0.00     2.811 C  
HETATM   29  O   UNL     1      -8.462  11.350  70.851  1.00  0.00     4.177 OA 
HETATM   30  C   UNL     1      -6.363  10.107  71.058  1.00  0.00     0.067 C  
HETATM   31  C   UNL     1      -8.573   9.002  71.468  1.00  0.00    -0.041 C  
HETATM   32  O   UNL     1      -8.621   9.351  72.862  1.00  0.00     0.826 OA 
HETATM   33  H   UNL     1      -7.742   9.394  73.220  1.00  0.00     0.000 HD 
HETATM   34  C   UNL     1      -9.992   8.932  70.890  1.00  0.00    -0.242 C  
HETATM   35  C   UNL     1      -7.837  10.073  70.658  1.00  0.00     0.405 C  
HETATM   36  C   UNL     1     -10.687  10.284  71.063  1.00  0.00     0.287 C  
BRANCH  34  37
HETATM   37  N   UNL     1     -10.745   7.819  71.464  1.00  0.00    -0.221 N  
HETATM   38  H   UNL     1     -11.750   7.902  71.612  1.00  0.00     0.000 HD 
HETATM   39  C   UNL     1     -10.936   5.561  72.491  1.00  0.00    -0.263 C  
HETATM   40  F   UNL     1     -11.079   4.448  71.725  1.00  0.00     0.039 F  
HETATM   41  O   UNL     1      -8.873   6.499  71.584  1.00  0.00    -0.135 OA 
HETATM   42  F   UNL     1     -10.407   5.158  73.680  1.00  0.00    -0.169 F  
HETATM   43  F   UNL     1     -12.195   6.009  72.767  1.00  0.00    -0.197 F  
HETATM   44  C   UNL     1     -10.077   6.641  71.809  1.00  0.00    -0.183 C  
ENDBRANCH  34  37
ENDBRANCH  27  28
ENDBRANCH   1  27
BRANCH   5  45
HETATM   45  C   UNL     1     -11.764  14.439  66.303  1.00  0.00    -0.385 C  
HETATM   46  O   UNL     1     -12.331  14.473  65.198  1.00  0.00    -0.384 OA 
BRANCH  45  47
HETATM   47  C   UNL     1     -11.346  15.767  66.939  1.00  0.00     0.050 C  
BRANCH  47  48
HETATM   48  O   UNL     1     -10.308  15.756  67.905  1.00  0.00    -0.250 OA 
BRANCH  48  49
HETATM   49  C   UNL     1      -9.491  16.841  67.853  1.00  0.00    -0.230 C  
HETATM   50  O   UNL     1      -9.713  17.857  67.211  1.00  0.00    -0.276 OA 
BRANCH  49  51
HETATM   51  C   UNL     1      -8.288  16.627  68.736  1.00  0.00    -0.252 C  
BRANCH  51  52
HETATM   52  C   UNL     1      -7.079  17.414  68.238  1.00  0.00    -0.203 C  
BRANCH  52  53
HETATM   53  C   UNL     1      -5.994  16.502  67.659  1.00  0.00    -0.163 C  
HETATM   54  C   UNL     1      -5.244  15.748  68.741  1.00  0.00    -0.104 C  
ENDBRANCH  52  53
ENDBRANCH  51  52
ENDBRANCH  49  51
ENDBRANCH  48  49
ENDBRANCH  47  48
ENDBRANCH  45  47
ENDBRANCH   5  45
BRANCH  15  55
HETATM   55  O   UNL     1      -7.807   4.305  67.738  1.00  0.00    -0.082 OA 
HETATM   56  C   UNL     1      -7.756   2.885  67.852  1.00  0.00    -0.056 C  
ENDBRANCH  15  55
TORSDOF 11
ENDMDL
MODEL       76
REMARK 921   NORMALIZED FREE ENERGY PREDICTED BY IDOCK:    3.27 KCAL/MOL
REMARK 922        TOTAL FREE ENERGY PREDICTED BY IDOCK:    1.82 KCAL/MOL
REMARK 923 INTER-LIGAND FREE ENERGY PREDICTED BY IDOCK:   -2.56 KCAL/MOL
REMARK 924 INTRA-LIGAND FREE ENERGY PREDICTED BY IDOCK:    4.38 KCAL/MOL
REMARK 927      BINDING AFFINITY PREDICTED BY RF-SCORE:    0.00 PKD
ROOT
HETATM    1  C   UNL     1     -10.284  11.651  66.533  1.00  0.00    -0.214 C  
HETATM    2  O   UNL     1      -5.133   7.959  68.103  1.00  0.00    -0.029 OA 
HETATM    3  C   UNL     1      -9.888  13.151  66.651  1.00  0.00    -0.261 C  
HETATM    4  C   UNL     1      -6.153   7.702  67.460  1.00  0.00    -0.049 C  
HETATM    5  C   UNL     1      -9.046  13.389  67.901  1.00  0.00    -0.208 C  
HETATM    6  O   UNL     1      -9.846  12.984  69.026  1.00  0.00    -0.409 OA 
HETATM    7  C   UNL     1      -7.738  12.547  67.771  1.00  0.00    -0.142 C  
HETATM    8  C   UNL     1      -6.468   6.277  67.115  1.00  0.00    -0.053 A  
HETATM    9  C   UNL     1      -5.683   5.239  67.643  1.00  0.00    -0.013 A  
HETATM   10  C   UNL     1      -7.907  11.111  67.274  1.00  0.00    -0.137 A  
HETATM   11  C   UNL     1      -5.981   3.904  67.355  1.00  0.00    -0.024 A  
HETATM   12  C   UNL     1      -7.044   3.589  66.512  1.00  0.00    -0.063 A  
HETATM   13  H   UNL     1     -10.951   9.819  65.124  1.00  0.00     0.000 HD 
HETATM   14  H   UNL     1      -9.321  13.132  69.805  1.00  0.00     0.000 HD 
HETATM   15  C   UNL     1      -7.818   4.609  65.949  1.00  0.00    -0.095 A  
HETATM   16  O   UNL     1     -10.297   9.153  65.302  1.00  0.00     0.580 OA 
HETATM   17  C   UNL     1      -6.930  10.116  67.519  1.00  0.00    -0.085 A  
HETATM   18  C   UNL     1      -7.546   5.962  66.279  1.00  0.00    -0.094 A  
HETATM   19  O   UNL     1      -5.825  10.493  68.246  1.00  0.00    -0.043 OA 
HETATM   20  C   UNL     1      -7.096   8.776  67.079  1.00  0.00    -0.078 A  
HETATM   21  O   UNL     1      -9.258   6.903  64.929  1.00  0.00     0.598 OA 
HETATM   22  C   UNL     1      -9.058  10.746  66.550  1.00  0.00    -0.181 A  
HETATM   23  C   UNL     1      -9.167   9.438  66.032  1.00  0.00    -0.200 A  
HETATM   24  C   UNL     1      -8.378   7.078  65.771  1.00  0.00    -0.143 C  
HETATM   25  C   UNL     1      -8.199   8.453  66.295  1.00  0.00    -0.111 A  
HETATM   26  H   UNL     1      -5.169   9.826  68.410  1.00  0.00     0.000 HD 
ENDROOT
BRANCH   1  27
HETATM   27  O   UNL     1     -11.045  11.084  67.613  1.00  0.00    -0.260 OA 
BRANCH  27  28
HETATM   28  C   UNL     1     -10.901   9.709  67.928  1.00  0.00    -0.215 C  
HETATM   29  O   UNL     1     -12.090   9.241  68.607  1.00  0.00     1.389 OA 
HETATM   30  C   UNL     1     -13.537   9.236  70.583  1.00  0.00     0.336 C  
HETATM   31  C   UNL     1     -11.043   9.251  70.801  1.00  0.00    -0.285 C  
HETATM   32  O   UNL     1     -10.914   7.819  70.767  1.00  0.00    -0.243 OA 
HETATM   33  H   UNL     1     -11.684   7.412  71.146  1.00  0.00     0.000 HD 
HETATM   34  C   UNL     1      -9.799   9.909  70.188  1.00  0.00    -0.219 C  
HETATM   35  C   UNL     1     -12.231   9.717  69.954  1.00  0.00     0.295 C  
HETATM   36  C   UNL     1      -9.626   9.438  68.743  1.00  0.00    -0.156 C  
BRANCH  34  37
HETATM   37  N   UNL     1      -8.617   9.683  71.015  1.00  0.00    -0.006 N  
HETATM   38  H   UNL     1      -8.409  10.305  71.795  1.00  0.00     0.000 HD 
HETATM   39  C   UNL     1      -6.503   8.504  71.594  1.00  0.00    -0.067 C  
HETATM   40  F   UNL     1      -6.505   7.404  72.393  1.00  0.00    -0.050 F  
HETATM   41  O   UNL     1      -8.036   7.809  69.826  1.00  0.00    -0.110 OA 
HETATM   42  F   UNL     1      -5.370   8.445  70.842  1.00  0.00    -0.028 F  
HETATM   43  F   UNL     1      -6.358   9.583  72.418  1.00  0.00     0.065 F  
HETATM   44  C   UNL     1      -7.772   8.607  70.728  1.00  0.00    -0.090 C  
ENDBRANCH  34  37
ENDBRANCH  27  28
ENDBRANCH   1  27
BRANCH   5  45
HETATM   45  C   UNL     1      -8.689  14.815  68.382  1.00  0.00    -0.169 C  
HETATM   46  O   UNL     1      -8.017  14.946  69.419  1.00  0.00    -0.178 OA 
BRANCH  45  47
HETATM   47  C   UNL     1      -9.382  16.054  67.811  1.00  0.00    -0.211 C  
BRANCH  47  48
HETATM   48  O   UNL     1      -9.771  17.084  68.705  1.00  0.00    -0.260 OA 
BRANCH  48  49
HETATM   49  C   UNL     1      -9.087  18.248  68.541  1.00  0.00    -0.311 C  
HETATM   50  O   UNL     1      -8.675  18.952  69.450  1.00  0.00     0.045 OA 
BRANCH  49  51
HETATM   51  C   UNL     1      -8.876  18.522  67.074  1.00  0.00    -0.278 C  
BRANCH  51  52
HETATM   52  C   UNL     1      -8.278  19.908  66.843  1.00  0.00    -0.358 C  
BRANCH  52  53
HETATM   53  C   UNL     1      -9.134  20.754  65.897  1.00  0.00     0.589 C  
HETATM   54  C   UNL     1     -10.342  19.994  65.383  1.00  0.00    -0.106 C  
ENDBRANCH  52  53
ENDBRANCH  51  52
ENDBRANCH  49  51
ENDBRANCH  48  49
ENDBRANCH  47  48
ENDBRANCH  45  47
ENDBRANCH   5  45
BRANCH  15  55
HETATM   55  O   UNL     1      -8.892   4.333  65.140  1.00  0.00    -0.124 OA 
HETATM   56  C   UNL     1      -8.805   3.180  64.307  1.00  0.00    -0.099 C  
ENDBRANCH  15  55
TORSDOF 11
ENDMDL
MODEL       77
REMARK 921   NORMALIZED FREE ENERGY PREDICTED BY IDOCK:    3.47 KCAL/MOL
REMARK 922        TOTAL FREE ENERGY PREDICTED BY IDOCK:    2.15 KCAL/MOL
REMARK 923 INTER-LIGAND FREE ENERGY PREDICTED BY IDOCK:   -0.90 KCAL/MOL
REMARK 924 INTRA-LIGAND FREE ENERGY PREDICTED BY IDOCK:    3.05 KCAL/MOL
REMARK 927      BINDING AFFINITY PREDICTED BY RF-SCORE:    0.00 PKD
ROOT
HETATM    1  C   UNL     1      -9.605  13.005  68.484  1.00  0.00    -0.111 C  
HETATM    2  O   UNL     1      -9.522  10.618  62.408  1.00  0.00    -0.257 OA 
HETATM    3  C   UNL     1     -10.256  14.418  68.466  1.00  0.00    -0.243 C  
HETATM    4  C   UNL     1      -9.438  10.058  63.503  1.00  0.00    -0.187 C  
HETATM    5  C   UNL     1      -9.767  15.221  67.264  1.00  0.00    -0.212 C  
HETATM    6  O   UNL     1      -8.336  15.323  67.385  1.00  0.00    -0.155 OA 
HETATM    7  C   UNL     1     -10.199  14.467  65.968  1.00  0.00    -0.328 C  
HETATM    8  C   UNL     1      -9.033   8.616  63.566  1.00  0.00     0.442 A  
HETATM    9  C   UNL     1      -8.617   7.955  62.399  1.00  0.00     0.042 A  
HETATM   10  C   UNL     1      -9.981  12.953  65.965  1.00  0.00    -0.275 A  
HETATM   11  C   UNL     1      -8.208   6.618  62.445  1.00  0.00    -0.052 A  
HETATM   12  C   UNL     1      -8.240   5.917  63.648  1.00  0.00    -0.049 A  
HETATM   13  H   UNL     1      -9.719  10.712  69.200  1.00  0.00     0.000 HD 
HETATM   14  H   UNL     1      -8.031  15.823  66.637  1.00  0.00     0.000 HD 
HETATM   15  C   UNL     1      -8.681   6.548  64.816  1.00  0.00     0.285 A  
HETATM   16  O   UNL     1      -9.653  10.223  68.388  1.00  0.00    -0.143 OA 
HETATM   17  C   UNL     1      -9.899  12.213  64.761  1.00  0.00    -0.133 A  
HETATM   18  C   UNL     1      -9.051   7.917  64.779  1.00  0.00     0.691 A  
HETATM   19  O   UNL     1     -10.003  12.920  63.586  1.00  0.00    -0.708 OA 
HETATM   20  C   UNL     1      -9.673  10.811  64.755  1.00  0.00    -0.338 A  
HETATM   21  O   UNL     1      -9.628   8.088  67.076  1.00  0.00    -0.168 OA 
HETATM   22  C   UNL     1      -9.857  12.255  67.182  1.00  0.00    -0.207 A  
HETATM   23  C   UNL     1      -9.733  10.850  67.167  1.00  0.00    -0.174 A  
HETATM   24  C   UNL     1      -9.457   8.655  65.998  1.00  0.00    -0.208 C  
HETATM   25  C   UNL     1      -9.635  10.126  65.966  1.00  0.00    -0.265 A  
HETATM   26  H   UNL     1      -9.948  12.424  62.778  1.00  0.00     0.000 HD 
ENDROOT
BRANCH   1  27
HETATM   27  O   UNL     1      -8.169  12.943  68.550  1.00  0.00    -0.139 OA 
BRANCH  27  28
HETATM   28  C   UNL     1      -7.539  12.512  69.745  1.00  0.00     1.212 C  
HETATM   29  O   UNL     1      -6.405  11.674  69.418  1.00  0.00    -0.083 OA 
HETATM   30  C   UNL     1      -5.509   9.571  68.539  1.00  0.00    -0.040 C  
HETATM   31  C   UNL     1      -7.559   9.609  69.976  1.00  0.00    -0.147 C  
HETATM   32  O   UNL     1      -6.835   9.516  71.215  1.00  0.00    -0.281 OA 
HETATM   33  H   UNL     1      -6.032   9.023  71.089  1.00  0.00     0.000 HD 
HETATM   34  C   UNL     1      -8.855  10.404  70.179  1.00  0.00     0.489 C  
HETATM   35  C   UNL     1      -6.752  10.372  68.922  1.00  0.00    -0.058 C  
HETATM   36  C   UNL     1      -8.524  11.807  70.692  1.00  0.00     5.945 C  
BRANCH  34  37
HETATM   37  N   UNL     1      -9.793   9.683  71.036  1.00  0.00    -0.294 N  
HETATM   38  H   UNL     1      -9.448   9.044  71.750  1.00  0.00     0.000 HD 
HETATM   39  C   UNL     1     -12.077   9.006  71.752  1.00  0.00    -0.368 C  
HETATM   40  F   UNL     1     -12.778   9.737  72.659  1.00  0.00    -0.337 F  
HETATM   41  O   UNL     1     -11.603  10.690  70.050  1.00  0.00    -0.271 OA 
HETATM   42  F   UNL     1     -12.987   8.304  71.021  1.00  0.00    -0.247 F  
HETATM   43  F   UNL     1     -11.366   8.082  72.462  1.00  0.00    -0.342 F  
HETATM   44  C   UNL     1     -11.167   9.877  70.868  1.00  0.00    -0.360 C  
ENDBRANCH  34  37
ENDBRANCH  27  28
ENDBRANCH   1  27
BRANCH   5  45
HETATM   45  C   UNL     1     -10.085  16.727  67.108  1.00  0.00    -0.282 C  
HETATM   46  O   UNL     1     -11.153  17.164  67.568  1.00  0.00    -0.178 OA 
BRANCH  45  47
HETATM   47  C   UNL     1      -9.290  17.623  66.154  1.00  0.00    -0.136 C  
BRANCH  47  48
HETATM   48  O   UNL     1      -8.938  18.925  66.588  1.00  0.00    -0.302 OA 
BRANCH  48  49
HETATM   49  C   UNL     1      -8.027  18.947  67.597  1.00  0.00    -0.250 C  
HETATM   50  O   UNL     1      -8.298  19.040  68.784  1.00  0.00    -0.355 OA 
BRANCH  49  51
HETATM   51  C   UNL     1      -6.634  18.797  67.040  1.00  0.00    -0.205 C  
BRANCH  51  52
HETATM   52  C   UNL     1      -5.575  19.214  68.058  1.00  0.00    -0.196 C  
BRANCH  52  53
HETATM   53  C   UNL     1      -6.027  20.406  68.906  1.00  0.00    -0.363 C  
HETATM   54  C   UNL     1      -5.202  20.554  70.170  1.00  0.00    -0.335 C  
ENDBRANCH  52  53
ENDBRANCH  51  52
ENDBRANCH  49  51
ENDBRANCH  48  49
ENDBRANCH  47  48
ENDBRANCH  45  47
ENDBRANCH   5  45
BRANCH  15  55
HETATM   55  O   UNL     1      -8.696   5.895  66.024  1.00  0.00    -0.138 OA 
HETATM   56  C   UNL     1      -7.543   5.132  66.369  1.00  0.00    -0.088 C  
ENDBRANCH  15  55
TORSDOF 11
ENDMDL
MODEL       78
REMARK 921   NORMALIZED FREE ENERGY PREDICTED BY IDOCK:    3.91 KCAL/MOL
REMARK 922        TOTAL FREE ENERGY PREDICTED BY IDOCK:    2.88 KCAL/MOL
REMARK 923 INTER-LIGAND FREE ENERGY PREDICTED BY IDOCK:   -3.71 KCAL/MOL
REMARK 924 INTRA-LIGAND FREE ENERGY PREDICTED BY IDOCK:    6.60 KCAL/MOL
REMARK 927      BINDING AFFINITY PREDICTED BY RF-SCORE:    0.00 PKD
ROOT
HETATM    1  C   UNL     1      -7.010  10.889  67.966  1.00  0.00    -0.072 C  
HETATM    2  O   UNL     1     -10.163  15.389  64.440  1.00  0.00     0.049 OA 
HETATM    3  C   UNL     1      -6.687   9.667  67.059  1.00  0.00    -0.075 C  
HETATM    4  C   UNL     1      -9.537  15.476  65.498  1.00  0.00    -0.221 C  
HETATM    5  C   UNL     1      -7.875   9.336  66.160  1.00  0.00    -0.099 C  
HETATM    6  O   UNL     1      -8.986   9.046  67.027  1.00  0.00    -0.124 OA 
HETATM    7  C   UNL     1      -8.147  10.568  65.241  1.00  0.00    -0.131 C  
HETATM    8  C   UNL     1      -9.629  16.735  66.309  1.00  0.00    -0.313 A  
HETATM    9  C   UNL     1     -10.532  17.743  65.935  1.00  0.00    -0.251 A  
HETATM   10  C   UNL     1      -8.114  11.937  65.924  1.00  0.00     0.543 A  
HETATM   11  C   UNL     1     -10.652  18.910  66.696  1.00  0.00    -0.469 A  
HETATM   12  C   UNL     1      -9.850  19.099  67.819  1.00  0.00    -0.412 A  
HETATM   13  H   UNL     1      -6.192  12.735  69.274  1.00  0.00     0.000 HD 
HETATM   14  H   UNL     1      -9.726   8.839  66.468  1.00  0.00     0.000 HD 
HETATM   15  C   UNL     1      -8.922  18.121  68.190  1.00  0.00    -0.290 A  
HETATM   16  O   UNL     1      -6.634  13.487  68.897  1.00  0.00    -0.094 OA 
HETATM   17  C   UNL     1      -8.755  13.067  65.361  1.00  0.00     1.633 A  
HETATM   18  C   UNL     1      -8.833  16.916  67.446  1.00  0.00    -0.212 A  
HETATM   19  O   UNL     1      -9.431  12.876  64.178  1.00  0.00    -0.431 OA 
HETATM   20  C   UNL     1      -8.746  14.333  66.004  1.00  0.00     0.643 A  
HETATM   21  O   UNL     1      -7.094  15.945  68.738  1.00  0.00    -0.124 OA 
HETATM   22  C   UNL     1      -7.432  12.101  67.144  1.00  0.00    -0.129 A  
HETATM   23  C   UNL     1      -7.344  13.384  67.724  1.00  0.00    -0.157 A  
HETATM   24  C   UNL     1      -7.920  15.817  67.836  1.00  0.00    -0.138 C  
HETATM   25  C   UNL     1      -7.999  14.497  67.166  1.00  0.00    -0.167 A  
HETATM   26  H   UNL     1      -9.862  13.634  63.801  1.00  0.00     0.000 HD 
ENDROOT
BRANCH   1  27
HETATM   27  O   UNL     1      -8.133  10.770  68.856  1.00  0.00    -0.129 OA 
BRANCH  27  28
HETATM   28  C   UNL     1      -9.088  11.816  68.926  1.00  0.00     0.117 C  
HETATM   29  O   UNL     1      -9.987  11.577  70.035  1.00  0.00     0.981 OA 
HETATM   30  C   UNL     1     -11.785  10.268  71.060  1.00  0.00    -0.461 C  
HETATM   31  C   UNL     1     -11.802  10.805  68.615  1.00  0.00    -0.138 C  
HETATM   32  O   UNL     1     -12.487  12.060  68.775  1.00  0.00    -0.085 OA 
HETATM   33  H   UNL     1     -13.069  12.021  69.525  1.00  0.00     0.000 HD 
HETATM   34  C   UNL     1     -10.862  10.867  67.404  1.00  0.00    -0.279 C  
HETATM   35  C   UNL     1     -10.916  10.503  69.826  1.00  0.00    -0.294 C  
HETATM   36  C   UNL     1      -9.843  11.992  67.598  1.00  0.00    -0.191 C  
BRANCH  34  37
HETATM   37  N   UNL     1     -11.610  10.976  66.154  1.00  0.00     0.444 N  
HETATM   38  H   UNL     1     -11.787  10.148  65.587  1.00  0.00     0.000 HD 
HETATM   39  C   UNL     1     -12.779  12.256  64.369  1.00  0.00    -0.288 C  
HETATM   40  F   UNL     1     -14.103  12.548  64.462  1.00  0.00     0.884 F  
HETATM   41  O   UNL     1     -11.932  13.229  66.441  1.00  0.00    -0.384 OA 
HETATM   42  F   UNL     1     -12.228  13.179  63.533  1.00  0.00    -0.506 F  
HETATM   43  F   UNL     1     -12.689  11.057  63.724  1.00  0.00     0.206 F  
HETATM   44  C   UNL     1     -12.083  12.225  65.742  1.00  0.00    -0.213 C  
ENDBRANCH  34  37
ENDBRANCH  27  28
ENDBRANCH   1  27
BRANCH   5  45
HETATM   45  C   UNL     1      -7.915   8.046  65.307  1.00  0.00    -0.124 C  
HETATM   46  O   UNL     1      -8.206   8.134  64.102  1.00  0.00    -0.150 OA 
BRANCH  45  47
HETATM   47  C   UNL     1      -7.913   6.656  65.949  1.00  0.00    -0.112 C  
BRANCH  47  48
HETATM   48  O   UNL     1      -8.490   6.505  67.235  1.00  0.00    -0.112 OA 
BRANCH  48  49
HETATM   49  C   UNL     1      -9.675   5.837  67.236  1.00  0.00    -0.129 C  
HETATM   50  O   UNL     1      -9.848   4.717  66.782  1.00  0.00    -0.183 OA 
BRANCH  49  51
HETATM   51  C   UNL     1     -10.735   6.666  67.915  1.00  0.00    -0.341 C  
BRANCH  51  52
HETATM   52  C   UNL     1     -11.205   6.019  69.216  1.00  0.00    -0.367 C  
BRANCH  52  53
HETATM   53  C   UNL     1     -10.212   6.237  70.360  1.00  0.00    -0.248 C  
HETATM   54  C   UNL     1     -10.881   6.808  71.597  1.00  0.00    -0.259 C  
ENDBRANCH  52  53
ENDBRANCH  51  52
ENDBRANCH  49  51
ENDBRANCH  48  49
ENDBRANCH  47  48
ENDBRANCH  45  47
ENDBRANCH   5  45
BRANCH  15  55
HETATM   55  O   UNL     1      -8.139  18.261  69.309  1.00  0.00    -0.011 OA 
HETATM   56  C   UNL     1      -7.127  19.264  69.279  1.00  0.00    -0.297 C  
ENDBRANCH  15  55
TORSDOF 11
ENDMDL
MODEL       79
REMARK 921   NORMALIZED FREE ENERGY PREDICTED BY IDOCK:    4.18 KCAL/MOL
REMARK 922        TOTAL FREE ENERGY PREDICTED BY IDOCK:    3.32 KCAL/MOL
REMARK 923 INTER-LIGAND FREE ENERGY PREDICTED BY IDOCK:    1.18 KCAL/MOL
REMARK 924 INTRA-LIGAND FREE ENERGY PREDICTED BY IDOCK:    2.14 KCAL/MOL
REMARK 927      BINDING AFFINITY PREDICTED BY RF-SCORE:    0.00 PKD
ROOT
HETATM    1  C   UNL     1      -9.410   8.134  69.990  1.00  0.00    -0.159 C  
HETATM    2  O   UNL     1      -5.473  11.412  65.942  1.00  0.00    -0.243 OA 
HETATM    3  C   UNL     1      -9.378   6.624  69.617  1.00  0.00    -0.143 C  
HETATM    4  C   UNL     1      -5.919  11.700  67.054  1.00  0.00    -0.138 C  
HETATM    5  C   UNL     1      -9.406   6.443  68.103  1.00  0.00    -0.108 C  
HETATM    6  O   UNL     1     -10.620   7.056  67.631  1.00  0.00    -0.212 OA 
HETATM    7  C   UNL     1      -8.131   7.119  67.509  1.00  0.00    -0.113 C  
HETATM    8  C   UNL     1      -5.772  13.102  67.567  1.00  0.00    -0.055 A  
HETATM    9  C   UNL     1      -5.258  14.104  66.727  1.00  0.00     2.093 A  
HETATM   10  C   UNL     1      -7.780   8.499  68.067  1.00  0.00    -0.103 A  
HETATM   11  C   UNL     1      -5.142  15.421  67.180  1.00  0.00     0.511 A  
HETATM   12  C   UNL     1      -5.506  15.749  68.484  1.00  0.00    -0.102 A  
HETATM   13  H   UNL     1      -8.908   9.854  71.595  1.00  0.00     0.000 HD 
HETATM   14  H   UNL     1     -10.638   6.943  66.688  1.00  0.00     0.000 HD 
HETATM   15  C   UNL     1      -5.990  14.760  69.346  1.00  0.00    -0.104 A  
HETATM   16  O   UNL     1      -8.366  10.462  71.106  1.00  0.00     1.367 OA 
HETATM   17  C   UNL     1      -6.959   9.406  67.353  1.00  0.00    -0.085 A  
HETATM   18  C   UNL     1      -6.153  13.433  68.873  1.00  0.00    -0.086 A  
HETATM   19  O   UNL     1      -6.505   8.999  66.120  1.00  0.00    -0.063 OA 
HETATM   20  C   UNL     1      -6.650  10.697  67.858  1.00  0.00    -0.060 A  
HETATM   21  O   UNL     1      -6.964  12.531  70.914  1.00  0.00     1.521 OA 
HETATM   22  C   UNL     1      -8.274   8.899  69.323  1.00  0.00    -0.114 A  
HETATM   23  C   UNL     1      -7.880  10.144  69.860  1.00  0.00    -0.151 A  
HETATM   24  C   UNL     1      -6.728  12.361  69.719  1.00  0.00     0.132 C  
HETATM   25  C   UNL     1      -7.078  11.044  69.136  1.00  0.00    -0.116 A  
HETATM   26  H   UNL     1      -5.955   9.607  65.641  1.00  0.00     0.000 HD 
ENDROOT
BRANCH   1  27
HETATM   27  O   UNL     1     -10.542   8.900  69.541  1.00  0.00    -0.230 OA 
BRANCH  27  28
HETATM   28  C   UNL     1     -11.841   8.334  69.600  1.00  0.00     0.881 C  
HETATM   29  O   UNL     1     -12.769   9.307  70.134  1.00  0.00     0.481 OA 
HETATM   30  C   UNL     1     -13.589  10.642  72.016  1.00  0.00    -0.187 C  
HETATM   31  C   UNL     1     -12.855   8.268  72.329  1.00  0.00    -0.277 C  
HETATM   32  O   UNL     1     -14.146   7.707  72.034  1.00  0.00    -0.512 OA 
HETATM   33  H   UNL     1     -14.832   8.307  72.301  1.00  0.00     0.000 HD 
HETATM   34  C   UNL     1     -11.745   7.299  71.898  1.00  0.00    -0.287 C  
HETATM   35  C   UNL     1     -12.622   9.559  71.539  1.00  0.00    -0.373 C  
HETATM   36  C   UNL     1     -11.859   7.020  70.398  1.00  0.00    -0.295 C  
BRANCH  34  37
HETATM   37  N   UNL     1     -11.752   6.087  72.713  1.00  0.00    -0.512 N  
HETATM   38  H   UNL     1     -12.503   5.923  73.383  1.00  0.00     0.000 HD 
HETATM   39  C   UNL     1     -10.763   3.956  73.534  1.00  0.00    -0.218 C  
HETATM   40  F   UNL     1     -10.995   2.779  72.894  1.00  0.00    -0.237 F  
HETATM   41  O   UNL     1      -9.836   5.306  71.724  1.00  0.00    -0.160 OA 
HETATM   42  F   UNL     1      -9.599   3.810  74.224  1.00  0.00    -0.108 F  
HETATM   43  F   UNL     1     -11.747   4.090  74.470  1.00  0.00     0.577 F  
HETATM   44  C   UNL     1     -10.721   5.155  72.568  1.00  0.00    -0.229 C  
ENDBRANCH  34  37
ENDBRANCH  27  28
ENDBRANCH   1  27
BRANCH   5  45
HETATM   45  C   UNL     1      -9.594   5.051  67.453  1.00  0.00    -0.145 C  
HETATM   46  O   UNL     1     -10.010   4.987  66.284  1.00  0.00    -0.180 OA 
BRANCH  45  47
HETATM   47  C   UNL     1      -9.581   3.766  68.285  1.00  0.00    -0.106 C  
BRANCH  47  48
HETATM   48  O   UNL     1      -8.364   3.049  68.402  1.00  0.00    -0.067 OA 
BRANCH  48  49
HETATM   49  C   UNL     1      -8.186   2.452  69.610  1.00  0.00    -0.044 C  
HETATM   50  O   UNL     1      -8.910   1.587  70.078  1.00  0.00    -0.051 OA 
BRANCH  49  51
HETATM   51  C   UNL     1      -6.940   2.984  70.271  1.00  0.00    -0.034 C  
BRANCH  51  52
HETATM   52  C   UNL     1      -7.045   4.482  70.544  1.00  0.00    -0.041 C  
BRANCH  52  53
HETATM   53  C   UNL     1      -6.993   4.801  72.040  1.00  0.00    -0.060 C  
HETATM   54  C   UNL     1      -5.908   4.017  72.755  1.00  0.00    -0.014 C  
ENDBRANCH  52  53
ENDBRANCH  51  52
ENDBRANCH  49  51
ENDBRANCH  48  49
ENDBRANCH  47  48
ENDBRANCH  45  47
ENDBRANCH   5  45
BRANCH  15  55
HETATM   55  O   UNL     1      -6.387  15.054  70.627  1.00  0.00    -0.074 OA 
HETATM   56  C   UNL     1      -5.416  15.628  71.499  1.00  0.00     0.215 C  
ENDBRANCH  15  55
TORSDOF 11
ENDMDL
MODEL       80
REMARK 921   NORMALIZED FREE ENERGY PREDICTED BY IDOCK:    4.67 KCAL/MOL
REMARK 922        TOTAL FREE ENERGY PREDICTED BY IDOCK:    4.12 KCAL/MOL
REMARK 923 INTER-LIGAND FREE ENERGY PREDICTED BY IDOCK:   -5.69 KCAL/MOL
REMARK 924 INTRA-LIGAND FREE ENERGY PREDICTED BY IDOCK:    9.82 KCAL/MOL
REMARK 927      BINDING AFFINITY PREDICTED BY RF-SCORE:    0.00 PKD
ROOT
HETATM    1  C   UNL     1     -11.024  13.540  68.017  1.00  0.00    -0.251 C  
HETATM    2  O   UNL     1      -8.406   9.024  64.096  1.00  0.00    -0.162 OA 
HETATM    3  C   UNL     1     -11.369  14.804  67.178  1.00  0.00    -0.363 C  
HETATM    4  C   UNL     1      -8.940   8.930  65.203  1.00  0.00    -0.137 C  
HETATM    5  C   UNL     1     -10.252  15.112  66.185  1.00  0.00    -0.295 C  
HETATM    6  O   UNL     1      -9.056  15.326  66.956  1.00  0.00    -0.201 OA 
HETATM    7  C   UNL     1     -10.120  13.899  65.212  1.00  0.00    -0.328 C  
HETATM    8  C   UNL     1      -8.834   7.643  65.967  1.00  0.00    -0.186 A  
HETATM    9  C   UNL     1      -8.015   6.609  65.484  1.00  0.00    -0.118 A  
HETATM   10  C   UNL     1     -10.155  12.512  65.855  1.00  0.00    -0.270 A  
HETATM   11  C   UNL     1      -7.882   5.415  66.198  1.00  0.00    -0.103 A  
HETATM   12  C   UNL     1      -8.588   5.224  67.383  1.00  0.00    -0.104 A  
HETATM   13  H   UNL     1     -11.806  11.691  69.341  1.00  0.00     0.000 HD 
HETATM   14  H   UNL     1      -8.360  15.518  66.339  1.00  0.00     0.000 HD 
HETATM   15  C   UNL     1      -9.434   6.229  67.864  1.00  0.00    -0.115 A  
HETATM   16  O   UNL     1     -11.434  10.933  68.905  1.00  0.00    -0.255 OA 
HETATM   17  C   UNL     1      -9.619  11.374  65.205  1.00  0.00    -0.229 A  
HETATM   18  C   UNL     1      -9.533   7.460  67.165  1.00  0.00    -0.187 A  
HETATM   19  O   UNL     1      -9.043  11.574  63.972  1.00  0.00    -0.415 OA 
HETATM   20  C   UNL     1      -9.630  10.090  65.810  1.00  0.00    -0.291 A  
HETATM   21  O   UNL     1     -11.105   8.463  68.636  1.00  0.00     0.118 OA 
HETATM   22  C   UNL     1     -10.733  12.339  67.127  1.00  0.00    -0.265 A  
HETATM   23  C   UNL     1     -10.827  11.042  67.676  1.00  0.00    -0.256 A  
HETATM   24  C   UNL     1     -10.356   8.585  67.666  1.00  0.00    -0.253 C  
HETATM   25  C   UNL     1     -10.277   9.921  67.030  1.00  0.00    -0.294 A  
HETATM   26  H   UNL     1      -8.683  10.810  63.536  1.00  0.00     0.000 HD 
ENDROOT
BRANCH   1  27
HETATM   27  O   UNL     1      -9.822  13.582  68.806  1.00  0.00    -0.165 OA 
BRANCH  27  28
HETATM   28  C   UNL     1      -9.683  14.559  69.824  1.00  0.00     0.452 C  
HETATM   29  O   UNL     1     -10.791  14.455  70.749  1.00  0.00     0.237 OA 
HETATM   30  C   UNL     1     -13.176  14.719  71.235  1.00  0.00    -0.447 C  
HETATM   31  C   UNL     1     -11.938  16.401  69.854  1.00  0.00     0.357 C  
HETATM   32  O   UNL     1     -11.518  17.191  70.980  1.00  0.00    -0.071 OA 
HETATM   33  H   UNL     1     -12.164  17.141  71.674  1.00  0.00     0.000 HD 
HETATM   34  C   UNL     1     -10.895  16.482  68.731  1.00  0.00    -0.342 C  
HETATM   35  C   UNL     1     -12.045  14.920  70.229  1.00  0.00    -0.325 C  
HETATM   36  C   UNL     1      -9.545  15.976  69.245  1.00  0.00    -0.255 C  
BRANCH  34  37
HETATM   37  N   UNL     1     -10.829  17.826  68.163  1.00  0.00    -0.274 N  
HETATM   38  H   UNL     1     -11.243  18.018  67.251  1.00  0.00     0.000 HD 
HETATM   39  C   UNL     1     -10.093  20.203  68.158  1.00  0.00    -0.359 C  
HETATM   40  F   UNL     1     -10.831  21.170  68.764  1.00  0.00     0.150 F  
HETATM   41  O   UNL     1      -9.739  18.648  70.006  1.00  0.00     0.682 OA 
HETATM   42  F   UNL     1      -8.812  20.660  68.098  1.00  0.00    -0.160 F  
HETATM   43  F   UNL     1     -10.532  20.130  66.867  1.00  0.00    -0.536 F  
HETATM   44  C   UNL     1     -10.194  18.845  68.877  1.00  0.00    -0.205 C  
ENDBRANCH  34  37
ENDBRANCH  27  28
ENDBRANCH   1  27
BRANCH   5  45
HETATM   45  C   UNL     1     -10.229  16.426  65.369  1.00  0.00    -0.189 C  
HETATM   46  O   UNL     1     -11.209  16.707  64.659  1.00  0.00    -0.727 OA 
BRANCH  45  47
HETATM   47  C   UNL     1      -8.939  17.224  65.166  1.00  0.00     2.369 C  
BRANCH  47  48
HETATM   48  O   UNL     1      -8.882  18.553  65.657  1.00  0.00    -0.270 OA 
BRANCH  48  49
HETATM   49  C   UNL     1      -7.780  18.820  66.407  1.00  0.00    -0.269 C  
HETATM   50  O   UNL     1      -7.597  18.427  67.549  1.00  0.00    -0.220 OA 
BRANCH  49  51
HETATM   51  C   UNL     1      -6.798  19.640  65.611  1.00  0.00    -0.313 C  
BRANCH  51  52
HETATM   52  C   UNL     1      -5.404  19.016  65.625  1.00  0.00    -0.189 C  
BRANCH  52  53
HETATM   53  C   UNL     1      -5.451  17.495  65.456  1.00  0.00     0.219 C  
HETATM   54  C   UNL     1      -5.498  16.772  66.789  1.00  0.00    -0.094 C  
ENDBRANCH  52  53
ENDBRANCH  51  52
ENDBRANCH  49  51
ENDBRANCH  48  49
ENDBRANCH  47  48
ENDBRANCH  45  47
ENDBRANCH   5  45
BRANCH  15  55
HETATM   55  O   UNL     1     -10.121   6.087  69.044  1.00  0.00    -0.154 OA 
HETATM   56  C   UNL     1     -11.529   5.884  68.964  1.00  0.00     0.364 C  
ENDBRANCH  15  55
TORSDOF 11
ENDMDL
MODEL       81
REMARK 921   NORMALIZED FREE ENERGY PREDICTED BY IDOCK:    4.86 KCAL/MOL
REMARK 922        TOTAL FREE ENERGY PREDICTED BY IDOCK:    4.43 KCAL/MOL
REMARK 923 INTER-LIGAND FREE ENERGY PREDICTED BY IDOCK:    3.60 KCAL/MOL
REMARK 924 INTRA-LIGAND FREE ENERGY PREDICTED BY IDOCK:    0.83 KCAL/MOL
REMARK 927      BINDING AFFINITY PREDICTED BY RF-SCORE:    0.00 PKD
ROOT
HETATM    1  C   UNL     1      -8.191  12.541  70.060  1.00  0.00     3.043 C  
HETATM    2  O   UNL     1      -5.334  16.517  65.741  1.00  0.00     0.768 OA 
HETATM    3  C   UNL     1      -7.361  11.231  70.170  1.00  0.00     0.850 C  
HETATM    4  C   UNL     1      -6.138  16.744  66.647  1.00  0.00    -0.069 C  
HETATM    5  C   UNL     1      -6.901  10.767  68.791  1.00  0.00    -0.067 C  
HETATM    6  O   UNL     1      -8.088  10.551  68.007  1.00  0.00    -0.108 OA 
HETATM    7  C   UNL     1      -5.985  11.876  68.187  1.00  0.00    -0.051 C  
HETATM    8  C   UNL     1      -6.804  18.085  66.725  1.00  0.00    -0.228 A  
HETATM    9  C   UNL     1      -6.617  19.020  65.693  1.00  0.00    -0.304 A  
HETATM   10  C   UNL     1      -6.480  13.315  68.339  1.00  0.00    -0.091 A  
HETATM   11  C   UNL     1      -7.254  20.264  65.736  1.00  0.00    -0.261 A  
HETATM   12  C   UNL     1      -8.057  20.603  66.822  1.00  0.00    -0.161 A  
HETATM   13  H   UNL     1      -8.993  14.547  71.118  1.00  0.00     0.000 HD 
HETATM   14  H   UNL     1      -7.802  10.262  67.148  1.00  0.00     0.000 HD 
HETATM   15  C   UNL     1      -8.230  19.699  67.875  1.00  0.00    -0.309 A  
HETATM   16  O   UNL     1      -8.691  15.239  70.540  1.00  0.00     0.726 OA 
HETATM   17  C   UNL     1      -6.022  14.355  67.494  1.00  0.00     0.107 A  
HETATM   18  C   UNL     1      -7.624  18.419  67.810  1.00  0.00    -0.238 A  
HETATM   19  O   UNL     1      -5.125  14.010  66.510  1.00  0.00     1.367 OA 
HETATM   20  C   UNL     1      -6.498  15.688  67.619  1.00  0.00    -0.191 A  
HETATM   21  O   UNL     1      -8.424  17.649  69.909  1.00  0.00     1.111 OA 
HETATM   22  C   UNL     1      -7.414  13.638  69.342  1.00  0.00     0.292 A  
HETATM   23  C   UNL     1      -7.804  14.982  69.521  1.00  0.00    -0.149 A  
HETATM   24  C   UNL     1      -7.831  17.396  68.861  1.00  0.00    -0.196 C  
HETATM   25  C   UNL     1      -7.358  16.005  68.666  1.00  0.00    -0.159 A  
HETATM   26  H   UNL     1      -4.818  14.708  65.943  1.00  0.00     0.000 HD 
ENDROOT
BRANCH   1  27
HETATM   27  O   UNL     1      -9.386  12.499  69.261  1.00  0.00     0.526 OA 
BRANCH  27  28
HETATM   28  C   UNL     1      -9.812  13.662  68.570  1.00  0.00    -0.196 C  
HETATM   29  O   UNL     1     -10.919  14.267  69.278  1.00  0.00    -0.252 OA 
HETATM   30  C   UNL     1     -13.257  14.205  70.005  1.00  0.00     0.563 C  
HETATM   31  C   UNL     1     -12.587  13.442  67.716  1.00  0.00     0.626 C  
HETATM   32  O   UNL     1     -12.702  14.745  67.119  1.00  0.00    -0.197 OA 
HETATM   33  H   UNL     1     -13.377  15.249  67.560  1.00  0.00     0.000 HD 
HETATM   34  C   UNL     1     -11.498  12.628  67.004  1.00  0.00    -0.346 C  
HETATM   35  C   UNL     1     -12.154  13.542  69.181  1.00  0.00    -0.288 C  
HETATM   36  C   UNL     1     -10.159  13.363  67.102  1.00  0.00    -0.240 C  
BRANCH  34  37
HETATM   37  N   UNL     1     -11.882  12.311  65.631  1.00  0.00    -0.402 N  
HETATM   38  H   UNL     1     -12.696  11.725  65.449  1.00  0.00     0.000 HD 
HETATM   39  C   UNL     1     -11.552  12.352  63.166  1.00  0.00    -0.212 C  
HETATM   40  F   UNL     1     -12.038  13.369  62.406  1.00  0.00     0.211 F  
HETATM   41  O   UNL     1     -10.173  13.574  64.767  1.00  0.00    -0.379 OA 
HETATM   42  F   UNL     1     -10.520  11.797  62.471  1.00  0.00    -0.066 F  
HETATM   43  F   UNL     1     -12.531  11.402  63.217  1.00  0.00    -0.535 F  
HETATM   44  C   UNL     1     -11.126  12.816  64.570  1.00  0.00    -0.330 C  
ENDBRANCH  34  37
ENDBRANCH  27  28
ENDBRANCH   1  27
BRANCH   5  45
HETATM   45  C   UNL     1      -6.239   9.385  68.576  1.00  0.00    -0.048 C  
HETATM   46  O   UNL     1      -6.226   8.574  69.518  1.00  0.00    -0.036 OA 
BRANCH  45  47
HETATM   47  C   UNL     1      -5.342   9.102  67.369  1.00  0.00    -0.037 C  
BRANCH  47  48
HETATM   48  O   UNL     1      -5.944   8.998  66.090  1.00  0.00    -0.053 OA 
BRANCH  48  49
HETATM   49  C   UNL     1      -6.971   8.109  66.031  1.00  0.00    -0.058 C  
HETATM   50  O   UNL     1      -8.130   8.356  66.330  1.00  0.00    -0.100 OA 
BRANCH  49  51
HETATM   51  C   UNL     1      -6.481   6.785  65.504  1.00  0.00    -0.050 C  
BRANCH  51  52
HETATM   52  C   UNL     1      -7.389   6.250  64.399  1.00  0.00    -0.074 C  
BRANCH  52  53
HETATM   53  C   UNL     1      -6.717   5.139  63.588  1.00  0.00    -0.041 C  
HETATM   54  C   UNL     1      -5.206   5.169  63.719  1.00  0.00    -0.010 C  
ENDBRANCH  52  53
ENDBRANCH  51  52
ENDBRANCH  49  51
ENDBRANCH  48  49
ENDBRANCH  47  48
ENDBRANCH  45  47
ENDBRANCH   5  45
BRANCH  15  55
HETATM   55  O   UNL     1      -9.040  19.989  68.945  1.00  0.00    -0.102 OA 
HETATM   56  C   UNL     1     -10.370  20.416  68.664  1.00  0.00     0.040 C  
ENDBRANCH  15  55
TORSDOF 11
ENDMDL
MODEL       82
REMARK 921   NORMALIZED FREE ENERGY PREDICTED BY IDOCK:    4.95 KCAL/MOL
REMARK 922        TOTAL FREE ENERGY PREDICTED BY IDOCK:    4.58 KCAL/MOL
REMARK 923 INTER-LIGAND FREE ENERGY PREDICTED BY IDOCK:   -1.22 KCAL/MOL
REMARK 924 INTRA-LIGAND FREE ENERGY PREDICTED BY IDOCK:    5.80 KCAL/MOL
REMARK 927      BINDING AFFINITY PREDICTED BY RF-SCORE:    0.00 PKD
ROOT
HETATM    1  C   UNL     1     -10.886  12.023  65.323  1.00  0.00    -0.294 C  
HETATM    2  O   UNL     1      -5.136   9.121  66.395  1.00  0.00    -0.035 OA 
HETATM    3  C   UNL     1     -10.676  13.563  65.275  1.00  0.00    -0.328 C  
HETATM    4  C   UNL     1      -6.191   8.689  65.925  1.00  0.00    -0.056 C  
HETATM    5  C   UNL     1      -9.712  14.009  66.370  1.00  0.00    -0.296 C  
HETATM    6  O   UNL     1     -10.294  13.615  67.625  1.00  0.00    -0.235 OA 
HETATM    7  C   UNL     1      -8.335  13.321  66.113  1.00  0.00     1.054 C  
HETATM    8  C   UNL     1      -6.362   7.211  65.732  1.00  0.00    -0.044 A  
HETATM    9  C   UNL     1      -5.385   6.325  66.215  1.00  0.00    -0.013 A  
HETATM   10  C   UNL     1      -8.382  11.836  65.751  1.00  0.00     0.378 A  
HETATM   11  C   UNL     1      -5.543   4.944  66.069  1.00  0.00    -0.017 A  
HETATM   12  C   UNL     1      -6.659   4.431  65.413  1.00  0.00    -0.044 A  
HETATM   13  H   UNL     1     -11.493  10.006  64.161  1.00  0.00     0.000 HD 
HETATM   14  H   UNL     1      -9.694  13.893  68.307  1.00  0.00     0.000 HD 
HETATM   15  C   UNL     1      -7.628   5.298  64.896  1.00  0.00    -0.083 A  
HETATM   16  O   UNL     1     -10.740   9.441  64.290  1.00  0.00     2.918 OA 
HETATM   17  C   UNL     1      -7.259  10.990  65.923  1.00  0.00     0.037 A  
HETATM   18  C   UNL     1      -7.492   6.698  65.086  1.00  0.00    -0.087 A  
HETATM   19  O   UNL     1      -6.125  11.558  66.453  1.00  0.00    -0.280 OA 
HETATM   20  C   UNL     1      -7.308   9.606  65.608  1.00  0.00    -0.101 A  
HETATM   21  O   UNL     1      -9.477   7.306  63.933  1.00  0.00     2.206 OA 
HETATM   22  C   UNL     1      -9.562  11.274  65.228  1.00  0.00    -0.265 A  
HETATM   23  C   UNL     1      -9.569   9.921  64.826  1.00  0.00    -0.271 A  
HETATM   24  C   UNL     1      -8.522   7.657  64.624  1.00  0.00     0.091 C  
HETATM   25  C   UNL     1      -8.455   9.085  65.017  1.00  0.00    -0.191 A  
HETATM   26  H   UNL     1      -5.372  10.990  66.569  1.00  0.00     0.000 HD 
ENDROOT
BRANCH   1  27
HETATM   27  O   UNL     1     -11.416  11.468  66.539  1.00  0.00    -0.404 OA 
BRANCH  27  28
HETATM   28  C   UNL     1     -10.983  11.976  67.791  1.00  0.00    -0.232 C  
HETATM   29  O   UNL     1      -9.649  11.494  68.074  1.00  0.00    -0.169 OA 
HETATM   30  C   UNL     1      -8.137   9.651  68.637  1.00  0.00    -0.100 C  
HETATM   31  C   UNL     1     -10.409   9.831  69.675  1.00  0.00    -0.238 C  
HETATM   32  O   UNL     1      -9.973  10.656  70.769  1.00  0.00     0.377 OA 
HETATM   33  H   UNL     1      -9.074  10.451  70.996  1.00  0.00     0.000 HD 
HETATM   34  C   UNL     1     -11.862  10.163  69.308  1.00  0.00     0.078 C  
HETATM   35  C   UNL     1      -9.580  10.102  68.416  1.00  0.00    -0.143 C  
HETATM   36  C   UNL     1     -11.971  11.638  68.919  1.00  0.00    -0.355 C  
BRANCH  34  37
HETATM   37  N   UNL     1     -12.781   9.777  70.375  1.00  0.00    -0.520 N  
HETATM   38  H   UNL     1     -13.554  10.389  70.633  1.00  0.00     0.000 HD 
HETATM   39  C   UNL     1     -13.553   8.286  72.211  1.00  0.00    -0.208 C  
HETATM   40  F   UNL     1     -14.385   7.239  71.967  1.00  0.00    -0.445 F  
HETATM   41  O   UNL     1     -11.699   7.781  70.706  1.00  0.00    -0.284 OA 
HETATM   42  F   UNL     1     -12.890   8.004  73.367  1.00  0.00     0.437 F  
HETATM   43  F   UNL     1     -14.350   9.361  72.483  1.00  0.00    -0.429 F  
HETATM   44  C   UNL     1     -12.593   8.563  71.041  1.00  0.00    -0.045 C  
ENDBRANCH  34  37
ENDBRANCH  27  28
ENDBRANCH   1  27
BRANCH   5  45
HETATM   45  C   UNL     1      -9.482  15.505  66.691  1.00  0.00    -0.259 C  
HETATM   46  O   UNL     1     -10.432  16.296  66.572  1.00  0.00    -0.301 OA 
BRANCH  45  47
HETATM   47  C   UNL     1      -8.075  16.087  66.849  1.00  0.00    -0.247 C  
BRANCH  47  48
HETATM   48  O   UNL     1      -7.840  17.014  67.896  1.00  0.00    -0.177 OA 
BRANCH  48  49
HETATM   49  C   UNL     1      -7.641  18.291  67.472  1.00  0.00    -0.215 C  
HETATM   50  O   UNL     1      -7.800  18.682  66.326  1.00  0.00    -0.269 OA 
BRANCH  49  51
HETATM   51  C   UNL     1      -7.235  19.163  68.632  1.00  0.00    -0.356 C  
BRANCH  51  52
HETATM   52  C   UNL     1      -5.725  19.129  68.858  1.00  0.00    -0.223 C  
BRANCH  52  53
HETATM   53  C   UNL     1      -5.315  19.877  70.129  1.00  0.00    -0.264 C  
HETATM   54  C   UNL     1      -6.509  20.225  70.999  1.00  0.00     0.023 C  
ENDBRANCH  52  53
ENDBRANCH  51  52
ENDBRANCH  49  51
ENDBRANCH  48  49
ENDBRANCH  47  48
ENDBRANCH  45  47
ENDBRANCH   5  45
BRANCH  15  55
HETATM   55  O   UNL     1      -8.756   4.826  64.272  1.00  0.00    -0.141 OA 
HETATM   56  C   UNL     1      -9.420   3.716  64.871  1.00  0.00    -0.161 C  
ENDBRANCH  15  55
TORSDOF 11
ENDMDL
MODEL       83
REMARK 921   NORMALIZED FREE ENERGY PREDICTED BY IDOCK:    5.39 KCAL/MOL
REMARK 922        TOTAL FREE ENERGY PREDICTED BY IDOCK:    5.31 KCAL/MOL
REMARK 923 INTER-LIGAND FREE ENERGY PREDICTED BY IDOCK:    4.17 KCAL/MOL
REMARK 924 INTRA-LIGAND FREE ENERGY PREDICTED BY IDOCK:    1.13 KCAL/MOL
REMARK 927      BINDING AFFINITY PREDICTED BY RF-SCORE:    0.00 PKD
ROOT
HETATM    1  C   UNL     1      -8.117  12.476  70.239  1.00  0.00     4.026 C  
HETATM    2  O   UNL     1      -5.352  16.370  65.786  1.00  0.00     1.088 OA 
HETATM    3  C   UNL     1      -7.289  11.164  70.350  1.00  0.00     1.294 C  
HETATM    4  C   UNL     1      -6.133  16.614  66.708  1.00  0.00    -0.071 C  
HETATM    5  C   UNL     1      -6.865  10.676  68.967  1.00  0.00    -0.071 C  
HETATM    6  O   UNL     1      -8.072  10.453  68.216  1.00  0.00    -0.107 OA 
HETATM    7  C   UNL     1      -5.960  11.771  68.322  1.00  0.00    -0.049 C  
HETATM    8  C   UNL     1      -6.792  17.959  66.781  1.00  0.00    -0.220 A  
HETATM    9  C   UNL     1      -6.627  18.876  65.730  1.00  0.00    -0.287 A  
HETATM   10  C   UNL     1      -6.446  13.215  68.464  1.00  0.00    -0.085 A  
HETATM   11  C   UNL     1      -7.258  20.123  65.768  1.00  0.00    -0.302 A  
HETATM   12  C   UNL     1      -8.033  20.484  66.867  1.00  0.00    -0.295 A  
HETATM   13  H   UNL     1      -8.885  14.502  71.283  1.00  0.00     0.000 HD 
HETATM   14  H   UNL     1      -7.809  10.148  67.355  1.00  0.00     0.000 HD 
HETATM   15  C   UNL     1      -8.183  19.598  67.939  1.00  0.00    -0.309 A  
HETATM   16  O   UNL     1      -8.595  15.183  70.687  1.00  0.00     0.984 OA 
HETATM   17  C   UNL     1      -6.005  14.239  67.591  1.00  0.00    -0.025 A  
HETATM   18  C   UNL     1      -7.583  18.314  67.880  1.00  0.00    -0.246 A  
HETATM   19  O   UNL     1      -5.134  13.875  66.591  1.00  0.00     0.914 OA 
HETATM   20  C   UNL     1      -6.473  15.575  67.706  1.00  0.00    -0.186 A  
HETATM   21  O   UNL     1      -8.334  17.582  70.010  1.00  0.00     1.427 OA 
HETATM   22  C   UNL     1      -7.354  13.557  69.484  1.00  0.00     0.361 A  
HETATM   23  C   UNL     1      -7.734  14.906  69.651  1.00  0.00    -0.072 A  
HETATM   24  C   UNL     1      -7.768  17.309  68.952  1.00  0.00    -0.221 C  
HETATM   25  C   UNL     1      -7.305  15.913  68.768  1.00  0.00    -0.159 A  
HETATM   26  H   UNL     1      -4.839  14.562  66.005  1.00  0.00     0.000 HD 
ENDROOT
BRANCH   1  27
HETATM   27  O   UNL     1      -9.331  12.425  69.470  1.00  0.00     0.983 OA 
BRANCH  27  28
HETATM   28  C   UNL     1      -9.767  13.578  68.768  1.00  0.00    -0.009 C  
HETATM   29  O   UNL     1     -10.912  14.151  69.444  1.00  0.00    -0.239 OA 
HETATM   30  C   UNL     1     -13.268  14.023  70.100  1.00  0.00     0.447 C  
HETATM   31  C   UNL     1     -12.509  13.284  67.831  1.00  0.00     0.379 C  
HETATM   32  O   UNL     1     -12.642  14.585  67.233  1.00  0.00    -0.508 OA 
HETATM   33  H   UNL     1     -13.343  15.069  67.654  1.00  0.00     0.000 HD 
HETATM   34  C   UNL     1     -11.377  12.502  67.151  1.00  0.00    -0.324 C  
HETATM   35  C   UNL     1     -12.123  13.393  69.308  1.00  0.00    -0.264 C  
HETATM   36  C   UNL     1     -10.063  13.273  67.290  1.00  0.00    -0.234 C  
BRANCH  34  37
HETATM   37  N   UNL     1     -11.711  12.177  65.767  1.00  0.00    -0.375 N  
HETATM   38  H   UNL     1     -12.448  11.504  65.562  1.00  0.00     0.000 HD 
HETATM   39  C   UNL     1     -11.371  12.322  63.306  1.00  0.00    -0.336 C  
HETATM   40  F   UNL     1     -11.970  13.294  62.568  1.00  0.00    -0.044 F  
HETATM   41  O   UNL     1     -10.159  13.657  64.952  1.00  0.00    -0.343 OA 
HETATM   42  F   UNL     1     -10.276  11.913  62.609  1.00  0.00    -0.256 F  
HETATM   43  F   UNL     1     -12.230  11.261  63.324  1.00  0.00    -0.423 F  
HETATM   44  C   UNL     1     -11.013  12.796  64.727  1.00  0.00    -0.305 C  
ENDBRANCH  34  37
ENDBRANCH  27  28
ENDBRANCH   1  27
BRANCH   5  45
HETATM   45  C   UNL     1      -6.213   9.288  68.759  1.00  0.00    -0.044 C  
HETATM   46  O   UNL     1      -5.165   9.213  68.096  1.00  0.00    -0.034 OA 
BRANCH  45  47
HETATM   47  C   UNL     1      -6.964   7.991  69.071  1.00  0.00    -0.058 C  
BRANCH  47  48
HETATM   48  O   UNL     1      -6.209   6.822  69.340  1.00  0.00    -0.028 OA 
BRANCH  48  49
HETATM   49  C   UNL     1      -6.415   6.302  70.580  1.00  0.00    -0.044 C  
HETATM   50  O   UNL     1      -5.533   5.930  71.339  1.00  0.00    -0.019 OA 
BRANCH  49  51
HETATM   51  C   UNL     1      -7.888   6.291  70.898  1.00  0.00    -0.107 C  
BRANCH  51  52
HETATM   52  C   UNL     1      -8.565   5.027  70.375  1.00  0.00    -0.120 C  
BRANCH  52  53
HETATM   53  C   UNL     1     -10.062   5.233  70.131  1.00  0.00    -0.333 C  
HETATM   54  C   UNL     1     -10.377   6.641  69.660  1.00  0.00    -0.226 C  
ENDBRANCH  52  53
ENDBRANCH  51  52
ENDBRANCH  49  51
ENDBRANCH  48  49
ENDBRANCH  47  48
ENDBRANCH  45  47
ENDBRANCH   5  45
BRANCH  15  55
HETATM   55  O   UNL     1      -8.965  19.908  69.024  1.00  0.00    -0.155 OA 
HETATM   56  C   UNL     1     -10.377  19.795  68.868  1.00  0.00    -0.199 C  
ENDBRANCH  15  55
TORSDOF 11
ENDMDL
MODEL       84
REMARK 921   NORMALIZED FREE ENERGY PREDICTED BY IDOCK:    5.54 KCAL/MOL
REMARK 922        TOTAL FREE ENERGY PREDICTED BY IDOCK:    5.55 KCAL/MOL
REMARK 923 INTER-LIGAND FREE ENERGY PREDICTED BY IDOCK:   -6.83 KCAL/MOL
REMARK 924 INTRA-LIGAND FREE ENERGY PREDICTED BY IDOCK:   12.37 KCAL/MOL
REMARK 927      BINDING AFFINITY PREDICTED BY RF-SCORE:    0.00 PKD
ROOT
HETATM    1  C   UNL     1      -8.371  11.637  66.569  1.00  0.00    -0.122 C  
HETATM    2  O   UNL     1     -13.295  11.304  70.843  1.00  0.00     0.032 OA 
HETATM    3  C   UNL     1      -8.442  10.409  65.616  1.00  0.00    -0.169 C  
HETATM    4  C   UNL     1     -12.599  12.252  70.477  1.00  0.00    -0.092 C  
HETATM    5  C   UNL     1      -8.782   9.142  66.395  1.00  0.00    -0.130 C  
HETATM    6  O   UNL     1      -7.744   8.964  67.376  1.00  0.00    -0.095 OA 
HETATM    7  C   UNL     1     -10.186   9.335  67.048  1.00  0.00    -0.331 C  
HETATM    8  C   UNL     1     -12.662  13.549  71.228  1.00  0.00    -0.432 A  
HETATM    9  C   UNL     1     -13.402  13.631  72.420  1.00  0.00    -0.641 A  
HETATM   10  C   UNL     1     -10.437  10.687  67.718  1.00  0.00    -0.258 A  
HETATM   11  C   UNL     1     -13.448  14.824  73.148  1.00  0.00    -0.350 A  
HETATM   12  C   UNL     1     -12.786  15.956  72.681  1.00  0.00    -0.554 A  
HETATM   13  H   UNL     1      -8.521  14.022  66.843  1.00  0.00     0.000 HD 
HETATM   14  H   UNL     1      -7.955   8.175  67.861  1.00  0.00     0.000 HD 
HETATM   15  C   UNL     1     -12.070  15.904  71.480  1.00  0.00    -0.470 A  
HETATM   16  O   UNL     1      -9.188  14.126  67.512  1.00  0.00    -0.180 OA 
HETATM   17  C   UNL     1     -11.439  10.857  68.704  1.00  0.00    -0.311 A  
HETATM   18  C   UNL     1     -11.983  14.682  70.765  1.00  0.00    -0.380 A  
HETATM   19  O   UNL     1     -12.168   9.743  69.050  1.00  0.00    -0.011 OA 
HETATM   20  C   UNL     1     -11.658  12.105  69.344  1.00  0.00    -0.381 A  
HETATM   21  O   UNL     1     -10.663  15.523  68.979  1.00  0.00    -0.223 OA 
HETATM   22  C   UNL     1      -9.663  11.807  67.359  1.00  0.00    -0.186 A  
HETATM   23  C   UNL     1      -9.954  13.064  67.930  1.00  0.00    -0.230 A  
HETATM   24  C   UNL     1     -11.181  14.550  69.527  1.00  0.00    -0.264 C  
HETATM   25  C   UNL     1     -10.940  13.219  68.920  1.00  0.00    -0.278 A  
HETATM   26  H   UNL     1     -12.840   9.857  69.712  1.00  0.00     0.000 HD 
ENDROOT
BRANCH   1  27
HETATM   27  O   UNL     1      -7.412  11.585  67.639  1.00  0.00    -0.098 OA 
BRANCH  27  28
HETATM   28  C   UNL     1      -6.286  12.448  67.616  1.00  0.00    -0.131 C  
HETATM   29  O   UNL     1      -5.566  12.337  68.867  1.00  0.00    -0.051 OA 
HETATM   30  C   UNL     1      -5.442  12.726  71.281  1.00  0.00    -0.091 C  
HETATM   31  C   UNL     1      -6.422  14.437  69.738  1.00  0.00    -0.150 C  
HETATM   32  O   UNL     1      -5.166  15.084  69.467  1.00  0.00    -0.089 OA 
HETATM   33  H   UNL     1      -4.593  15.014  70.222  1.00  0.00     0.000 HD 
HETATM   34  C   UNL     1      -7.348  14.549  68.520  1.00  0.00    -0.120 C  
HETATM   35  C   UNL     1      -6.228  12.939  69.989  1.00  0.00    -0.058 C  
HETATM   36  C   UNL     1      -6.683  13.900  67.305  1.00  0.00     0.214 C  
BRANCH  34  37
HETATM   37  N   UNL     1      -7.753  15.933  68.286  1.00  0.00    -0.134 N  
HETATM   38  H   UNL     1      -8.563  16.320  68.769  1.00  0.00     0.000 HD 
HETATM   39  C   UNL     1      -7.579  18.135  67.141  1.00  0.00    -0.211 C  
HETATM   40  F   UNL     1      -6.757  19.111  67.610  1.00  0.00    -0.205 F  
HETATM   41  O   UNL     1      -6.006  16.292  66.843  1.00  0.00    -0.326 OA 
HETATM   42  F   UNL     1      -7.772  18.383  65.816  1.00  0.00    -0.261 F  
HETATM   43  F   UNL     1      -8.789  18.323  67.744  1.00  0.00    -0.251 F  
HETATM   44  C   UNL     1      -7.023  16.722  67.393  1.00  0.00    -0.153 C  
ENDBRANCH  34  37
ENDBRANCH  27  28
ENDBRANCH   1  27
BRANCH   5  45
HETATM   45  C   UNL     1      -8.712   7.742  65.741  1.00  0.00    -0.133 C  
HETATM   46  O   UNL     1      -8.383   7.654  64.546  1.00  0.00    -0.092 OA 
BRANCH  45  47
HETATM   47  C   UNL     1      -9.322   6.508  66.412  1.00  0.00    -0.143 C  
BRANCH  47  48
HETATM   48  O   UNL     1      -9.058   6.287  67.788  1.00  0.00    -0.117 OA 
BRANCH  48  49
HETATM   49  C   UNL     1      -9.339   7.353  68.584  1.00  0.00    -0.139 C  
HETATM   50  O   UNL     1      -9.191   8.523  68.268  1.00  0.00    -0.138 OA 
BRANCH  49  51
HETATM   51  C   UNL     1      -9.897   6.881  69.902  1.00  0.00    -0.172 C  
BRANCH  51  52
HETATM   52  C   UNL     1      -9.364   7.711  71.067  1.00  0.00    -0.156 C  
BRANCH  52  53
HETATM   53  C   UNL     1     -10.445   8.000  72.112  1.00  0.00    -0.329 C  
HETATM   54  C   UNL     1     -11.344   9.151  71.701  1.00  0.00    -0.446 C  
ENDBRANCH  52  53
ENDBRANCH  51  52
ENDBRANCH  49  51
ENDBRANCH  48  49
ENDBRANCH  47  48
ENDBRANCH  45  47
ENDBRANCH   5  45
BRANCH  15  55
HETATM   55  O   UNL     1     -11.380  16.992  71.007  1.00  0.00     0.215 OA 
HETATM   56  C   UNL     1     -10.835  17.892  71.969  1.00  0.00     2.995 C  
ENDBRANCH  15  55
TORSDOF 11
ENDMDL
MODEL       85
REMARK 921   NORMALIZED FREE ENERGY PREDICTED BY IDOCK:    5.64 KCAL/MOL
REMARK 922        TOTAL FREE ENERGY PREDICTED BY IDOCK:    5.72 KCAL/MOL
REMARK 923 INTER-LIGAND FREE ENERGY PREDICTED BY IDOCK:   -1.29 KCAL/MOL
REMARK 924 INTRA-LIGAND FREE ENERGY PREDICTED BY IDOCK:    7.01 KCAL/MOL
REMARK 927      BINDING AFFINITY PREDICTED BY RF-SCORE:    0.00 PKD
ROOT
HETATM    1  C   UNL     1      -7.544  12.026  67.989  1.00  0.00    -0.120 C  
HETATM    2  O   UNL     1     -10.600  16.540  64.394  1.00  0.00    -0.420 OA 
HETATM    3  C   UNL     1      -7.386  10.728  67.146  1.00  0.00    -0.101 C  
HETATM    4  C   UNL     1      -9.891  16.642  65.397  1.00  0.00     0.197 C  
HETATM    5  C   UNL     1      -8.659  10.440  66.357  1.00  0.00    -0.132 C  
HETATM    6  O   UNL     1      -9.721  10.295  67.318  1.00  0.00    -0.159 OA 
HETATM    7  C   UNL     1      -8.904  11.630  65.378  1.00  0.00     0.171 C  
HETATM    8  C   UNL     1      -9.825  17.951  66.125  1.00  0.00    -0.256 A  
HETATM    9  C   UNL     1     -10.674  19.004  65.747  1.00  0.00    -0.350 A  
HETATM   10  C   UNL     1      -8.715  13.031  65.962  1.00  0.00     0.599 A  
HETATM   11  C   UNL     1     -10.646  20.222  66.434  1.00  0.00    -0.230 A  
HETATM   12  C   UNL     1      -9.751  20.415  67.483  1.00  0.00    -0.571 A  
HETATM   13  H   UNL     1      -6.492  13.877  69.107  1.00  0.00     0.000 HD 
HETATM   14  H   UNL     1     -10.514  10.115  66.827  1.00  0.00     0.000 HD 
HETATM   15  C   UNL     1      -8.874  19.390  67.854  1.00  0.00    -0.316 A  
HETATM   16  O   UNL     1      -6.902  14.638  68.712  1.00  0.00    -0.086 OA 
HETATM   17  C   UNL     1      -9.309  14.173  65.370  1.00  0.00     0.476 A  
HETATM   18  C   UNL     1      -8.935  18.138  67.189  1.00  0.00    -0.256 A  
HETATM   19  O   UNL     1     -10.084  13.964  64.253  1.00  0.00    -0.727 OA 
HETATM   20  C   UNL     1      -9.154  15.471  65.923  1.00  0.00    -0.231 A  
HETATM   21  O   UNL     1      -7.182  17.111  68.419  1.00  0.00    -0.191 OA 
HETATM   22  C   UNL     1      -7.933  13.215  67.118  1.00  0.00    -0.083 A  
HETATM   23  C   UNL     1      -7.704  14.520  67.602  1.00  0.00    -0.179 A  
HETATM   24  C   UNL     1      -8.082  16.994  67.587  1.00  0.00    -0.180 C  
HETATM   25  C   UNL     1      -8.311  15.646  67.017  1.00  0.00    -0.261 A  
HETATM   26  H   UNL     1     -10.482  14.730  63.856  1.00  0.00     0.000 HD 
ENDROOT
BRANCH   1  27
HETATM   27  O   UNL     1      -8.603  12.055  68.961  1.00  0.00     0.120 OA 
BRANCH  27  28
HETATM   28  C   UNL     1      -9.749  11.240  68.777  1.00  0.00    -0.174 C  
HETATM   29  O   UNL     1     -10.840  11.751  69.579  1.00  0.00    -0.137 OA 
HETATM   30  C   UNL     1     -11.846  12.153  71.775  1.00  0.00     1.902 C  
HETATM   31  C   UNL     1     -10.614  10.031  71.281  1.00  0.00     0.361 C  
HETATM   32  O   UNL     1     -11.767   9.342  70.766  1.00  0.00    -0.276 OA 
HETATM   33  H   UNL     1     -12.554   9.654  71.198  1.00  0.00     0.000 HD 
HETATM   34  C   UNL     1      -9.343   9.528  70.584  1.00  0.00    -0.199 C  
HETATM   35  C   UNL     1     -10.692  11.532  70.990  1.00  0.00     3.317 C  
HETATM   36  C   UNL     1      -9.455   9.761  69.076  1.00  0.00    -0.173 C  
BRANCH  34  37
HETATM   37  N   UNL     1      -9.059   8.138  70.933  1.00  0.00    -0.147 N  
HETATM   38  H   UNL     1      -9.522   7.379  70.435  1.00  0.00     0.000 HD 
HETATM   39  C   UNL     1      -7.984   6.370  72.315  1.00  0.00    -0.103 C  
HETATM   40  F   UNL     1      -6.747   5.894  72.013  1.00  0.00    -0.055 F  
HETATM   41  O   UNL     1      -7.534   8.759  72.531  1.00  0.00    -0.335 OA 
HETATM   42  F   UNL     1      -8.187   6.134  73.640  1.00  0.00    -0.113 F  
HETATM   43  F   UNL     1      -8.877   5.582  71.647  1.00  0.00    -0.130 F  
HETATM   44  C   UNL     1      -8.148   7.857  71.955  1.00  0.00    -0.114 C  
ENDBRANCH  34  37
ENDBRANCH  27  28
ENDBRANCH   1  27
BRANCH   5  45
HETATM   45  C   UNL     1      -8.862   9.106  65.599  1.00  0.00    -0.185 C  
HETATM   46  O   UNL     1      -8.453   9.015  64.429  1.00  0.00    -0.173 OA 
BRANCH  45  47
HETATM   47  C   UNL     1      -9.806   8.019  66.120  1.00  0.00     0.013 C  
BRANCH  47  48
HETATM   48  O   UNL     1      -9.241   6.856  66.700  1.00  0.00    -0.147 OA 
BRANCH  48  49
HETATM   49  C   UNL     1      -7.895   6.925  66.883  1.00  0.00    -0.107 C  
HETATM   50  O   UNL     1      -7.316   7.804  67.503  1.00  0.00    -0.088 OA 
BRANCH  49  51
HETATM   51  C   UNL     1      -7.225   5.736  66.245  1.00  0.00    -0.077 C  
BRANCH  51  52
HETATM   52  C   UNL     1      -7.442   4.464  67.060  1.00  0.00    -0.081 C  
BRANCH  52  53
HETATM   53  C   UNL     1      -7.700   4.763  68.539  1.00  0.00    -0.077 C  
HETATM   54  C   UNL     1      -7.715   3.503  69.383  1.00  0.00    -0.051 C  
ENDBRANCH  52  53
ENDBRANCH  51  52
ENDBRANCH  49  51
ENDBRANCH  48  49
ENDBRANCH  47  48
ENDBRANCH  45  47
ENDBRANCH   5  45
BRANCH  15  55
HETATM   55  O   UNL     1      -8.001  19.535  68.903  1.00  0.00    -0.353 OA 
HETATM   56  C   UNL     1      -6.631  19.769  68.588  1.00  0.00    -0.297 C  
ENDBRANCH  15  55
TORSDOF 11
ENDMDL
MODEL       86
REMARK 921   NORMALIZED FREE ENERGY PREDICTED BY IDOCK:    6.95 KCAL/MOL
REMARK 922        TOTAL FREE ENERGY PREDICTED BY IDOCK:    7.87 KCAL/MOL
REMARK 923 INTER-LIGAND FREE ENERGY PREDICTED BY IDOCK:   -3.49 KCAL/MOL
REMARK 924 INTRA-LIGAND FREE ENERGY PREDICTED BY IDOCK:   11.36 KCAL/MOL
REMARK 927      BINDING AFFINITY PREDICTED BY RF-SCORE:    0.00 PKD
ROOT
HETATM    1  C   UNL     1     -10.601  12.039  65.378  1.00  0.00    -0.278 C  
HETATM    2  O   UNL     1      -5.130   9.937  68.253  1.00  0.00    -0.037 OA 
HETATM    3  C   UNL     1     -10.475  13.564  65.099  1.00  0.00    -0.375 C  
HETATM    4  C   UNL     1      -6.011   9.331  67.641  1.00  0.00    -0.053 C  
HETATM    5  C   UNL     1      -9.833  14.277  66.286  1.00  0.00    -0.307 C  
HETATM    6  O   UNL     1     -10.680  14.037  67.424  1.00  0.00    -0.278 OA 
HETATM    7  C   UNL     1      -8.398  13.696  66.483  1.00  0.00     0.434 C  
HETATM    8  C   UNL     1      -6.046   7.832  67.687  1.00  0.00    -0.049 A  
HETATM    9  C   UNL     1      -5.167   7.139  68.534  1.00  0.00    -0.017 A  
HETATM   10  C   UNL     1      -8.271  12.174  66.396  1.00  0.00     0.157 A  
HETATM   11  C   UNL     1      -5.205   5.743  68.611  1.00  0.00     0.000 A  
HETATM   12  C   UNL     1      -6.097   5.022  67.821  1.00  0.00    -0.027 A  
HETATM   13  H   UNL     1     -10.790   9.809  64.495  1.00  0.00     0.000 HD 
HETATM   14  H   UNL     1     -10.282  14.481  68.163  1.00  0.00     0.000 HD 
HETATM   15  C   UNL     1      -6.958   5.692  66.946  1.00  0.00    -0.065 A  
HETATM   16  O   UNL     1     -10.060   9.350  64.895  1.00  0.00     0.204 OA 
HETATM   17  C   UNL     1      -7.177  11.483  66.973  1.00  0.00    -0.146 A  
HETATM   18  C   UNL     1      -6.953   7.110  66.903  1.00  0.00    -0.077 A  
HETATM   19  O   UNL     1      -6.241  12.240  67.637  1.00  0.00    -0.088 OA 
HETATM   20  C   UNL     1      -7.069  10.068  66.914  1.00  0.00    -0.090 A  
HETATM   21  O   UNL     1      -8.629   7.321  65.233  1.00  0.00    -0.097 OA 
HETATM   22  C   UNL     1      -9.254  11.420  65.727  1.00  0.00    -0.223 A  
HETATM   23  C   UNL     1      -9.085  10.026  65.589  1.00  0.00    -0.183 A  
HETATM   24  C   UNL     1      -7.893   7.875  66.050  1.00  0.00    -0.095 C  
HETATM   25  C   UNL     1      -8.005   9.347  66.180  1.00  0.00    -0.110 A  
HETATM   26  H   UNL     1      -5.508  11.777  68.024  1.00  0.00     0.000 HD 
ENDROOT
BRANCH   1  27
HETATM   27  O   UNL     1     -11.379  11.641  66.520  1.00  0.00    -0.328 OA 
BRANCH  27  28
HETATM   28  C   UNL     1     -11.887  12.627  67.403  1.00  0.00    -0.328 C  
HETATM   29  O   UNL     1     -10.787  13.334  68.023  1.00  0.00    -0.232 OA 
HETATM   30  C   UNL     1      -8.885  13.358  69.566  1.00  0.00     1.360 C  
HETATM   31  C   UNL     1     -11.009  12.163  70.141  1.00  0.00     0.810 C  
HETATM   32  O   UNL     1     -11.635  13.315  70.734  1.00  0.00    -0.433 OA 
HETATM   33  H   UNL     1     -10.978  13.879  71.125  1.00  0.00     0.000 HD 
HETATM   34  C   UNL     1     -12.070  11.252  69.510  1.00  0.00    -0.317 C  
HETATM   35  C   UNL     1     -10.069  12.572  69.004  1.00  0.00     0.175 C  
HETATM   36  C   UNL     1     -12.847  12.026  68.443  1.00  0.00     2.301 C  
BRANCH  34  37
HETATM   37  N   UNL     1     -12.929  10.651  70.527  1.00  0.00    -0.352 N  
HETATM   38  H   UNL     1     -13.747  11.153  70.869  1.00  0.00     0.000 HD 
HETATM   39  C   UNL     1     -13.528   8.873  72.161  1.00  0.00    -0.448 C  
HETATM   40  F   UNL     1     -14.269   7.796  71.791  1.00  0.00    -0.412 F  
HETATM   41  O   UNL     1     -11.669   8.735  70.585  1.00  0.00    -0.260 OA 
HETATM   42  F   UNL     1     -12.818   8.506  73.264  1.00  0.00    -0.121 F  
HETATM   43  F   UNL     1     -14.411   9.828  72.577  1.00  0.00    -0.259 F  
HETATM   44  C   UNL     1     -12.620   9.384  71.028  1.00  0.00    -0.220 C  
ENDBRANCH  34  37
ENDBRANCH  27  28
ENDBRANCH   1  27
BRANCH   5  45
HETATM   45  C   UNL     1      -9.774  15.820  66.373  1.00  0.00    -0.282 C  
HETATM   46  O   UNL     1      -9.702  16.477  65.320  1.00  0.00    -0.440 OA 
BRANCH  45  47
HETATM   47  C   UNL     1      -9.495  16.542  67.693  1.00  0.00    -0.225 C  
BRANCH  47  48
HETATM   48  O   UNL     1      -8.474  17.525  67.723  1.00  0.00    -0.219 OA 
BRANCH  48  49
HETATM   49  C   UNL     1      -7.359  17.146  68.403  1.00  0.00    -0.220 C  
HETATM   50  O   UNL     1      -7.356  16.588  69.489  1.00  0.00    -0.190 OA 
BRANCH  49  51
HETATM   51  C   UNL     1      -6.127  17.479  67.602  1.00  0.00    -0.165 C  
BRANCH  51  52
HETATM   52  C   UNL     1      -6.480  18.193  66.299  1.00  0.00    -0.255 C  
BRANCH  52  53
HETATM   53  C   UNL     1      -5.775  19.546  66.173  1.00  0.00    -0.173 C  
HETATM   54  C   UNL     1      -5.970  20.167  64.802  1.00  0.00    -0.289 C  
ENDBRANCH  52  53
ENDBRANCH  51  52
ENDBRANCH  49  51
ENDBRANCH  48  49
ENDBRANCH  47  48
ENDBRANCH  45  47
ENDBRANCH   5  45
BRANCH  15  55
HETATM   55  O   UNL     1      -7.871   5.015  66.176  1.00  0.00    -0.097 OA 
HETATM   56  C   UNL     1      -7.524   3.698  65.755  1.00  0.00    -0.077 C  
ENDBRANCH  15  55
TORSDOF 11
ENDMDL
MODEL       87
REMARK 921   NORMALIZED FREE ENERGY PREDICTED BY IDOCK:    7.57 KCAL/MOL
REMARK 922        TOTAL FREE ENERGY PREDICTED BY IDOCK:    8.89 KCAL/MOL
REMARK 923 INTER-LIGAND FREE ENERGY PREDICTED BY IDOCK:   -1.07 KCAL/MOL
REMARK 924 INTRA-LIGAND FREE ENERGY PREDICTED BY IDOCK:    9.96 KCAL/MOL
REMARK 927      BINDING AFFINITY PREDICTED BY RF-SCORE:    0.00 PKD
ROOT
HETATM    1  C   UNL     1      -7.340  12.606  67.936  1.00  0.00    -0.116 C  
HETATM    2  O   UNL     1     -10.656  16.947  64.361  1.00  0.00    -0.262 OA 
HETATM    3  C   UNL     1      -7.164  11.298  67.113  1.00  0.00    -0.126 C  
HETATM    4  C   UNL     1      -9.919  17.091  65.338  1.00  0.00     0.240 C  
HETATM    5  C   UNL     1      -8.452  10.953  66.371  1.00  0.00    -0.163 C  
HETATM    6  O   UNL     1      -9.478  10.792  67.367  1.00  0.00    -0.154 OA 
HETATM    7  C   UNL     1      -8.767  12.116  65.379  1.00  0.00     0.691 C  
HETATM    8  C   UNL     1      -9.875  18.416  66.040  1.00  0.00    -0.163 A  
HETATM    9  C   UNL     1     -10.770  19.433  65.670  1.00  0.00    -0.377 A  
HETATM   10  C   UNL     1      -8.607  13.533  65.930  1.00  0.00     1.196 A  
HETATM   11  C   UNL     1     -10.761  20.664  66.334  1.00  0.00     0.692 A  
HETATM   12  C   UNL     1      -9.840  20.907  67.349  1.00  0.00    -0.309 A  
HETATM   13  H   UNL     1      -6.315  14.512  68.987  1.00  0.00     0.000 HD 
HETATM   14  H   UNL     1     -10.279  10.576  66.905  1.00  0.00     0.000 HD 
HETATM   15  C   UNL     1      -8.919  19.918  67.711  1.00  0.00    -0.323 A  
HETATM   16  O   UNL     1      -6.763  15.250  68.592  1.00  0.00    -0.097 OA 
HETATM   17  C   UNL     1      -9.256  14.643  65.337  1.00  0.00     0.669 A  
HETATM   18  C   UNL     1      -8.958  18.652  67.071  1.00  0.00    -0.289 A  
HETATM   19  O   UNL     1     -10.059  14.387  64.250  1.00  0.00    -0.532 OA 
HETATM   20  C   UNL     1      -9.128  15.956  65.861  1.00  0.00    -0.304 A  
HETATM   21  O   UNL     1      -7.135  17.707  68.263  1.00  0.00    -0.207 OA 
HETATM   22  C   UNL     1      -7.795  13.764  67.057  1.00  0.00     0.105 A  
HETATM   23  C   UNL     1      -7.595  15.086  67.510  1.00  0.00    -0.192 A  
HETATM   24  C   UNL     1      -8.055  17.545  67.463  1.00  0.00    -0.205 C  
HETATM   25  C   UNL     1      -8.258  16.179  66.924  1.00  0.00    -0.273 A  
HETATM   26  H   UNL     1     -10.495  15.132  63.851  1.00  0.00     0.000 HD 
ENDROOT
BRANCH   1  27
HETATM   27  O   UNL     1      -8.368  12.618  68.942  1.00  0.00     0.078 OA 
BRANCH  27  28
HETATM   28  C   UNL     1      -9.392  11.638  68.912  1.00  0.00     0.047 C  
HETATM   29  O   UNL     1     -10.196  11.815  67.721  1.00  0.00    -0.185 OA 
HETATM   30  C   UNL     1     -11.820  13.123  66.437  1.00  0.00    -0.455 C  
HETATM   31  C   UNL     1     -12.037  12.857  68.917  1.00  0.00    -0.142 C  
HETATM   32  O   UNL     1     -12.802  11.642  68.838  1.00  0.00     0.320 OA 
HETATM   33  H   UNL     1     -13.330  11.638  68.048  1.00  0.00     0.000 HD 
HETATM   34  C   UNL     1     -11.186  12.865  70.193  1.00  0.00     0.441 C  
HETATM   35  C   UNL     1     -11.053  12.966  67.749  1.00  0.00    -0.259 C  
HETATM   36  C   UNL     1     -10.244  11.659  70.192  1.00  0.00     1.705 C  
BRANCH  34  37
HETATM   37  N   UNL     1     -12.021  12.943  71.389  1.00  0.00     0.064 N  
HETATM   38  H   UNL     1     -12.370  12.092  71.828  1.00  0.00     0.000 HD 
HETATM   39  C   UNL     1     -13.296  14.180  73.131  1.00  0.00    -0.049 C  
HETATM   40  F   UNL     1     -12.699  14.598  74.279  1.00  0.00    -0.471 F  
HETATM   41  O   UNL     1     -11.875  15.232  71.447  1.00  0.00    -0.308 OA 
HETATM   42  F   UNL     1     -14.380  14.980  72.934  1.00  0.00    -0.384 F  
HETATM   43  F   UNL     1     -13.785  12.931  73.380  1.00  0.00     0.735 F  
HETATM   44  C   UNL     1     -12.336  14.194  71.928  1.00  0.00    -0.193 C  
ENDBRANCH  34  37
ENDBRANCH  27  28
ENDBRANCH   1  27
BRANCH   5  45
HETATM   45  C   UNL     1      -8.634   9.599  65.643  1.00  0.00    -0.136 C  
HETATM   46  O   UNL     1      -8.018   9.402  64.582  1.00  0.00    -0.113 OA 
BRANCH  45  47
HETATM   47  C   UNL     1      -9.761   8.632  66.013  1.00  0.00    -0.168 C  
BRANCH  47  48
HETATM   48  O   UNL     1      -9.423   7.412  66.651  1.00  0.00    -0.173 OA 
BRANCH  48  49
HETATM   49  C   UNL     1      -8.942   7.562  67.914  1.00  0.00    -0.131 C  
HETATM   50  O   UNL     1      -9.516   8.149  68.818  1.00  0.00    -0.147 OA 
BRANCH  49  51
HETATM   51  C   UNL     1      -7.614   6.862  68.048  1.00  0.00    -0.108 C  
BRANCH  51  52
HETATM   52  C   UNL     1      -7.219   6.154  66.754  1.00  0.00    -0.074 C  
BRANCH  52  53
HETATM   53  C   UNL     1      -6.759   4.715  67.000  1.00  0.00    -0.051 C  
HETATM   54  C   UNL     1      -6.726   3.898  65.722  1.00  0.00    -0.045 C  
ENDBRANCH  52  53
ENDBRANCH  51  52
ENDBRANCH  49  51
ENDBRANCH  48  49
ENDBRANCH  47  48
ENDBRANCH  45  47
ENDBRANCH   5  45
BRANCH  15  55
HETATM   55  O   UNL     1      -8.018  20.112  68.728  1.00  0.00    -0.071 OA 
HETATM   56  C   UNL     1      -6.647  20.258  68.371  1.00  0.00    -0.300 C  
ENDBRANCH  15  55
TORSDOF 11
ENDMDL
MODEL       88
REMARK 921   NORMALIZED FREE ENERGY PREDICTED BY IDOCK:    8.29 KCAL/MOL
REMARK 922        TOTAL FREE ENERGY PREDICTED BY IDOCK:   10.07 KCAL/MOL
REMARK 923 INTER-LIGAND FREE ENERGY PREDICTED BY IDOCK:   -1.75 KCAL/MOL
REMARK 924 INTRA-LIGAND FREE ENERGY PREDICTED BY IDOCK:   11.82 KCAL/MOL
REMARK 927      BINDING AFFINITY PREDICTED BY RF-SCORE:    0.00 PKD
ROOT
HETATM    1  C   UNL     1     -10.216  12.540  65.142  1.00  0.00    -0.279 C  
HETATM    2  O   UNL     1      -5.266   8.697  66.974  1.00  0.00    -0.035 OA 
HETATM    3  C   UNL     1      -9.837  14.023  65.419  1.00  0.00    -0.216 C  
HETATM    4  C   UNL     1      -6.209   8.499  66.206  1.00  0.00    -0.053 C  
HETATM    5  C   UNL     1      -9.136  14.157  66.768  1.00  0.00    -0.247 C  
HETATM    6  O   UNL     1     -10.054  13.673  67.765  1.00  0.00    -0.233 OA 
HETATM    7  C   UNL     1      -7.821  13.318  66.717  1.00  0.00     0.387 C  
HETATM    8  C   UNL     1      -6.484   7.107  65.719  1.00  0.00    -0.047 A  
HETATM    9  C   UNL     1      -5.761   6.025  66.248  1.00  0.00    -0.016 A  
HETATM   10  C   UNL     1      -7.935  11.925  66.095  1.00  0.00     0.347 A  
HETATM   11  C   UNL     1      -6.025   4.719  65.826  1.00  0.00    -0.023 A  
HETATM   12  C   UNL     1      -6.988   4.478  64.851  1.00  0.00    -0.061 A  
HETATM   13  H   UNL     1     -10.724  10.827  63.532  1.00  0.00     0.000 HD 
HETATM   14  H   UNL     1      -9.619  13.757  68.604  1.00  0.00     0.000 HD 
HETATM   15  C   UNL     1      -7.697   5.545  64.288  1.00  0.00    -0.092 A  
HETATM   16  O   UNL     1     -10.093  10.144  63.728  1.00  0.00    -0.078 OA 
HETATM   17  C   UNL     1      -6.989  10.907  66.367  1.00  0.00    -0.134 A  
HETATM   18  C   UNL     1      -7.464   6.866  64.749  1.00  0.00    -0.096 A  
HETATM   19  O   UNL     1      -5.971  11.218  67.237  1.00  0.00    -0.055 OA 
HETATM   20  C   UNL     1      -7.106   9.606  65.809  1.00  0.00    -0.099 A  
HETATM   21  O   UNL     1      -9.018   7.922  63.297  1.00  0.00     0.587 OA 
HETATM   22  C   UNL     1      -8.999  11.627  65.223  1.00  0.00     0.129 A  
HETATM   23  C   UNL     1      -9.050  10.363  64.596  1.00  0.00    -0.222 A  
HETATM   24  C   UNL     1      -8.236   8.024  64.241  1.00  0.00    -0.067 C  
HETATM   25  C   UNL     1      -8.116   9.353  64.886  1.00  0.00    -0.128 A  
HETATM   26  H   UNL     1      -5.336  10.535  67.420  1.00  0.00     0.000 HD 
ENDROOT
BRANCH   1  27
HETATM   27  O   UNL     1     -11.091  11.897  66.085  1.00  0.00    -0.303 OA 
BRANCH  27  28
HETATM   28  C   UNL     1     -10.621  10.792  66.840  1.00  0.00    -0.258 C  
HETATM   29  O   UNL     1     -11.663  10.340  67.736  1.00  0.00    -0.247 OA 
HETATM   30  C   UNL     1     -13.067  10.708  69.709  1.00  0.00     0.499 C  
HETATM   31  C   UNL     1     -10.649  11.359  69.696  1.00  0.00     0.120 C  
HETATM   32  O   UNL     1     -10.180  10.075  70.145  1.00  0.00    -0.262 OA 
HETATM   33  H   UNL     1     -10.831   9.666  70.704  1.00  0.00     0.000 HD 
HETATM   34  C   UNL     1      -9.600  12.019  68.792  1.00  0.00     0.016 C  
HETATM   35  C   UNL     1     -11.914  11.216  68.845  1.00  0.00    -0.298 C  
HETATM   36  C   UNL     1      -9.318  11.120  67.587  1.00  0.00    -0.169 C  
BRANCH  34  37
HETATM   37  N   UNL     1      -8.397  12.371  69.543  1.00  0.00     0.522 N  
HETATM   38  H   UNL     1      -8.188  13.346  69.750  1.00  0.00     0.000 HD 
HETATM   39  C   UNL     1      -6.249  11.831  70.677  1.00  0.00     0.308 C  
HETATM   40  F   UNL     1      -6.213  11.483  71.990  1.00  0.00     1.111 F  
HETATM   41  O   UNL     1      -7.799  10.169  69.787  1.00  0.00    -0.154 OA 
HETATM   42  F   UNL     1      -5.129  11.316  70.099  1.00  0.00    -0.053 F  
HETATM   43  F   UNL     1      -6.111  13.189  70.631  1.00  0.00    -0.173 F  
HETATM   44  C   UNL     1      -7.535  11.359  69.976  1.00  0.00     0.899 C  
ENDBRANCH  34  37
ENDBRANCH  27  28
ENDBRANCH   1  27
BRANCH   5  45
HETATM   45  C   UNL     1      -8.835  15.539  67.394  1.00  0.00    -0.190 C  
HETATM   46  O   UNL     1      -7.985  15.615  68.297  1.00  0.00    -0.126 OA 
BRANCH  45  47
HETATM   47  C   UNL     1      -9.750  16.744  67.162  1.00  0.00    -0.251 C  
BRANCH  47  48
HETATM   48  O   UNL     1      -9.926  17.672  68.219  1.00  0.00    -0.300 OA 
BRANCH  48  49
HETATM   49  C   UNL     1      -9.860  18.974  67.832  1.00  0.00    -0.337 C  
HETATM   50  O   UNL     1     -10.547  19.481  66.959  1.00  0.00    -0.441 OA 
BRANCH  49  51
HETATM   51  C   UNL     1      -8.842  19.711  68.664  1.00  0.00    -0.323 C  
BRANCH  51  52
HETATM   52  C   UNL     1      -8.106  20.768  67.845  1.00  0.00     0.044 C  
BRANCH  52  53
HETATM   53  C   UNL     1      -7.086  20.148  66.886  1.00  0.00    -0.275 C  
HETATM   54  C   UNL     1      -5.717  20.003  67.523  1.00  0.00    -0.197 C  
ENDBRANCH  52  53
ENDBRANCH  51  52
ENDBRANCH  49  51
ENDBRANCH  48  49
ENDBRANCH  47  48
ENDBRANCH  45  47
ENDBRANCH   5  45
BRANCH  15  55
HETATM   55  O   UNL     1      -8.676   5.340  63.347  1.00  0.00    -0.096 OA 
HETATM   56  C   UNL     1      -8.436   4.343  62.358  1.00  0.00    -0.089 C  
ENDBRANCH  15  55
TORSDOF 11
ENDMDL
MODEL       89
REMARK 921   NORMALIZED FREE ENERGY PREDICTED BY IDOCK:    8.44 KCAL/MOL
REMARK 922        TOTAL FREE ENERGY PREDICTED BY IDOCK:   10.31 KCAL/MOL
REMARK 923 INTER-LIGAND FREE ENERGY PREDICTED BY IDOCK:    9.88 KCAL/MOL
REMARK 924 INTRA-LIGAND FREE ENERGY PREDICTED BY IDOCK:    0.43 KCAL/MOL
REMARK 927      BINDING AFFINITY PREDICTED BY RF-SCORE:    0.00 PKD
ROOT
HETATM    1  C   UNL     1      -8.119  11.677  69.768  1.00  0.00     1.274 C  
HETATM    2  O   UNL     1      -5.153  15.943  65.815  1.00  0.00     2.336 OA 
HETATM    3  C   UNL     1      -7.521  10.261  69.528  1.00  0.00    -0.142 C  
HETATM    4  C   UNL     1      -5.792  16.107  66.856  1.00  0.00     0.242 C  
HETATM    5  C   UNL     1      -7.316  10.009  68.037  1.00  0.00    -0.087 C  
HETATM    6  O   UNL     1      -8.607  10.127  67.413  1.00  0.00    -0.122 OA 
HETATM    7  C   UNL     1      -6.300  11.066  67.502  1.00  0.00    -0.062 C  
HETATM    8  C   UNL     1      -6.203  17.492  67.260  1.00  0.00    -0.166 A  
HETATM    9  C   UNL     1      -5.981  18.570  66.387  1.00  0.00    -0.188 A  
HETATM   10  C   UNL     1      -6.517  12.506  67.970  1.00  0.00    -0.087 A  
HETATM   11  C   UNL     1      -6.384  19.862  66.736  1.00  0.00    -0.199 A  
HETATM   12  C   UNL     1      -6.981  20.101  67.971  1.00  0.00    -0.325 A  
HETATM   13  H   UNL     1      -8.431  13.538  71.260  1.00  0.00     0.000 HD 
HETATM   14  H   UNL     1      -8.480   9.970  66.485  1.00  0.00     0.000 HD 
HETATM   15  C   UNL     1      -7.181  19.047  68.868  1.00  0.00    -0.329 A  
HETATM   16  O   UNL     1      -8.085  14.275  70.771  1.00  0.00     1.993 OA 
HETATM   17  C   UNL     1      -5.991  13.610  67.256  1.00  0.00     0.408 A  
HETATM   18  C   UNL     1      -6.817  17.728  68.496  1.00  0.00    -0.233 A  
HETATM   19  O   UNL     1      -5.291  13.332  66.105  1.00  0.00     1.812 OA 
HETATM   20  C   UNL     1      -6.211  14.949  67.676  1.00  0.00    -0.123 A  
HETATM   21  O   UNL     1      -7.482  16.695  70.528  1.00  0.00     1.781 OA 
HETATM   22  C   UNL     1      -7.256  12.764  69.141  1.00  0.00     0.087 A  
HETATM   23  C   UNL     1      -7.384  14.091  69.603  1.00  0.00     0.243 A  
HETATM   24  C   UNL     1      -7.071  16.563  69.376  1.00  0.00    -0.176 C  
HETATM   25  C   UNL     1      -6.872  15.182  68.878  1.00  0.00    -0.120 A  
HETATM   26  H   UNL     1      -4.937  14.073  65.626  1.00  0.00     0.000 HD 
ENDROOT
BRANCH   1  27
HETATM   27  O   UNL     1      -9.390  11.966  69.160  1.00  0.00     0.175 OA 
BRANCH  27  28
HETATM   28  C   UNL     1      -9.728  13.306  68.843  1.00  0.00     0.149 C  
HETATM   29  O   UNL     1     -10.577  13.850  69.881  1.00  0.00     0.228 OA 
HETATM   30  C   UNL     1     -12.728  13.898  71.050  1.00  0.00    -0.428 C  
HETATM   31  C   UNL     1     -12.607  13.643  68.562  1.00  0.00     0.626 C  
HETATM   32  O   UNL     1     -12.604  15.057  68.299  1.00  0.00    -0.321 OA 
HETATM   33  H   UNL     1     -13.097  15.516  68.970  1.00  0.00     0.000 HD 
HETATM   34  C   UNL     1     -11.812  12.902  67.479  1.00  0.00    -0.351 C  
HETATM   35  C   UNL     1     -11.914  13.328  69.890  1.00  0.00    -0.330 C  
HETATM   36  C   UNL     1     -10.373  13.421  67.451  1.00  0.00    -0.240 C  
BRANCH  34  37
HETATM   37  N   UNL     1     -12.478  12.981  66.182  1.00  0.00    -0.256 N  
HETATM   38  H   UNL     1     -13.182  13.698  66.009  1.00  0.00     0.000 HD 
HETATM   39  C   UNL     1     -12.965  12.167  63.881  1.00  0.00    -0.205 C  
HETATM   40  F   UNL     1     -12.213  12.562  62.820  1.00  0.00    -0.331 F  
HETATM   41  O   UNL     1     -11.256  11.227  65.349  1.00  0.00    -0.143 OA 
HETATM   42  F   UNL     1     -13.539  10.980  63.541  1.00  0.00     0.578 F  
HETATM   43  F   UNL     1     -13.986  13.066  63.992  1.00  0.00     1.720 F  
HETATM   44  C   UNL     1     -12.145  12.065  65.180  1.00  0.00    -0.094 C  
ENDBRANCH  34  37
ENDBRANCH  27  28
ENDBRANCH   1  27
BRANCH   5  45
HETATM   45  C   UNL     1      -6.932   8.613  67.494  1.00  0.00    -0.078 C  
HETATM   46  O   UNL     1      -5.859   8.482  66.881  1.00  0.00    -0.047 OA 
BRANCH  45  47
HETATM   47  C   UNL     1      -7.950   7.472  67.415  1.00  0.00    -0.116 C  
BRANCH  47  48
HETATM   48  O   UNL     1      -7.525   6.162  67.751  1.00  0.00    -0.085 OA 
BRANCH  48  49
HETATM   49  C   UNL     1      -8.509   5.226  67.689  1.00  0.00    -0.105 C  
HETATM   50  O   UNL     1      -9.612   5.400  67.193  1.00  0.00    -0.125 OA 
BRANCH  49  51
HETATM   51  C   UNL     1      -8.028   3.929  68.286  1.00  0.00    -0.076 C  
BRANCH  51  52
HETATM   52  C   UNL     1      -7.193   4.164  69.542  1.00  0.00    -0.050 C  
BRANCH  52  53
HETATM   53  C   UNL     1      -5.891   3.360  69.528  1.00  0.00    -0.022 C  
HETATM   54  C   UNL     1      -5.944   2.168  70.466  1.00  0.00    -0.018 C  
ENDBRANCH  52  53
ENDBRANCH  51  52
ENDBRANCH  49  51
ENDBRANCH  48  49
ENDBRANCH  47  48
ENDBRANCH  45  47
ENDBRANCH   5  45
BRANCH  15  55
HETATM   55  O   UNL     1      -7.795  19.242  70.080  1.00  0.00     0.631 OA 
HETATM   56  C   UNL     1      -7.484  20.439  70.788  1.00  0.00     1.382 C  
ENDBRANCH  15  55
TORSDOF 11
ENDMDL
MODEL       90
REMARK 921   NORMALIZED FREE ENERGY PREDICTED BY IDOCK:    8.46 KCAL/MOL
REMARK 922        TOTAL FREE ENERGY PREDICTED BY IDOCK:   10.35 KCAL/MOL
REMARK 923 INTER-LIGAND FREE ENERGY PREDICTED BY IDOCK:    6.17 KCAL/MOL
REMARK 924 INTRA-LIGAND FREE ENERGY PREDICTED BY IDOCK:    4.18 KCAL/MOL
REMARK 927      BINDING AFFINITY PREDICTED BY RF-SCORE:    0.00 PKD
ROOT
HETATM    1  C   UNL     1      -8.903   8.164  70.766  1.00  0.00    -0.141 C  
HETATM    2  O   UNL     1      -5.278  11.251  66.299  1.00  0.00    -0.119 OA 
HETATM    3  C   UNL     1      -8.779   6.629  70.547  1.00  0.00    -0.144 C  
HETATM    4  C   UNL     1      -5.719  11.624  67.387  1.00  0.00    -0.088 C  
HETATM    5  C   UNL     1      -8.827   6.291  69.060  1.00  0.00    -0.124 C  
HETATM    6  O   UNL     1     -10.088   6.774  68.563  1.00  0.00    -0.151 OA 
HETATM    7  C   UNL     1      -7.612   6.982  68.366  1.00  0.00    -0.111 C  
HETATM    8  C   UNL     1      -5.655  13.078  67.751  1.00  0.00    -0.126 A  
HETATM    9  C   UNL     1      -5.226  14.018  66.801  1.00  0.00     2.053 A  
HETATM   10  C   UNL     1      -7.342   8.432  68.771  1.00  0.00    -0.087 A  
HETATM   11  C   UNL     1      -5.188  15.380  67.114  1.00  0.00     0.515 A  
HETATM   12  C   UNL     1      -5.545  15.817  68.387  1.00  0.00    -0.111 A  
HETATM   13  H   UNL     1      -8.482  10.068  72.173  1.00  0.00     0.000 HD 
HETATM   14  H   UNL     1     -10.118   6.563  67.637  1.00  0.00     0.000 HD 
HETATM   15  C   UNL     1      -5.944  14.893  69.359  1.00  0.00    -0.105 A  
HETATM   16  O   UNL     1      -7.992  10.656  71.610  1.00  0.00     3.509 OA 
HETATM   17  C   UNL     1      -6.598   9.311  67.946  1.00  0.00    -0.063 A  
HETATM   18  C   UNL     1      -6.029  13.516  69.027  1.00  0.00    -0.082 A  
HETATM   19  O   UNL     1      -6.144   8.808  66.749  1.00  0.00    -0.055 OA 
HETATM   20  C   UNL     1      -6.365  10.664  68.310  1.00  0.00    -0.054 A  
HETATM   21  O   UNL     1      -6.735  12.779  71.171  1.00  0.00     1.197 OA 
HETATM   22  C   UNL     1      -7.834   8.927  69.993  1.00  0.00    -0.095 A  
HETATM   23  C   UNL     1      -7.513  10.243  70.390  1.00  0.00     0.180 A  
HETATM   24  C   UNL     1      -6.514  12.503  69.993  1.00  0.00     0.097 C  
HETATM   25  C   UNL     1      -6.788  11.113  69.556  1.00  0.00    -0.127 A  
HETATM   26  H   UNL     1      -5.645   9.398  66.196  1.00  0.00     0.000 HD 
ENDROOT
BRANCH   1  27
HETATM   27  O   UNL     1     -10.092   8.805  70.273  1.00  0.00    -0.181 OA 
BRANCH  27  28
HETATM   28  C   UNL     1     -11.315   8.086  70.236  1.00  0.00    -0.141 C  
HETATM   29  O   UNL     1     -12.372   8.902  70.794  1.00  0.00    -0.162 OA 
HETATM   30  C   UNL     1     -13.413   9.990  72.725  1.00  0.00     0.420 C  
HETATM   31  C   UNL     1     -12.409   7.704  72.908  1.00  0.00     0.352 C  
HETATM   32  O   UNL     1     -13.611   7.016  72.520  1.00  0.00    -0.262 OA 
HETATM   33  H   UNL     1     -14.374   7.510  72.796  1.00  0.00     0.000 HD 
HETATM   34  C   UNL     1     -11.176   6.907  72.462  1.00  0.00    -0.267 C  
HETATM   35  C   UNL     1     -12.307   9.067  72.218  1.00  0.00    -0.332 C  
HETATM   36  C   UNL     1     -11.201   6.726  70.943  1.00  0.00    -0.338 C  
BRANCH  34  37
HETATM   37  N   UNL     1     -11.064   5.647  73.192  1.00  0.00    -0.364 N  
HETATM   38  H   UNL     1     -10.759   5.642  74.164  1.00  0.00     0.000 HD 
HETATM   39  C   UNL     1     -11.143   3.166  73.366  1.00  0.00    -0.179 C  
HETATM   40  F   UNL     1     -12.299   2.516  73.663  1.00  0.00    -0.239 F  
HETATM   41  O   UNL     1     -11.807   4.436  71.390  1.00  0.00     2.493 OA 
HETATM   42  F   UNL     1     -10.346   2.277  72.712  1.00  0.00    -0.182 F  
HETATM   43  F   UNL     1     -10.526   3.427  74.555  1.00  0.00    -0.195 F  
HETATM   44  C   UNL     1     -11.380   4.448  72.547  1.00  0.00     0.299 C  
ENDBRANCH  34  37
ENDBRANCH  27  28
ENDBRANCH   1  27
BRANCH   5  45
HETATM   45  C   UNL     1      -8.936   4.830  68.561  1.00  0.00    -0.111 C  
HETATM   46  O   UNL     1     -10.004   4.218  68.727  1.00  0.00    -0.099 OA 
BRANCH  45  47
HETATM   47  C   UNL     1      -7.699   4.024  68.156  1.00  0.00    -0.066 C  
BRANCH  47  48
HETATM   48  O   UNL     1      -7.224   4.139  66.825  1.00  0.00    -0.069 OA 
BRANCH  48  49
HETATM   49  C   UNL     1      -6.554   3.043  66.380  1.00  0.00    -0.036 C  
HETATM   50  O   UNL     1      -7.008   1.909  66.344  1.00  0.00    -0.041 OA 
BRANCH  49  51
HETATM   51  C   UNL     1      -5.182   3.436  65.897  1.00  0.00    -0.009 C  
BRANCH  51  52
HETATM   52  C   UNL     1      -5.239   4.100  64.523  1.00  0.00    -0.009 C  
BRANCH  52  53
HETATM   53  C   UNL     1      -5.761   3.148  63.443  1.00  0.00    -0.009 C  
HETATM   54  C   UNL     1      -7.264   3.254  63.265  1.00  0.00    -0.049 C  
ENDBRANCH  52  53
ENDBRANCH  51  52
ENDBRANCH  49  51
ENDBRANCH  48  49
ENDBRANCH  47  48
ENDBRANCH  45  47
ENDBRANCH   5  45
BRANCH  15  55
HETATM   55  O   UNL     1      -6.333  15.292  70.613  1.00  0.00     0.001 OA 
HETATM   56  C   UNL     1      -5.462  16.169  71.321  1.00  0.00     0.177 C  
ENDBRANCH  15  55
TORSDOF 11
ENDMDL
MODEL       91
REMARK 921   NORMALIZED FREE ENERGY PREDICTED BY IDOCK:   10.87 KCAL/MOL
REMARK 922        TOTAL FREE ENERGY PREDICTED BY IDOCK:   14.32 KCAL/MOL
REMARK 923 INTER-LIGAND FREE ENERGY PREDICTED BY IDOCK:   15.80 KCAL/MOL
REMARK 924 INTRA-LIGAND FREE ENERGY PREDICTED BY IDOCK:   -1.48 KCAL/MOL
REMARK 927      BINDING AFFINITY PREDICTED BY RF-SCORE:    0.00 PKD
ROOT
HETATM    1  C   UNL     1      -8.119  11.677  69.768  1.00  0.00     1.274 C  
HETATM    2  O   UNL     1      -5.133  15.924  65.809  1.00  0.00     2.336 OA 
HETATM    3  C   UNL     1      -7.518  10.261  69.540  1.00  0.00    -0.142 C  
HETATM    4  C   UNL     1      -5.779  16.093  66.845  1.00  0.00     0.270 C  
HETATM    5  C   UNL     1      -7.304  10.000  68.052  1.00  0.00    -0.087 C  
HETATM    6  O   UNL     1      -8.591  10.113  67.419  1.00  0.00    -0.122 OA 
HETATM    7  C   UNL     1      -6.286  11.055  67.516  1.00  0.00    -0.062 C  
HETATM    8  C   UNL     1      -6.193  17.480  67.239  1.00  0.00    -0.166 A  
HETATM    9  C   UNL     1      -5.968  18.553  66.361  1.00  0.00    -0.188 A  
HETATM   10  C   UNL     1      -6.507  12.497  67.975  1.00  0.00    -0.087 A  
HETATM   11  C   UNL     1      -6.373  19.847  66.700  1.00  0.00    -0.205 A  
HETATM   12  C   UNL     1      -6.978  20.092  67.930  1.00  0.00    -0.316 A  
HETATM   13  H   UNL     1      -8.441  13.546  71.248  1.00  0.00     0.000 HD 
HETATM   14  H   UNL     1      -8.458   9.951  66.493  1.00  0.00     0.000 HD 
HETATM   15  C   UNL     1      -7.183  19.043  68.833  1.00  0.00    -0.329 A  
HETATM   16  O   UNL     1      -8.093  14.280  70.756  1.00  0.00     1.993 OA 
HETATM   17  C   UNL     1      -5.978  13.598  67.258  1.00  0.00     0.408 A  
HETATM   18  C   UNL     1      -6.815  17.722  68.470  1.00  0.00    -0.233 A  
HETATM   19  O   UNL     1      -5.270  13.314  66.113  1.00  0.00     1.748 OA 
HETATM   20  C   UNL     1      -6.201  14.939  67.669  1.00  0.00    -0.123 A  
HETATM   21  O   UNL     1      -7.492  16.700  70.504  1.00  0.00     1.781 OA 
HETATM   22  C   UNL     1      -7.253  12.761  69.140  1.00  0.00     0.087 A  
HETATM   23  C   UNL     1      -7.385  14.091  69.593  1.00  0.00     0.243 A  
HETATM   24  C   UNL     1      -7.074  16.562  69.355  1.00  0.00    -0.176 C  
HETATM   25  C   UNL     1      -6.870  15.178  68.865  1.00  0.00    -0.120 A  
HETATM   26  H   UNL     1      -4.915  14.053  65.632  1.00  0.00     0.000 HD 
ENDROOT
BRANCH   1  27
HETATM   27  O   UNL     1      -9.387  11.962  69.151  1.00  0.00     0.175 OA 
BRANCH  27  28
HETATM   28  C   UNL     1     -10.321  12.795  69.817  1.00  0.00     1.207 C  
HETATM   29  O   UNL     1     -11.586  12.103  69.939  1.00  0.00    -0.285 OA 
HETATM   30  C   UNL     1     -13.602  11.175  68.903  1.00  0.00     5.168 C  
HETATM   31  C   UNL     1     -12.636  13.355  68.141  1.00  0.00     0.708 C  
HETATM   32  O   UNL     1     -13.368  14.147  69.093  1.00  0.00     1.019 OA 
HETATM   33  H   UNL     1     -14.204  13.738  69.285  1.00  0.00     0.000 HD 
HETATM   34  C   UNL     1     -11.286  14.015  67.831  1.00  0.00    -0.273 C  
HETATM   35  C   UNL     1     -12.312  11.971  68.708  1.00  0.00     0.300 C  
HETATM   36  C   UNL     1     -10.473  14.157  69.120  1.00  0.00    -0.143 C  
BRANCH  34  37
HETATM   37  N   UNL     1     -11.462  15.278  67.118  1.00  0.00    -0.263 N  
HETATM   38  H   UNL     1     -12.286  15.853  67.289  1.00  0.00     0.000 HD 
HETATM   39  C   UNL     1     -10.810  16.986  65.431  1.00  0.00    -0.073 C  
HETATM   40  F   UNL     1      -9.961  18.001  65.746  1.00  0.00    -0.259 F  
HETATM   41  O   UNL     1      -9.461  15.039  66.022  1.00  0.00    -0.298 OA 
HETATM   42  F   UNL     1     -10.738  16.815  64.082  1.00  0.00     0.138 F  
HETATM   43  F   UNL     1     -12.071  17.439  65.691  1.00  0.00     1.953 F  
HETATM   44  C   UNL     1     -10.493  15.691  66.200  1.00  0.00    -0.317 C  
ENDBRANCH  34  37
ENDBRANCH  27  28
ENDBRANCH   1  27
BRANCH   5  45
HETATM   45  C   UNL     1      -6.916   8.601  67.518  1.00  0.00    -0.078 C  
HETATM   46  O   UNL     1      -5.740   8.397  67.171  1.00  0.00    -0.037 OA 
BRANCH  45  47
HETATM   47  C   UNL     1      -7.974   7.570  67.118  1.00  0.00    -0.117 C  
BRANCH  47  48
HETATM   48  O   UNL     1      -8.587   6.800  68.139  1.00  0.00    -0.120 OA 
BRANCH  48  49
HETATM   49  C   UNL     1      -9.892   6.503  67.901  1.00  0.00    -0.123 C  
HETATM   50  O   UNL     1     -10.467   6.671  66.836  1.00  0.00    -0.243 OA 
BRANCH  49  51
HETATM   51  C   UNL     1     -10.518   5.897  69.131  1.00  0.00    -0.338 C  
BRANCH  51  52
HETATM   52  C   UNL     1     -11.468   6.876  69.817  1.00  0.00    -0.247 C  
BRANCH  52  53
HETATM   53  C   UNL     1     -10.733   7.818  70.774  1.00  0.00    -0.230 C  
HETATM   54  C   UNL     1     -11.691   8.646  71.610  1.00  0.00    -0.380 C  
ENDBRANCH  52  53
ENDBRANCH  51  52
ENDBRANCH  49  51
ENDBRANCH  48  49
ENDBRANCH  47  48
ENDBRANCH  45  47
ENDBRANCH   5  45
BRANCH  15  55
HETATM   55  O   UNL     1      -7.804  19.244  70.040  1.00  0.00     0.447 OA 
HETATM   56  C   UNL     1      -7.127  20.051  70.999  1.00  0.00     0.725 C  
ENDBRANCH  15  55
TORSDOF 11
ENDMDL
MODEL       92
REMARK 921   NORMALIZED FREE ENERGY PREDICTED BY IDOCK:   11.62 KCAL/MOL
REMARK 922        TOTAL FREE ENERGY PREDICTED BY IDOCK:   15.54 KCAL/MOL
REMARK 923 INTER-LIGAND FREE ENERGY PREDICTED BY IDOCK:    4.29 KCAL/MOL
REMARK 924 INTRA-LIGAND FREE ENERGY PREDICTED BY IDOCK:   11.25 KCAL/MOL
REMARK 927      BINDING AFFINITY PREDICTED BY RF-SCORE:    0.00 PKD
ROOT
HETATM    1  C   UNL     1      -7.049  12.852  68.073  1.00  0.00    -0.111 C  
HETATM    2  O   UNL     1     -10.500  16.735  64.118  1.00  0.00     0.582 OA 
HETATM    3  C   UNL     1      -6.728  11.525  67.328  1.00  0.00    -0.112 C  
HETATM    4  C   UNL     1      -9.831  16.985  65.122  1.00  0.00     0.979 C  
HETATM    5  C   UNL     1      -7.942  11.041  66.542  1.00  0.00    -0.158 C  
HETATM    6  O   UNL     1      -9.004  10.845  67.493  1.00  0.00    -0.136 OA 
HETATM    7  C   UNL     1      -8.294  12.127  65.477  1.00  0.00     1.058 C  
HETATM    8  C   UNL     1      -9.928  18.341  65.755  1.00  0.00     0.063 A  
HETATM    9  C   UNL     1     -10.879  19.263  65.290  1.00  0.00     0.305 A  
HETATM   10  C   UNL     1      -8.276  13.577  65.962  1.00  0.00     1.688 A  
HETATM   11  C   UNL     1     -11.003  20.521  65.888  1.00  0.00     0.722 A  
HETATM   12  C   UNL     1     -10.160  20.885  66.935  1.00  0.00     0.143 A  
HETATM   13  H   UNL     1      -6.236  14.883  69.073  1.00  0.00     0.000 HD 
HETATM   14  H   UNL     1      -9.760  10.544  67.004  1.00  0.00     0.000 HD 
HETATM   15  C   UNL     1      -9.184  19.993  67.392  1.00  0.00    -0.365 A  
HETATM   16  O   UNL     1      -6.718  15.563  68.618  1.00  0.00    -0.103 OA 
HETATM   17  C   UNL     1      -8.978  14.601  65.280  1.00  0.00     1.663 A  
HETATM   18  C   UNL     1      -9.090  18.699  66.817  1.00  0.00    -0.301 A  
HETATM   19  O   UNL     1      -9.699  14.230  64.169  1.00  0.00    -0.157 OA 
HETATM   20  C   UNL     1      -8.981  15.944  65.742  1.00  0.00    -0.095 A  
HETATM   21  O   UNL     1      -7.264  17.963  68.145  1.00  0.00    -0.216 OA 
HETATM   22  C   UNL     1      -7.546  13.927  67.114  1.00  0.00     0.045 A  
HETATM   23  C   UNL     1      -7.476  15.280  67.507  1.00  0.00    -0.190 A  
HETATM   24  C   UNL     1      -8.125  17.689  67.310  1.00  0.00    -0.209 C  
HETATM   25  C   UNL     1      -8.190  16.287  66.833  1.00  0.00    -0.261 A  
HETATM   26  H   UNL     1     -10.170  14.916  63.712  1.00  0.00     0.000 HD 
ENDROOT
BRANCH   1  27
HETATM   27  O   UNL     1      -8.128  12.829  69.024  1.00  0.00     0.141 OA 
BRANCH  27  28
HETATM   28  C   UNL     1      -9.159  11.865  68.894  1.00  0.00     0.163 C  
HETATM   29  O   UNL     1      -9.871  12.083  67.652  1.00  0.00    -0.184 OA 
HETATM   30  C   UNL     1     -11.378  13.445  66.286  1.00  0.00    -0.329 C  
HETATM   31  C   UNL     1     -11.782  13.122  68.736  1.00  0.00    -0.324 C  
HETATM   32  O   UNL     1     -12.554  11.920  68.570  1.00  0.00     0.057 OA 
HETATM   33  H   UNL     1     -13.022  11.943  67.743  1.00  0.00     0.000 HD 
HETATM   34  C   UNL     1     -11.027  13.085  70.071  1.00  0.00     0.635 C  
HETATM   35  C   UNL     1     -10.713  13.245  67.646  1.00  0.00    -0.239 C  
HETATM   36  C   UNL     1     -10.103  11.867  70.108  1.00  0.00     2.278 C  
BRANCH  34  37
HETATM   37  N   UNL     1     -11.947  13.146  71.204  1.00  0.00    -0.288 N  
HETATM   38  H   UNL     1     -12.398  12.298  71.545  1.00  0.00     0.000 HD 
HETATM   39  C   UNL     1     -13.256  14.356  72.940  1.00  0.00    -0.517 C  
HETATM   40  F   UNL     1     -12.722  14.634  74.159  1.00  0.00    -0.528 F  
HETATM   41  O   UNL     1     -11.624  15.403  71.457  1.00  0.00    -0.343 OA 
HETATM   42  F   UNL     1     -14.253  15.259  72.728  1.00  0.00    -0.520 F  
HETATM   43  F   UNL     1     -13.862  13.138  73.050  1.00  0.00    -0.383 F  
HETATM   44  C   UNL     1     -12.204  14.376  71.816  1.00  0.00    -0.278 C  
ENDBRANCH  34  37
ENDBRANCH  27  28
ENDBRANCH   1  27
BRANCH   5  45
HETATM   45  C   UNL     1      -7.978   9.645  65.877  1.00  0.00    -0.112 C  
HETATM   46  O   UNL     1      -6.951   8.945  65.899  1.00  0.00    -0.078 OA 
BRANCH  45  47
HETATM   47  C   UNL     1      -9.115   9.227  64.942  1.00  0.00    -0.170 C  
BRANCH  47  48
HETATM   48  O   UNL     1     -10.064  10.206  64.552  1.00  0.00    -0.304 OA 
BRANCH  48  49
HETATM   49  C   UNL     1     -10.029  10.515  63.228  1.00  0.00    -0.169 C  
HETATM   50  O   UNL     1      -9.433   9.876  62.375  1.00  0.00    -0.278 OA 
BRANCH  49  51
HETATM   51  C   UNL     1     -10.867  11.738  62.961  1.00  0.00    -0.144 C  
BRANCH  51  52
HETATM   52  C   UNL     1     -12.249  11.623  63.600  1.00  0.00    -0.348 C  
BRANCH  52  53
HETATM   53  C   UNL     1     -13.132  12.833  63.287  1.00  0.00     0.588 C  
HETATM   54  C   UNL     1     -12.369  14.141  63.391  1.00  0.00     0.322 C  
ENDBRANCH  52  53
ENDBRANCH  51  52
ENDBRANCH  49  51
ENDBRANCH  48  49
ENDBRANCH  47  48
ENDBRANCH  45  47
ENDBRANCH   5  45
BRANCH  15  55
HETATM   55  O   UNL     1      -8.358  20.308  68.441  1.00  0.00    -0.067 OA 
HETATM   56  C   UNL     1      -8.857  20.088  69.758  1.00  0.00     0.872 C  
ENDBRANCH  15  55
TORSDOF 11
ENDMDL
MODEL       93
REMARK 921   NORMALIZED FREE ENERGY PREDICTED BY IDOCK:   13.13 KCAL/MOL
REMARK 922        TOTAL FREE ENERGY PREDICTED BY IDOCK:   18.03 KCAL/MOL
REMARK 923 INTER-LIGAND FREE ENERGY PREDICTED BY IDOCK:   12.04 KCAL/MOL
REMARK 924 INTRA-LIGAND FREE ENERGY PREDICTED BY IDOCK:    5.99 KCAL/MOL
REMARK 927      BINDING AFFINITY PREDICTED BY RF-SCORE:    0.00 PKD
ROOT
HETATM    1  C   UNL     1     -10.249  15.421  67.200  1.00  0.00    -0.251 C  
HETATM    2  O   UNL     1      -6.253  10.402  68.407  1.00  0.00    -0.047 OA 
HETATM    3  C   UNL     1      -9.400  16.707  66.985  1.00  0.00    -0.236 C  
HETATM    4  C   UNL     1      -7.421  10.436  68.016  1.00  0.00    -0.090 C  
HETATM    5  C   UNL     1      -8.262  16.776  67.999  1.00  0.00    -0.192 C  
HETATM    6  O   UNL     1      -8.866  16.779  69.305  1.00  0.00    -0.154 OA 
HETATM    7  C   UNL     1      -7.339  15.537  67.778  1.00  0.00    -0.174 C  
HETATM    8  C   UNL     1      -8.226   9.171  67.984  1.00  0.00    -0.112 A  
HETATM    9  C   UNL     1      -7.695   7.990  68.529  1.00  0.00    -0.106 A  
HETATM   10  C   UNL     1      -8.047  14.197  67.574  1.00  0.00    -0.199 A  
HETATM   11  C   UNL     1      -8.444   6.809  68.534  1.00  0.00    -0.123 A  
HETATM   12  C   UNL     1      -9.716   6.783  67.967  1.00  0.00    -0.130 A  
HETATM   13  H   UNL     1     -11.747  13.784  66.274  1.00  0.00     0.000 HD 
HETATM   14  H   UNL     1      -8.158  16.823  69.937  1.00  0.00     0.000 HD 
HETATM   15  C   UNL     1     -10.250   7.940  67.390  1.00  0.00    -0.251 A  
HETATM   16  O   UNL     1     -11.305  12.959  66.440  1.00  0.00    -0.293 OA 
HETATM   17  C   UNL     1      -7.390  12.963  67.802  1.00  0.00    -0.134 A  
HETATM   18  C   UNL     1      -9.511   9.150  67.427  1.00  0.00    -0.177 A  
HETATM   19  O   UNL     1      -6.087  13.022  68.238  1.00  0.00    -0.070 OA 
HETATM   20  C   UNL     1      -8.053  11.718  67.636  1.00  0.00    -0.144 A  
HETATM   21  O   UNL     1     -11.116  10.466  66.273  1.00  0.00     0.060 OA 
HETATM   22  C   UNL     1      -9.388  14.166  67.147  1.00  0.00    -0.241 A  
HETATM   23  C   UNL     1     -10.006  12.923  66.890  1.00  0.00    -0.238 A  
HETATM   24  C   UNL     1     -10.056  10.421  66.897  1.00  0.00    -0.219 C  
HETATM   25  C   UNL     1      -9.352  11.704  67.136  1.00  0.00    -0.178 A  
HETATM   26  H   UNL     1      -5.647  12.194  68.391  1.00  0.00     0.000 HD 
ENDROOT
BRANCH   1  27
HETATM   27  O   UNL     1     -10.878  15.255  68.483  1.00  0.00    -0.238 OA 
BRANCH  27  28
HETATM   28  C   UNL     1     -12.218  14.794  68.554  1.00  0.00    -0.079 C  
HETATM   29  O   UNL     1     -12.952  15.589  69.515  1.00  0.00     0.183 OA 
HETATM   30  C   UNL     1     -13.372  16.255  71.834  1.00  0.00     0.744 C  
HETATM   31  C   UNL     1     -12.889  13.873  71.234  1.00  0.00    -0.360 C  
HETATM   32  O   UNL     1     -14.263  13.536  70.976  1.00  0.00     0.594 OA 
HETATM   33  H   UNL     1     -14.837  14.055  71.528  1.00  0.00     0.000 HD 
HETATM   34  C   UNL     1     -11.962  13.035  70.343  1.00  0.00    -0.258 C  
HETATM   35  C   UNL     1     -12.605  15.336  70.884  1.00  0.00    -0.412 C  
HETATM   36  C   UNL     1     -12.291  13.292  68.872  1.00  0.00     0.046 C  
BRANCH  34  37
HETATM   37  N   UNL     1     -12.011  11.621  70.707  1.00  0.00    -0.433 N  
HETATM   38  H   UNL     1     -11.339  11.238  71.372  1.00  0.00     0.000 HD 
HETATM   39  C   UNL     1     -12.899   9.305  70.509  1.00  0.00     0.358 C  
HETATM   40  F   UNL     1     -13.960   8.891  71.251  1.00  0.00    -0.407 F  
HETATM   41  O   UNL     1     -13.843  11.251  69.377  1.00  0.00     2.656 OA 
HETATM   42  F   UNL     1     -12.847   8.503  69.410  1.00  0.00     2.235 F  
HETATM   43  F   UNL     1     -11.780   9.024  71.239  1.00  0.00    -0.296 F  
HETATM   44  C   UNL     1     -12.985  10.796  70.137  1.00  0.00     0.011 C  
ENDBRANCH  34  37
ENDBRANCH  27  28
ENDBRANCH   1  27
BRANCH   5  45
HETATM   45  C   UNL     1      -7.387  18.042  68.155  1.00  0.00    -0.250 C  
HETATM   46  O   UNL     1      -6.212  17.915  68.540  1.00  0.00    -0.180 OA 
BRANCH  45  47
HETATM   47  C   UNL     1      -7.995  19.446  68.151  1.00  0.00    -0.317 C  
BRANCH  47  48
HETATM   48  O   UNL     1      -7.890  20.225  66.970  1.00  0.00    -0.307 OA 
BRANCH  48  49
HETATM   49  C   UNL     1      -9.001  20.197  66.187  1.00  0.00    -0.192 C  
HETATM   50  O   UNL     1      -9.058  19.710  65.068  1.00  0.00     0.697 OA 
BRANCH  49  51
HETATM   51  C   UNL     1     -10.164  20.818  66.917  1.00  0.00     0.068 C  
BRANCH  51  52
HETATM   52  C   UNL     1     -10.540  20.016  68.161  1.00  0.00    -0.312 C  
BRANCH  52  53
HETATM   53  C   UNL     1      -9.642  20.350  69.355  1.00  0.00     0.513 C  
HETATM   54  C   UNL     1     -10.371  21.164  70.408  1.00  0.00     2.252 C  
ENDBRANCH  52  53
ENDBRANCH  51  52
ENDBRANCH  49  51
ENDBRANCH  48  49
ENDBRANCH  47  48
ENDBRANCH  45  47
ENDBRANCH   5  45
BRANCH  15  55
HETATM   55  O   UNL     1     -11.512   7.957  66.851  1.00  0.00     0.848 OA 
HETATM   56  C   UNL     1     -12.611   7.990  67.757  1.00  0.00     8.569 C  
ENDBRANCH  15  55
TORSDOF 11
ENDMDL
MODEL       94
REMARK 921   NORMALIZED FREE ENERGY PREDICTED BY IDOCK:   13.64 KCAL/MOL
REMARK 922        TOTAL FREE ENERGY PREDICTED BY IDOCK:   18.87 KCAL/MOL
REMARK 923 INTER-LIGAND FREE ENERGY PREDICTED BY IDOCK:    9.83 KCAL/MOL
REMARK 924 INTRA-LIGAND FREE ENERGY PREDICTED BY IDOCK:    9.03 KCAL/MOL
REMARK 927      BINDING AFFINITY PREDICTED BY RF-SCORE:    0.00 PKD
ROOT
HETATM    1  C   UNL     1      -8.083  11.006  69.374  1.00  0.00     0.076 C  
HETATM    2  O   UNL     1     -12.031  10.481  64.200  1.00  0.00     2.262 OA 
HETATM    3  C   UNL     1      -7.636   9.584  69.817  1.00  0.00    -0.110 C  
HETATM    4  C   UNL     1     -11.370  11.430  64.626  1.00  0.00    -0.086 C  
HETATM    5  C   UNL     1      -8.808   8.609  69.762  1.00  0.00    -0.137 C  
HETATM    6  O   UNL     1      -9.819   9.122  70.648  1.00  0.00    -0.208 OA 
HETATM    7  C   UNL     1      -9.302   8.527  68.284  1.00  0.00    -0.143 C  
HETATM    8  C   UNL     1     -11.600  12.802  64.065  1.00  0.00    -0.488 A  
HETATM    9  C   UNL     1     -12.658  13.021  63.167  1.00  0.00    -0.016 A  
HETATM   10  C   UNL     1      -9.431   9.858  67.543  1.00  0.00    -0.173 A  
HETATM   11  C   UNL     1     -12.905  14.299  62.657  1.00  0.00     2.936 A  
HETATM   12  C   UNL     1     -12.082  15.366  63.010  1.00  0.00     3.011 A  
HETATM   13  H   UNL     1      -7.474  13.152  68.476  1.00  0.00     0.000 HD 
HETATM   14  H   UNL     1     -10.549   8.515  70.614  1.00  0.00     0.000 HD 
HETATM   15  C   UNL     1     -11.004  15.162  63.878  1.00  0.00     1.168 A  
HETATM   16  O   UNL     1      -8.039  13.244  67.717  1.00  0.00    -0.138 OA 
HETATM   17  C   UNL     1     -10.257   9.999  66.401  1.00  0.00    -0.221 A  
HETATM   18  C   UNL     1     -10.782  13.876  64.434  1.00  0.00    -0.286 A  
HETATM   19  O   UNL     1     -10.958   8.887  65.997  1.00  0.00     0.674 OA 
HETATM   20  C   UNL     1     -10.397  11.240  65.725  1.00  0.00    -0.310 A  
HETATM   21  O   UNL     1      -8.855  14.469  65.689  1.00  0.00     0.503 OA 
HETATM   22  C   UNL     1      -8.718  10.987  67.989  1.00  0.00    -0.138 A  
HETATM   23  C   UNL     1      -8.786  12.188  67.252  1.00  0.00    -0.186 A  
HETATM   24  C   UNL     1      -9.700  13.618  65.413  1.00  0.00    -0.025 C  
HETATM   25  C   UNL     1      -9.623  12.323  66.129  1.00  0.00    -0.248 A  
HETATM   26  H   UNL     1     -11.512   8.982  65.231  1.00  0.00     0.000 HD 
ENDROOT
BRANCH   1  27
HETATM   27  O   UNL     1      -9.130  11.634  70.134  1.00  0.00     2.124 OA 
BRANCH  27  28
HETATM   28  C   UNL     1     -10.377  11.911  69.518  1.00  0.00     0.461 C  
HETATM   29  O   UNL     1     -10.205  12.947  68.523  1.00  0.00    -0.234 OA 
HETATM   30  C   UNL     1      -9.743  15.285  67.957  1.00  0.00    -0.211 C  
HETATM   31  C   UNL     1     -11.174  14.683  69.921  1.00  0.00    -0.231 C  
HETATM   32  O   UNL     1     -12.397  14.636  69.165  1.00  0.00    -0.543 OA 
HETATM   33  H   UNL     1     -12.359  15.252  68.443  1.00  0.00     0.000 HD 
HETATM   34  C   UNL     1     -11.236  13.689  71.088  1.00  0.00     1.756 C  
HETATM   35  C   UNL     1      -9.980  14.258  69.063  1.00  0.00    -0.097 C  
HETATM   36  C   UNL     1     -11.458  12.274  70.550  1.00  0.00     0.466 C  
BRANCH  34  37
HETATM   37  N   UNL     1     -12.231  14.092  72.079  1.00  0.00    -0.120 N  
HETATM   38  H   UNL     1     -12.797  13.389  72.553  1.00  0.00     0.000 HD 
HETATM   39  C   UNL     1     -13.535  15.782  73.357  1.00  0.00    -0.393 C  
HETATM   40  F   UNL     1     -13.073  16.290  74.530  1.00  0.00    -0.322 F  
HETATM   41  O   UNL     1     -11.687  16.309  71.851  1.00  0.00    -0.491 OA 
HETATM   42  F   UNL     1     -14.408  16.694  72.847  1.00  0.00    -0.075 F  
HETATM   43  F   UNL     1     -14.276  14.681  73.674  1.00  0.00     1.013 F  
HETATM   44  C   UNL     1     -12.401  15.448  72.371  1.00  0.00    -0.381 C  
ENDBRANCH  34  37
ENDBRANCH  27  28
ENDBRANCH   1  27
BRANCH   5  45
HETATM   45  C   UNL     1      -8.706   7.179  70.345  1.00  0.00    -0.150 C  
HETATM   46  O   UNL     1      -9.751   6.537  70.543  1.00  0.00    -0.171 OA 
BRANCH  45  47
HETATM   47  C   UNL     1      -7.409   6.654  70.966  1.00  0.00    -0.079 C  
BRANCH  47  48
HETATM   48  O   UNL     1      -7.441   5.413  71.651  1.00  0.00    -0.086 OA 
BRANCH  48  49
HETATM   49  C   UNL     1      -7.812   5.510  72.955  1.00  0.00    -0.098 C  
HETATM   50  O   UNL     1      -7.946   6.557  73.570  1.00  0.00    -0.095 OA 
BRANCH  49  51
HETATM   51  C   UNL     1      -8.072   4.138  73.522  1.00  0.00    -0.090 C  
BRANCH  51  52
HETATM   52  C   UNL     1      -9.066   3.356  72.667  1.00  0.00    -0.119 C  
BRANCH  52  53
HETATM   53  C   UNL     1     -10.426   3.206  73.354  1.00  0.00    -0.252 C  
HETATM   54  C   UNL     1     -11.368   4.346  73.014  1.00  0.00    -0.204 C  
ENDBRANCH  52  53
ENDBRANCH  51  52
ENDBRANCH  49  51
ENDBRANCH  48  49
ENDBRANCH  47  48
ENDBRANCH  45  47
ENDBRANCH   5  45
BRANCH  15  55
HETATM   55  O   UNL     1     -10.193  16.197  64.272  1.00  0.00     0.570 OA 
HETATM   56  C   UNL     1     -10.801  17.274  64.979  1.00  0.00     0.167 C  
ENDBRANCH  15  55
TORSDOF 11
ENDMDL
MODEL       95
REMARK 921   NORMALIZED FREE ENERGY PREDICTED BY IDOCK:   13.69 KCAL/MOL
REMARK 922        TOTAL FREE ENERGY PREDICTED BY IDOCK:   18.94 KCAL/MOL
REMARK 923 INTER-LIGAND FREE ENERGY PREDICTED BY IDOCK:    9.97 KCAL/MOL
REMARK 924 INTRA-LIGAND FREE ENERGY PREDICTED BY IDOCK:    8.96 KCAL/MOL
REMARK 927      BINDING AFFINITY PREDICTED BY RF-SCORE:    0.00 PKD
ROOT
HETATM    1  C   UNL     1      -8.080  11.007  69.371  1.00  0.00     0.076 C  
HETATM    2  O   UNL     1     -12.031  10.473  64.201  1.00  0.00     2.262 OA 
HETATM    3  C   UNL     1      -7.638   9.586  69.822  1.00  0.00    -0.110 C  
HETATM    4  C   UNL     1     -11.366  11.421  64.622  1.00  0.00    -0.086 C  
HETATM    5  C   UNL     1      -8.815   8.615  69.772  1.00  0.00    -0.137 C  
HETATM    6  O   UNL     1      -9.824   9.137  70.655  1.00  0.00    -0.208 OA 
HETATM    7  C   UNL     1      -9.309   8.528  68.294  1.00  0.00    -0.143 C  
HETATM    8  C   UNL     1     -11.592  12.791  64.054  1.00  0.00    -0.488 A  
HETATM    9  C   UNL     1     -12.648  13.010  63.155  1.00  0.00    -0.016 A  
HETATM   10  C   UNL     1      -9.433   9.856  67.546  1.00  0.00    -0.173 A  
HETATM   11  C   UNL     1     -12.890  14.286  62.639  1.00  0.00     2.936 A  
HETATM   12  C   UNL     1     -12.063  15.351  62.987  1.00  0.00     3.011 A  
HETATM   13  H   UNL     1      -7.463  13.147  68.462  1.00  0.00     0.000 HD 
HETATM   14  H   UNL     1     -10.556   8.532  70.625  1.00  0.00     0.000 HD 
HETATM   15  C   UNL     1     -10.986  15.148  63.856  1.00  0.00     1.168 A  
HETATM   16  O   UNL     1      -8.027  13.237  67.703  1.00  0.00    -0.148 OA 
HETATM   17  C   UNL     1     -10.259   9.994  66.404  1.00  0.00    -0.221 A  
HETATM   18  C   UNL     1     -10.769  13.863  64.417  1.00  0.00    -0.286 A  
HETATM   19  O   UNL     1     -10.965   8.883  66.006  1.00  0.00     0.674 OA 
HETATM   20  C   UNL     1     -10.394  11.233  65.722  1.00  0.00    -0.310 A  
HETATM   21  O   UNL     1      -8.840  14.455  65.670  1.00  0.00     0.547 OA 
HETATM   22  C   UNL     1      -8.715  10.984  67.987  1.00  0.00    -0.138 A  
HETATM   23  C   UNL     1      -8.779  12.182  67.243  1.00  0.00    -0.182 A  
HETATM   24  C   UNL     1      -9.688  13.607  65.398  1.00  0.00    -0.025 C  
HETATM   25  C   UNL     1      -9.615  12.314  66.120  1.00  0.00    -0.248 A  
HETATM   26  H   UNL     1     -11.519   8.976  65.240  1.00  0.00     0.000 HD 
ENDROOT
BRANCH   1  27
HETATM   27  O   UNL     1      -9.124  11.643  70.129  1.00  0.00     2.124 OA 
BRANCH  27  28
HETATM   28  C   UNL     1     -10.372  11.918  69.513  1.00  0.00     0.461 C  
HETATM   29  O   UNL     1     -10.203  12.954  68.518  1.00  0.00    -0.234 OA 
HETATM   30  C   UNL     1      -9.746  15.292  67.951  1.00  0.00    -0.211 C  
HETATM   31  C   UNL     1     -11.175  14.688  69.916  1.00  0.00    -0.231 C  
HETATM   32  O   UNL     1     -12.398  14.639  69.160  1.00  0.00    -0.543 OA 
HETATM   33  H   UNL     1     -12.361  15.254  68.437  1.00  0.00     0.000 HD 
HETATM   34  C   UNL     1     -11.234  13.694  71.083  1.00  0.00     1.756 C  
HETATM   35  C   UNL     1      -9.980  14.266  69.057  1.00  0.00    -0.097 C  
HETATM   36  C   UNL     1     -11.454  12.279  70.545  1.00  0.00     0.466 C  
BRANCH  34  37
HETATM   37  N   UNL     1     -12.229  14.096  72.074  1.00  0.00    -0.146 N  
HETATM   38  H   UNL     1     -12.808  13.394  72.533  1.00  0.00     0.000 HD 
HETATM   39  C   UNL     1     -13.518  15.784  73.371  1.00  0.00    -0.393 C  
HETATM   40  F   UNL     1     -13.056  16.266  74.555  1.00  0.00    -0.322 F  
HETATM   41  O   UNL     1     -11.653  16.308  71.885  1.00  0.00    -0.456 OA 
HETATM   42  F   UNL     1     -14.375  16.716  72.871  1.00  0.00    -0.075 F  
HETATM   43  F   UNL     1     -14.277  14.688  73.666  1.00  0.00     1.013 F  
HETATM   44  C   UNL     1     -12.383  15.449  72.386  1.00  0.00    -0.381 C  
ENDBRANCH  34  37
ENDBRANCH  27  28
ENDBRANCH   1  27
BRANCH   5  45
HETATM   45  C   UNL     1      -8.718   7.188  70.362  1.00  0.00    -0.150 C  
HETATM   46  O   UNL     1      -8.673   7.053  71.597  1.00  0.00    -0.117 OA 
BRANCH  45  47
HETATM   47  C   UNL     1      -8.370   5.979  69.491  1.00  0.00    -0.115 C  
BRANCH  47  48
HETATM   48  O   UNL     1      -9.341   4.958  69.333  1.00  0.00    -0.108 OA 
BRANCH  48  49
HETATM   49  C   UNL     1      -8.820   3.706  69.242  1.00  0.00    -0.101 C  
HETATM   50  O   UNL     1      -8.979   2.819  70.067  1.00  0.00    -0.079 OA 
BRANCH  49  51
HETATM   51  C   UNL     1      -8.050   3.558  67.955  1.00  0.00    -0.082 C  
BRANCH  51  52
HETATM   52  C   UNL     1      -8.607   2.425  67.096  1.00  0.00    -0.122 C  
BRANCH  52  53
HETATM   53  C   UNL     1      -9.474   2.945  65.947  1.00  0.00     0.020 C  
HETATM   54  C   UNL     1      -9.229   4.415  65.664  1.00  0.00    -0.148 C  
ENDBRANCH  52  53
ENDBRANCH  51  52
ENDBRANCH  49  51
ENDBRANCH  48  49
ENDBRANCH  47  48
ENDBRANCH  45  47
ENDBRANCH   5  45
BRANCH  15  55
HETATM   55  O   UNL     1     -10.170  16.181  64.244  1.00  0.00     0.570 OA 
HETATM   56  C   UNL     1     -10.654  17.050  65.265  1.00  0.00    -0.080 C  
ENDBRANCH  15  55
TORSDOF 11
ENDMDL
MODEL       96
REMARK 921   NORMALIZED FREE ENERGY PREDICTED BY IDOCK:   14.70 KCAL/MOL
REMARK 922        TOTAL FREE ENERGY PREDICTED BY IDOCK:   20.60 KCAL/MOL
REMARK 923 INTER-LIGAND FREE ENERGY PREDICTED BY IDOCK:    8.05 KCAL/MOL
REMARK 924 INTRA-LIGAND FREE ENERGY PREDICTED BY IDOCK:   12.55 KCAL/MOL
REMARK 927      BINDING AFFINITY PREDICTED BY RF-SCORE:    0.00 PKD
ROOT
HETATM    1  C   UNL     1     -10.158  10.595  70.341  1.00  0.00     0.747 C  
HETATM    2  O   UNL     1      -8.345   5.655  66.476  1.00  0.00    -0.109 OA 
HETATM    3  C   UNL     1     -10.870  10.020  71.600  1.00  0.00     0.647 C  
HETATM    4  C   UNL     1      -7.953   6.822  66.543  1.00  0.00    -0.105 C  
HETATM    5  C   UNL     1     -11.807   8.879  71.215  1.00  0.00    -0.310 C  
HETATM    6  O   UNL     1     -12.768   9.422  70.292  1.00  0.00    -0.333 OA 
HETATM    7  C   UNL     1     -10.949   7.742  70.576  1.00  0.00    -0.251 C  
HETATM    8  C   UNL     1      -7.067   7.367  65.463  1.00  0.00    -0.061 A  
HETATM    9  C   UNL     1      -6.805   6.596  64.318  1.00  0.00    -0.049 A  
HETATM   10  C   UNL     1      -9.892   8.184  69.563  1.00  0.00    -0.181 A  
HETATM   11  C   UNL     1      -6.005   7.100  63.289  1.00  0.00    -0.041 A  
HETATM   12  C   UNL     1      -5.430   8.363  63.402  1.00  0.00    -0.063 A  
HETATM   13  H   UNL     1      -8.280  11.780  69.419  1.00  0.00     0.000 HD 
HETATM   14  H   UNL     1     -13.352   8.712  70.052  1.00  0.00     0.000 HD 
HETATM   15  C   UNL     1      -5.651   9.133  64.548  1.00  0.00    -0.063 A  
HETATM   16  O   UNL     1      -7.937  11.180  68.767  1.00  0.00    -0.136 OA 
HETATM   17  C   UNL     1      -9.363   7.291  68.600  1.00  0.00    -0.138 A  
HETATM   18  C   UNL     1      -6.502   8.643  65.572  1.00  0.00    -0.059 A  
HETATM   19  O   UNL     1      -9.858   6.009  68.598  1.00  0.00    -0.129 OA 
HETATM   20  C   UNL     1      -8.398   7.706  67.644  1.00  0.00    -0.118 A  
HETATM   21  O   UNL     1      -6.274  10.516  67.013  1.00  0.00    -0.060 OA 
HETATM   22  C   UNL     1      -9.415   9.509  69.573  1.00  0.00    -0.195 A  
HETATM   23  C   UNL     1      -8.385   9.883  68.684  1.00  0.00    -0.110 A  
HETATM   24  C   UNL     1      -6.830   9.445  66.774  1.00  0.00    -0.080 C  
HETATM   25  C   UNL     1      -7.878   8.994  67.719  1.00  0.00    -0.101 A  
HETATM   26  H   UNL     1      -9.504   5.410  67.952  1.00  0.00     0.000 HD 
ENDROOT
BRANCH   1  27
HETATM   27  O   UNL     1     -10.993  11.130  69.300  1.00  0.00    -0.224 OA 
BRANCH  27  28
HETATM   28  C   UNL     1     -10.809  10.700  67.961  1.00  0.00    -0.261 C  
HETATM   29  O   UNL     1      -9.454  10.987  67.543  1.00  0.00    -0.162 OA 
HETATM   30  C   UNL     1      -7.720  12.610  66.946  1.00  0.00     0.080 C  
HETATM   31  C   UNL     1     -10.095  12.919  66.216  1.00  0.00    -0.276 C  
HETATM   32  O   UNL     1      -9.944  12.161  65.003  1.00  0.00    -0.273 OA 
HETATM   33  H   UNL     1      -9.056  12.241  64.675  1.00  0.00     0.000 HD 
HETATM   34  C   UNL     1     -11.529  12.790  66.746  1.00  0.00    -0.343 C  
HETATM   35  C   UNL     1      -9.183  12.379  67.320  1.00  0.00    -0.187 C  
HETATM   36  C   UNL     1     -11.849  11.318  67.012  1.00  0.00     0.318 C  
BRANCH  34  37
HETATM   37  N   UNL     1     -12.486  13.437  65.852  1.00  0.00    -0.432 N  
HETATM   38  H   UNL     1     -13.474  13.187  65.890  1.00  0.00     0.000 HD 
HETATM   39  C   UNL     1     -13.103  14.958  63.982  1.00  0.00     1.423 C  
HETATM   40  F   UNL     1     -13.366  16.274  64.201  1.00  0.00     0.894 F  
HETATM   41  O   UNL     1     -10.859  14.759  64.923  1.00  0.00    -0.389 OA 
HETATM   42  F   UNL     1     -12.730  14.839  62.678  1.00  0.00     1.066 F  
HETATM   43  F   UNL     1     -14.293  14.299  64.099  1.00  0.00     4.519 F  
HETATM   44  C   UNL     1     -12.039  14.400  64.945  1.00  0.00    -0.436 C  
ENDBRANCH  34  37
ENDBRANCH  27  28
ENDBRANCH   1  27
BRANCH   5  45
HETATM   45  C   UNL     1     -12.797   8.262  72.230  1.00  0.00    -0.277 C  
HETATM   46  O   UNL     1     -12.520   8.307  73.441  1.00  0.00     0.374 OA 
BRANCH  45  47
HETATM   47  C   UNL     1     -13.935   7.340  71.786  1.00  0.00    -0.321 C  
BRANCH  47  48
HETATM   48  O   UNL     1     -13.633   5.985  71.495  1.00  0.00     0.913 OA 
BRANCH  48  49
HETATM   49  C   UNL     1     -13.215   5.267  72.571  1.00  0.00     1.451 C  
HETATM   50  O   UNL     1     -13.936   4.580  73.278  1.00  0.00     1.903 OA 
BRANCH  49  51
HETATM   51  C   UNL     1     -11.724   5.407  72.740  1.00  0.00    -0.235 C  
BRANCH  51  52
HETATM   52  C   UNL     1     -11.008   4.074  72.537  1.00  0.00     0.083 C  
BRANCH  52  53
HETATM   53  C   UNL     1     -11.027   3.211  73.800  1.00  0.00    -0.310 C  
HETATM   54  C   UNL     1     -10.312   1.888  73.600  1.00  0.00    -0.179 C  
ENDBRANCH  52  53
ENDBRANCH  51  52
ENDBRANCH  49  51
ENDBRANCH  48  49
ENDBRANCH  47  48
ENDBRANCH  45  47
ENDBRANCH   5  45
BRANCH  15  55
HETATM   55  O   UNL     1      -5.126  10.395  64.679  1.00  0.00    -0.098 OA 
HETATM   56  C   UNL     1      -5.360  11.316  63.617  1.00  0.00     0.725 C  
ENDBRANCH  15  55
TORSDOF 11
ENDMDL
MODEL       97
REMARK 921   NORMALIZED FREE ENERGY PREDICTED BY IDOCK:   14.88 KCAL/MOL
REMARK 922        TOTAL FREE ENERGY PREDICTED BY IDOCK:   20.90 KCAL/MOL
REMARK 923 INTER-LIGAND FREE ENERGY PREDICTED BY IDOCK:   -1.17 KCAL/MOL
REMARK 924 INTRA-LIGAND FREE ENERGY PREDICTED BY IDOCK:   22.07 KCAL/MOL
REMARK 927      BINDING AFFINITY PREDICTED BY RF-SCORE:    0.00 PKD
ROOT
HETATM    1  C   UNL     1      -9.802  12.334  64.525  1.00  0.00    -0.099 C  
HETATM    2  O   UNL     1      -5.213   8.685  67.398  1.00  0.00    -0.033 OA 
HETATM    3  C   UNL     1      -9.496  13.836  64.791  1.00  0.00     0.893 C  
HETATM    4  C   UNL     1      -6.000   8.431  66.484  1.00  0.00    -0.049 C  
HETATM    5  C   UNL     1      -9.050  14.047  66.234  1.00  0.00    -0.016 C  
HETATM    6  O   UNL     1     -10.125  13.592  67.075  1.00  0.00    -0.238 OA 
HETATM    7  C   UNL     1      -7.737  13.235  66.460  1.00  0.00     1.031 C  
HETATM    8  C   UNL     1      -6.166   7.013  66.026  1.00  0.00    -0.036 A  
HETATM    9  C   UNL     1      -5.536   5.973  66.728  1.00  0.00    -0.013 A  
HETATM   10  C   UNL     1      -7.720  11.813  65.898  1.00  0.00     0.620 A  
HETATM   11  C   UNL     1      -5.704   4.643  66.332  1.00  0.00    -0.022 A  
HETATM   12  C   UNL     1      -6.475   4.337  65.213  1.00  0.00    -0.039 A  
HETATM   13  H   UNL     1      -9.993  10.538  62.937  1.00  0.00     0.000 HD 
HETATM   14  H   UNL     1      -9.848  13.724  67.973  1.00  0.00     0.000 HD 
HETATM   15  C   UNL     1      -7.085   5.361  64.481  1.00  0.00    -0.050 A  
HETATM   16  O   UNL     1      -9.398   9.878  63.276  1.00  0.00    -0.277 OA 
HETATM   17  C   UNL     1      -6.826  10.828  66.384  1.00  0.00    -0.135 A  
HETATM   18  C   UNL     1      -6.954   6.706  64.910  1.00  0.00    -0.058 A  
HETATM   19  O   UNL     1      -5.983  11.201  67.405  1.00  0.00    -0.049 OA 
HETATM   20  C   UNL     1      -6.825   9.500  65.879  1.00  0.00    -0.087 A  
HETATM   21  O   UNL     1      -8.237   7.661  63.154  1.00  0.00    -0.098 OA 
HETATM   22  C   UNL     1      -8.608  11.451  64.866  1.00  0.00     0.374 A  
HETATM   23  C   UNL     1      -8.530  10.159  64.304  1.00  0.00    -0.176 A  
HETATM   24  C   UNL     1      -7.637   7.823  64.216  1.00  0.00    -0.111 C  
HETATM   25  C   UNL     1      -7.651   9.183  64.806  1.00  0.00    -0.108 A  
HETATM   26  H   UNL     1      -5.384  10.540  67.731  1.00  0.00     0.000 HD 
ENDROOT
BRANCH   1  27
HETATM   27  O   UNL     1     -10.823  11.718  65.328  1.00  0.00    -0.280 OA 
BRANCH  27  28
HETATM   28  C   UNL     1     -10.461  10.773  66.322  1.00  0.00    -0.226 C  
HETATM   29  O   UNL     1     -11.568  10.584  67.235  1.00  0.00    -0.327 OA 
HETATM   30  C   UNL     1     -13.022  11.444  69.007  1.00  0.00     1.662 C  
HETATM   31  C   UNL     1     -10.567  11.935  68.990  1.00  0.00    -0.115 C  
HETATM   32  O   UNL     1     -10.206  10.751  69.723  1.00  0.00    -0.434 OA 
HETATM   33  H   UNL     1     -10.905  10.509  70.319  1.00  0.00     0.000 HD 
HETATM   34  C   UNL     1      -9.438  12.325  68.026  1.00  0.00    -0.206 C  
HETATM   35  C   UNL     1     -11.803  11.689  68.120  1.00  0.00    -0.244 C  
HETATM   36  C   UNL     1      -9.170  11.175  67.053  1.00  0.00    -0.172 C  
BRANCH  34  37
HETATM   37  N   UNL     1      -8.246  12.757  68.751  1.00  0.00    -0.352 N  
HETATM   38  H   UNL     1      -7.947  13.731  68.712  1.00  0.00     0.000 HD 
HETATM   39  C   UNL     1      -6.229  12.354  70.150  1.00  0.00    -0.037 C  
HETATM   40  F   UNL     1      -6.298  12.367  71.508  1.00  0.00     0.787 F  
HETATM   41  O   UNL     1      -7.897  10.658  69.606  1.00  0.00    -0.133 OA 
HETATM   42  F   UNL     1      -5.140  11.607  69.816  1.00  0.00    -0.057 F  
HETATM   43  F   UNL     1      -5.947  13.633  69.763  1.00  0.00    -0.094 F  
HETATM   44  C   UNL     1      -7.519  11.827  69.498  1.00  0.00     0.331 C  
ENDBRANCH  34  37
ENDBRANCH  27  28
ENDBRANCH   1  27
BRANCH   5  45
HETATM   45  C   UNL     1      -8.883  15.463  66.835  1.00  0.00    -0.253 C  
HETATM   46  O   UNL     1      -7.737  15.880  67.075  1.00  0.00    -0.192 OA 
BRANCH  45  47
HETATM   47  C   UNL     1     -10.068  16.234  67.422  1.00  0.00    -0.260 C  
BRANCH  47  48
HETATM   48  O   UNL     1      -9.910  16.856  68.686  1.00  0.00    -0.246 OA 
BRANCH  48  49
HETATM   49  C   UNL     1     -10.475  16.171  69.716  1.00  0.00    -0.286 C  
HETATM   50  O   UNL     1      -9.863  15.499  70.531  1.00  0.00     0.076 OA 
BRANCH  49  51
HETATM   51  C   UNL     1     -11.966  16.395  69.729  1.00  0.00     0.334 C  
BRANCH  51  52
HETATM   52  C   UNL     1     -12.700  15.244  70.412  1.00  0.00    -0.400 C  
BRANCH  52  53
HETATM   53  C   UNL     1     -12.893  15.491  71.911  1.00  0.00    -0.504 C  
HETATM   54  C   UNL     1     -14.358  15.515  72.303  1.00  0.00    -0.556 C  
ENDBRANCH  52  53
ENDBRANCH  51  52
ENDBRANCH  49  51
ENDBRANCH  48  49
ENDBRANCH  47  48
ENDBRANCH  45  47
ENDBRANCH   5  45
BRANCH  15  55
HETATM   55  O   UNL     1      -7.877   5.092  63.392  1.00  0.00    -0.072 OA 
HETATM   56  C   UNL     1      -9.129   4.456  63.633  1.00  0.00    -0.136 C  
ENDBRANCH  15  55
TORSDOF 11
ENDMDL
MODEL       98
REMARK 921   NORMALIZED FREE ENERGY PREDICTED BY IDOCK:   17.36 KCAL/MOL
REMARK 922        TOTAL FREE ENERGY PREDICTED BY IDOCK:   24.98 KCAL/MOL
REMARK 923 INTER-LIGAND FREE ENERGY PREDICTED BY IDOCK:   -6.17 KCAL/MOL
REMARK 924 INTRA-LIGAND FREE ENERGY PREDICTED BY IDOCK:   31.15 KCAL/MOL
REMARK 927      BINDING AFFINITY PREDICTED BY RF-SCORE:    0.00 PKD
ROOT
HETATM    1  C   UNL     1      -9.811   6.615  68.470  1.00  0.00    -0.139 C  
HETATM    2  O   UNL     1     -12.762  11.821  71.081  1.00  0.00    -0.378 OA 
HETATM    3  C   UNL     1     -10.122   5.365  69.341  1.00  0.00    -0.304 C  
HETATM    4  C   UNL     1     -12.334  11.614  69.944  1.00  0.00    -0.159 C  
HETATM    5  C   UNL     1     -10.040   5.709  70.825  1.00  0.00    -0.209 C  
HETATM    6  O   UNL     1      -8.703   6.179  71.071  1.00  0.00    -0.130 OA 
HETATM    7  C   UNL     1     -11.116   6.798  71.131  1.00  0.00    -0.313 C  
HETATM    8  C   UNL     1     -12.227  12.754  68.976  1.00  0.00    -0.041 A  
HETATM    9  C   UNL     1     -12.479  14.066  69.410  1.00  0.00    -0.108 A  
HETATM   10  C   UNL     1     -11.216   7.946  70.126  1.00  0.00    -0.157 A  
HETATM   11  C   UNL     1     -12.356  15.144  68.528  1.00  0.00     0.150 A  
HETATM   12  C   UNL     1     -12.013  14.924  67.196  1.00  0.00    -0.136 A  
HETATM   13  H   UNL     1     -10.054   7.749  66.362  1.00  0.00     0.000 HD 
HETATM   14  H   UNL     1      -8.651   6.393  71.995  1.00  0.00     0.000 HD 
HETATM   15  C   UNL     1     -11.789  13.622  66.736  1.00  0.00    -0.413 A  
HETATM   16  O   UNL     1     -10.432   8.587  66.603  1.00  0.00    -0.289 OA 
HETATM   17  C   UNL     1     -11.795   9.191  70.471  1.00  0.00    -0.095 A  
HETATM   18  C   UNL     1     -11.867  12.533  67.641  1.00  0.00    -0.381 A  
HETATM   19  O   UNL     1     -12.246   9.333  71.762  1.00  0.00    -0.341 OA 
HETATM   20  C   UNL     1     -11.869  10.267  69.546  1.00  0.00    -0.148 A  
HETATM   21  O   UNL     1     -11.377  10.841  66.049  1.00  0.00     0.101 OA 
HETATM   22  C   UNL     1     -10.729   7.781  68.815  1.00  0.00    -0.093 A  
HETATM   23  C   UNL     1     -10.897   8.821  67.876  1.00  0.00    -0.011 A  
HETATM   24  C   UNL     1     -11.570  11.142  67.226  1.00  0.00    -0.011 C  
HETATM   25  C   UNL     1     -11.457  10.060  68.233  1.00  0.00     0.009 A  
HETATM   26  H   UNL     1     -12.634  10.169  71.994  1.00  0.00     0.000 HD 
ENDROOT
BRANCH   1  27
HETATM   27  O   UNL     1      -8.524   7.234  68.641  1.00  0.00    -0.128 OA 
BRANCH  27  28
HETATM   28  C   UNL     1      -7.881   7.181  69.904  1.00  0.00    -0.113 C  
HETATM   29  O   UNL     1      -8.878   7.163  70.954  1.00  0.00    -0.148 OA 
HETATM   30  C   UNL     1     -10.633   8.301  72.227  1.00  0.00    -0.393 C  
HETATM   31  C   UNL     1      -8.544   9.498  71.538  1.00  0.00     0.792 C  
HETATM   32  O   UNL     1      -7.800   9.119  72.709  1.00  0.00    -0.105 OA 
HETATM   33  H   UNL     1      -8.385   9.026  73.452  1.00  0.00     0.000 HD 
HETATM   34  C   UNL     1      -7.601   9.650  70.338  1.00  0.00    -0.163 C  
HETATM   35  C   UNL     1      -9.554   8.414  71.152  1.00  0.00    -0.177 C  
HETATM   36  C   UNL     1      -6.874   8.328  70.084  1.00  0.00    -0.039 C  
BRANCH  34  37
HETATM   37  N   UNL     1      -6.695  10.782  70.512  1.00  0.00    -0.144 N  
HETATM   38  H   UNL     1      -5.892  10.706  71.135  1.00  0.00     0.000 HD 
HETATM   39  C   UNL     1      -5.986  13.138  70.139  1.00  0.00    -0.138 C  
HETATM   40  F   UNL     1      -5.208  13.480  69.078  1.00  0.00    -0.070 F  
HETATM   41  O   UNL     1      -7.871  12.066  69.018  1.00  0.00    -0.014 OA 
HETATM   42  F   UNL     1      -6.655  14.261  70.518  1.00  0.00    -0.163 F  
HETATM   43  F   UNL     1      -5.136  12.837  71.164  1.00  0.00    -0.109 F  
HETATM   44  C   UNL     1      -6.939  11.971  69.820  1.00  0.00     0.277 C  
ENDBRANCH  34  37
ENDBRANCH  27  28
ENDBRANCH   1  27
BRANCH   5  45
HETATM   45  C   UNL     1     -10.097   4.616  71.918  1.00  0.00    -0.198 C  
HETATM   46  O   UNL     1     -10.643   4.880  73.002  1.00  0.00    -0.192 OA 
BRANCH  45  47
HETATM   47  C   UNL     1      -9.247   3.345  71.830  1.00  0.00    -0.117 C  
BRANCH  47  48
HETATM   48  O   UNL     1      -7.841   3.462  71.964  1.00  0.00    -0.056 OA 
BRANCH  48  49
HETATM   49  C   UNL     1      -7.136   2.604  71.179  1.00  0.00    -0.033 C  
HETATM   50  O   UNL     1      -6.557   1.605  71.575  1.00  0.00    -0.018 OA 
BRANCH  49  51
HETATM   51  C   UNL     1      -7.207   3.045  69.739  1.00  0.00    -0.041 C  
BRANCH  51  52
HETATM   52  C   UNL     1      -7.527   1.876  68.810  1.00  0.00    -0.043 C  
BRANCH  52  53
HETATM   53  C   UNL     1      -8.953   1.950  68.258  1.00  0.00    -0.177 C  
HETATM   54  C   UNL     1      -8.990   2.487  66.840  1.00  0.00    -0.155 C  
ENDBRANCH  52  53
ENDBRANCH  51  52
ENDBRANCH  49  51
ENDBRANCH  48  49
ENDBRANCH  47  48
ENDBRANCH  45  47
ENDBRANCH   5  45
BRANCH  15  55
HETATM   55  O   UNL     1     -11.418  13.372  65.438  1.00  0.00    -0.298 OA 
HETATM   56  C   UNL     1     -10.362  14.160  64.895  1.00  0.00    -0.408 C  
ENDBRANCH  15  55
TORSDOF 11
ENDMDL
MODEL       99
REMARK 921   NORMALIZED FREE ENERGY PREDICTED BY IDOCK:   17.73 KCAL/MOL
REMARK 922        TOTAL FREE ENERGY PREDICTED BY IDOCK:   25.58 KCAL/MOL
REMARK 923 INTER-LIGAND FREE ENERGY PREDICTED BY IDOCK:    0.96 KCAL/MOL
REMARK 924 INTRA-LIGAND FREE ENERGY PREDICTED BY IDOCK:   24.62 KCAL/MOL
REMARK 927      BINDING AFFINITY PREDICTED BY RF-SCORE:    0.00 PKD
ROOT
HETATM    1  C   UNL     1      -6.088  11.484  68.190  1.00  0.00    -0.045 C  
HETATM    2  O   UNL     1     -10.370  15.017  64.754  1.00  0.00    -0.349 OA 
HETATM    3  C   UNL     1      -5.773  10.173  67.415  1.00  0.00    -0.042 C  
HETATM    4  C   UNL     1      -9.585  15.336  65.648  1.00  0.00    -0.278 C  
HETATM    5  C   UNL     1      -7.047   9.583  66.816  1.00  0.00    -0.086 C  
HETATM    6  O   UNL     1      -7.941   9.322  67.913  1.00  0.00    -0.099 OA 
HETATM    7  C   UNL     1      -7.634  10.618  65.807  1.00  0.00    -0.120 C  
HETATM    8  C   UNL     1      -9.697  16.691  66.281  1.00  0.00    -0.327 A  
HETATM    9  C   UNL     1     -10.775  17.529  65.953  1.00  0.00    -0.119 A  
HETATM   10  C   UNL     1      -7.660  12.074  66.275  1.00  0.00     0.473 A  
HETATM   11  C   UNL     1     -10.911  18.783  66.555  1.00  0.00    -0.193 A  
HETATM   12  C   UNL     1      -9.957  19.230  67.465  1.00  0.00    -0.460 A  
HETATM   13  H   UNL     1      -5.302  13.589  69.049  1.00  0.00     0.000 HD 
HETATM   14  H   UNL     1      -8.734   8.954  67.541  1.00  0.00     0.000 HD 
HETATM   15  C   UNL     1      -8.858  18.425  67.781  1.00  0.00    -0.278 A  
HETATM   16  O   UNL     1      -5.897  14.222  68.664  1.00  0.00    -0.079 OA 
HETATM   17  C   UNL     1      -8.532  13.028  65.696  1.00  0.00     1.763 A  
HETATM   18  C   UNL     1      -8.745  17.132  67.207  1.00  0.00    -0.213 A  
HETATM   19  O   UNL     1      -9.374  12.582  64.704  1.00  0.00    -0.323 OA 
HETATM   20  C   UNL     1      -8.575  14.375  66.145  1.00  0.00     0.580 A  
HETATM   21  O   UNL     1      -6.694  16.563  68.260  1.00  0.00    -0.131 OA 
HETATM   22  C   UNL     1      -6.802  12.500  67.307  1.00  0.00    -0.116 A  
HETATM   23  C   UNL     1      -6.782  13.861  67.676  1.00  0.00    -0.175 A  
HETATM   24  C   UNL     1      -7.642  16.209  67.561  1.00  0.00    -0.148 C  
HETATM   25  C   UNL     1      -7.664  14.797  67.108  1.00  0.00    -0.149 A  
HETATM   26  H   UNL     1      -9.959  13.222  64.316  1.00  0.00     0.000 HD 
ENDROOT
BRANCH   1  27
HETATM   27  O   UNL     1      -7.012  11.394  69.288  1.00  0.00    -0.111 OA 
BRANCH  27  28
HETATM   28  C   UNL     1      -8.256  12.073  69.218  1.00  0.00     0.585 C  
HETATM   29  O   UNL     1      -9.138  11.573  70.249  1.00  0.00     2.237 OA 
HETATM   30  C   UNL     1     -10.514   9.768  71.169  1.00  0.00    -0.149 C  
HETATM   31  C   UNL     1     -10.451  10.229  68.708  1.00  0.00    -0.203 C  
HETATM   32  O   UNL     1     -11.517  11.195  68.743  1.00  0.00    -0.246 OA 
HETATM   33  H   UNL     1     -12.129  10.981  69.437  1.00  0.00     0.000 HD 
HETATM   34  C   UNL     1      -9.461  10.573  67.587  1.00  0.00    -0.149 C  
HETATM   35  C   UNL     1      -9.645  10.252  70.010  1.00  0.00     0.060 C  
HETATM   36  C   UNL     1      -8.886  11.971  67.819  1.00  0.00    -0.165 C  
BRANCH  34  37
HETATM   37  N   UNL     1     -10.072  10.411  66.271  1.00  0.00    -0.224 N  
HETATM   38  H   UNL     1      -9.834   9.609  65.689  1.00  0.00     0.000 HD 
HETATM   39  C   UNL     1     -11.506  11.159  64.379  1.00  0.00     0.260 C  
HETATM   40  F   UNL     1     -12.833  10.868  64.342  1.00  0.00     1.156 F  
HETATM   41  O   UNL     1     -11.333  12.311  66.525  1.00  0.00    -0.311 OA 
HETATM   42  F   UNL     1     -11.320  12.261  63.602  1.00  0.00    -0.384 F  
HETATM   43  F   UNL     1     -10.864  10.134  63.746  1.00  0.00     0.347 F  
HETATM   44  C   UNL     1     -10.986  11.364  65.814  1.00  0.00    -0.194 C  
ENDBRANCH  34  37
ENDBRANCH  27  28
ENDBRANCH   1  27
BRANCH   5  45
HETATM   45  C   UNL     1      -7.067   8.176  66.173  1.00  0.00    -0.062 C  
HETATM   46  O   UNL     1      -7.986   7.890  65.388  1.00  0.00    -0.107 OA 
BRANCH  45  47
HETATM   47  C   UNL     1      -6.186   7.039  66.697  1.00  0.00    -0.042 C  
BRANCH  47  48
HETATM   48  O   UNL     1      -6.393   5.733  66.184  1.00  0.00    -0.036 OA 
BRANCH  48  49
HETATM   49  C   UNL     1      -6.733   5.702  64.868  1.00  0.00    -0.047 C  
HETATM   50  O   UNL     1      -5.974   5.946  63.942  1.00  0.00    -0.024 OA 
BRANCH  49  51
HETATM   51  C   UNL     1      -8.172   5.282  64.714  1.00  0.00    -0.130 C  
BRANCH  51  52
HETATM   52  C   UNL     1      -8.439   4.687  63.334  1.00  0.00    -0.117 C  
BRANCH  52  53
HETATM   53  C   UNL     1      -7.388   3.646  62.941  1.00  0.00    -0.050 C  
HETATM   54  C   UNL     1      -8.014   2.324  62.540  1.00  0.00    -0.063 C  
ENDBRANCH  52  53
ENDBRANCH  51  52
ENDBRANCH  49  51
ENDBRANCH  48  49
ENDBRANCH  47  48
ENDBRANCH  45  47
ENDBRANCH   5  45
BRANCH  15  55
HETATM   55  O   UNL     1      -7.916  18.821  68.698  1.00  0.00    -0.328 OA 
HETATM   56  C   UNL     1      -8.131  20.063  69.363  1.00  0.00     0.368 C  
ENDBRANCH  15  55
TORSDOF 11
ENDMDL
MODEL      100
REMARK 921   NORMALIZED FREE ENERGY PREDICTED BY IDOCK:   20.30 KCAL/MOL
REMARK 922        TOTAL FREE ENERGY PREDICTED BY IDOCK:   29.81 KCAL/MOL
REMARK 923 INTER-LIGAND FREE ENERGY PREDICTED BY IDOCK:   -6.81 KCAL/MOL
REMARK 924 INTRA-LIGAND FREE ENERGY PREDICTED BY IDOCK:   36.62 KCAL/MOL
REMARK 927      BINDING AFFINITY PREDICTED BY RF-SCORE:    0.00 PKD
ROOT
HETATM    1  C   UNL     1      -9.596   6.876  67.813  1.00  0.00    -0.122 C  
HETATM    2  O   UNL     1     -12.110  11.973  71.026  1.00  0.00    -0.245 OA 
HETATM    3  C   UNL     1      -9.711   5.606  68.705  1.00  0.00    -0.178 C  
HETATM    4  C   UNL     1     -11.900  11.791  69.826  1.00  0.00    -0.349 C  
HETATM    5  C   UNL     1      -9.358   5.932  70.153  1.00  0.00    -0.156 C  
HETATM    6  O   UNL     1      -8.008   6.430  70.152  1.00  0.00    -0.108 OA 
HETATM    7  C   UNL     1     -10.379   6.990  70.676  1.00  0.00    -0.223 C  
HETATM    8  C   UNL     1     -12.002  12.947  68.875  1.00  0.00    -0.291 A  
HETATM    9  C   UNL     1     -12.195  14.246  69.373  1.00  0.00    -0.319 A  
HETATM   10  C   UNL     1     -10.691   8.149  69.728  1.00  0.00    -0.229 A  
HETATM   11  C   UNL     1     -12.263  15.338  68.503  1.00  0.00     0.026 A  
HETATM   12  C   UNL     1     -12.173  15.145  67.127  1.00  0.00     0.417 A  
HETATM   13  H   UNL     1     -10.256   8.032  65.810  1.00  0.00     0.000 HD 
HETATM   14  H   UNL     1      -7.787   6.633  71.053  1.00  0.00     0.000 HD 
HETATM   15  C   UNL     1     -12.013  13.855  66.609  1.00  0.00    -0.442 A  
HETATM   16  O   UNL     1     -10.599   8.857  66.133  1.00  0.00     0.070 OA 
HETATM   17  C   UNL     1     -11.221   9.376  70.199  1.00  0.00    -0.219 A  
HETATM   18  C   UNL     1     -11.895  12.752  67.493  1.00  0.00    -0.402 A  
HETATM   19  O   UNL     1     -11.423   9.489  71.554  1.00  0.00    -0.368 OA 
HETATM   20  C   UNL     1     -11.490  10.461  69.323  1.00  0.00    -0.281 A  
HETATM   21  O   UNL     1     -11.679  11.095  65.807  1.00  0.00     0.061 OA 
HETATM   22  C   UNL     1     -10.456   8.014  68.346  1.00  0.00    -0.205 A  
HETATM   23  C   UNL     1     -10.820   9.062  67.475  1.00  0.00    -0.060 A  
HETATM   24  C   UNL     1     -11.653  11.375  67.005  1.00  0.00    -0.051 C  
HETATM   25  C   UNL     1     -11.329  10.283  67.953  1.00  0.00    -0.181 A  
HETATM   26  H   UNL     1     -11.778  10.312  71.870  1.00  0.00     0.000 HD 
ENDROOT
BRANCH   1  27
HETATM   27  O   UNL     1      -8.313   7.522  67.751  1.00  0.00    -0.118 OA 
BRANCH  27  28
HETATM   28  C   UNL     1      -7.494   7.573  68.908  1.00  0.00    -0.096 C  
HETATM   29  O   UNL     1      -8.326   7.527  70.091  1.00  0.00    -0.130 OA 
HETATM   30  C   UNL     1      -9.967   8.583  71.570  1.00  0.00    -0.314 C  
HETATM   31  C   UNL     1      -8.103   9.903  70.545  1.00  0.00     0.142 C  
HETATM   32  O   UNL     1      -7.171   9.633  71.606  1.00  0.00    -0.231 OA 
HETATM   33  H   UNL     1      -7.633   9.528  72.430  1.00  0.00     0.000 HD 
HETATM   34  C   UNL     1      -7.356  10.073  69.215  1.00  0.00    -0.091 C  
HETATM   35  C   UNL     1      -9.066   8.730  70.345  1.00  0.00    -0.176 C  
HETATM   36  C   UNL     1      -6.568   8.800  68.901  1.00  0.00    -0.053 C  
BRANCH  34  37
HETATM   37  N   UNL     1      -6.530  11.278  69.219  1.00  0.00    -0.078 N  
HETATM   38  H   UNL     1      -5.749  11.362  69.868  1.00  0.00     0.000 HD 
HETATM   39  C   UNL     1      -5.953  13.579  68.468  1.00  0.00    -0.090 C  
HETATM   40  F   UNL     1      -5.156  13.788  67.387  1.00  0.00    -0.020 F  
HETATM   41  O   UNL     1      -7.723  12.207  67.494  1.00  0.00    -0.137 OA 
HETATM   42  F   UNL     1      -6.706  14.702  68.630  1.00  0.00    -0.078 F  
HETATM   43  F   UNL     1      -5.128  13.514  69.553  1.00  0.00    -0.082 F  
HETATM   44  C   UNL     1      -6.819  12.313  68.327  1.00  0.00    -0.075 C  
ENDBRANCH  34  37
ENDBRANCH  27  28
ENDBRANCH   1  27
BRANCH   5  45
HETATM   45  C   UNL     1      -9.184   4.823  71.217  1.00  0.00    -0.142 C  
HETATM   46  O   UNL     1      -8.303   4.957  72.084  1.00  0.00    -0.118 OA 
BRANCH  45  47
HETATM   47  C   UNL     1      -9.837   3.447  71.061  1.00  0.00    -0.066 C  
BRANCH  47  48
HETATM   48  O   UNL     1     -10.697   2.987  72.089  1.00  0.00     0.124 OA 
BRANCH  48  49
HETATM   49  C   UNL     1     -10.056   2.656  73.241  1.00  0.00    -0.116 C  
HETATM   50  O   UNL     1     -10.543   2.726  74.359  1.00  0.00    -0.159 OA 
BRANCH  49  51
HETATM   51  C   UNL     1      -8.670   2.150  72.935  1.00  0.00    -0.068 C  
BRANCH  51  52
HETATM   52  C   UNL     1      -7.760   2.230  74.159  1.00  0.00    -0.045 C  
BRANCH  52  53
HETATM   53  C   UNL     1      -6.280   2.114  73.786  1.00  0.00    -0.012 C  
HETATM   54  C   UNL     1      -5.482   3.326  74.231  1.00  0.00     0.000 C  
ENDBRANCH  52  53
ENDBRANCH  51  52
ENDBRANCH  49  51
ENDBRANCH  48  49
ENDBRANCH  47  48
ENDBRANCH  45  47
ENDBRANCH   5  45
BRANCH  15  55
HETATM   55  O   UNL     1     -11.888  13.633  65.260  1.00  0.00    -0.324 OA 
HETATM   56  C   UNL     1     -10.685  14.066  64.633  1.00  0.00    -0.399 C  
ENDBRANCH  15  55
TORSDOF 11
ENDMDL
MODEL      101
REMARK 921   NORMALIZED FREE ENERGY PREDICTED BY IDOCK:   21.05 KCAL/MOL
REMARK 922        TOTAL FREE ENERGY PREDICTED BY IDOCK:   31.04 KCAL/MOL
REMARK 923 INTER-LIGAND FREE ENERGY PREDICTED BY IDOCK:    2.56 KCAL/MOL
REMARK 924 INTRA-LIGAND FREE ENERGY PREDICTED BY IDOCK:   28.48 KCAL/MOL
REMARK 927      BINDING AFFINITY PREDICTED BY RF-SCORE:    0.00 PKD
ROOT
HETATM    1  C   UNL     1      -9.158  14.392  68.886  1.00  0.00    -0.069 C  
HETATM    2  O   UNL     1     -10.077  11.532  63.090  1.00  0.00    -0.363 OA 
HETATM    3  C   UNL     1      -9.879  15.771  68.892  1.00  0.00    -0.224 C  
HETATM    4  C   UNL     1      -9.760  11.066  64.185  1.00  0.00    -0.285 C  
HETATM    5  C   UNL     1      -9.667  16.495  67.566  1.00  0.00    -0.242 C  
HETATM    6  O   UNL     1      -8.248  16.665  67.405  1.00  0.00    -0.164 OA 
HETATM    7  C   UNL     1     -10.291  15.622  66.432  1.00  0.00    -0.303 C  
HETATM    8  C   UNL     1      -9.270   9.651  64.272  1.00  0.00    -0.235 A  
HETATM    9  C   UNL     1      -9.043   8.916  63.097  1.00  0.00     0.397 A  
HETATM   10  C   UNL     1      -9.994  14.123  66.495  1.00  0.00    -0.289 A  
HETATM   11  C   UNL     1      -8.560   7.606  63.159  1.00  0.00     0.373 A  
HETATM   12  C   UNL     1      -8.328   7.002  64.392  1.00  0.00     0.119 A  
HETATM   13  H   UNL     1      -9.009  12.161  69.771  1.00  0.00     0.000 HD 
HETATM   14  H   UNL     1      -8.116  17.116  66.579  1.00  0.00     0.000 HD 
HETATM   15  C   UNL     1      -8.578   7.706  65.575  1.00  0.00    -0.092 A  
HETATM   16  O   UNL     1      -9.069  11.611  68.998  1.00  0.00     0.010 OA 
HETATM   17  C   UNL     1     -10.097  13.293  65.352  1.00  0.00    -0.253 A  
HETATM   18  C   UNL     1      -9.023   9.051  65.513  1.00  0.00    -0.252 A  
HETATM   19  O   UNL     1     -10.457  13.900  64.172  1.00  0.00    -0.555 OA 
HETATM   20  C   UNL     1      -9.799  11.906  65.403  1.00  0.00    -0.258 A  
HETATM   21  O   UNL     1      -9.171   9.381  67.860  1.00  0.00    -0.130 OA 
HETATM   22  C   UNL     1      -9.607  13.531  67.712  1.00  0.00    -0.219 A  
HETATM   23  C   UNL     1      -9.410  12.135  67.774  1.00  0.00    -0.193 A  
HETATM   24  C   UNL     1      -9.235   9.867  66.731  1.00  0.00    -0.148 C  
HETATM   25  C   UNL     1      -9.498  11.322  66.630  1.00  0.00    -0.204 A  
HETATM   26  H   UNL     1     -10.527  13.343  63.405  1.00  0.00     0.000 HD 
ENDROOT
BRANCH   1  27
HETATM   27  O   UNL     1      -7.734  14.394  68.682  1.00  0.00    -0.127 OA 
BRANCH  27  28
HETATM   28  C   UNL     1      -6.900  13.633  69.539  1.00  0.00     0.027 C  
HETATM   29  O   UNL     1      -5.875  12.976  68.758  1.00  0.00    -0.069 OA 
HETATM   30  C   UNL     1      -5.224  11.283  67.112  1.00  0.00    -0.063 C  
HETATM   31  C   UNL     1      -6.960  10.804  68.851  1.00  0.00    -0.077 C  
HETATM   32  O   UNL     1      -6.016  10.352  69.838  1.00  0.00    -0.046 OA 
HETATM   33  H   UNL     1      -5.267   9.950  69.414  1.00  0.00     0.000 HD 
HETATM   34  C   UNL     1      -8.170  11.453  69.535  1.00  0.00     0.570 C  
HETATM   35  C   UNL     1      -6.347  11.884  67.956  1.00  0.00    -0.055 C  
HETATM   36  C   UNL     1      -7.707  12.636  70.388  1.00  0.00     3.634 C  
BRANCH  34  37
HETATM   37  N   UNL     1      -8.948  10.471  70.285  1.00  0.00     0.082 N  
HETATM   38  H   UNL     1      -9.966  10.521  70.294  1.00  0.00     0.000 HD 
HETATM   39  C   UNL     1      -9.184   8.530  71.824  1.00  0.00    -0.246 C  
HETATM   40  F   UNL     1      -9.191   7.255  71.355  1.00  0.00    -0.142 F  
HETATM   41  O   UNL     1      -7.060   9.348  70.944  1.00  0.00    -0.129 OA 
HETATM   42  F   UNL     1      -8.794   8.471  73.127  1.00  0.00    -0.292 F  
HETATM   43  F   UNL     1     -10.484   8.948  71.835  1.00  0.00    -0.339 F  
HETATM   44  C   UNL     1      -8.287   9.462  70.990  1.00  0.00     0.034 C  
ENDBRANCH  34  37
ENDBRANCH  27  28
ENDBRANCH   1  27
BRANCH   5  45
HETATM   45  C   UNL     1     -10.092  17.969  67.366  1.00  0.00    -0.349 C  
HETATM   46  O   UNL     1      -9.987  18.757  68.322  1.00  0.00    -0.345 OA 
BRANCH  45  47
HETATM   47  C   UNL     1     -10.911  18.414  66.152  1.00  0.00     0.248 C  
BRANCH  47  48
HETATM   48  O   UNL     1     -11.345  19.762  66.087  1.00  0.00     0.030 OA 
BRANCH  48  49
HETATM   49  C   UNL     1     -10.924  20.530  67.127  1.00  0.00     1.012 C  
HETATM   50  O   UNL     1     -11.409  20.520  68.248  1.00  0.00     1.027 OA 
BRANCH  49  51
HETATM   51  C   UNL     1      -9.745  21.369  66.706  1.00  0.00     1.199 C  
BRANCH  51  52
HETATM   52  C   UNL     1      -8.502  20.514  66.474  1.00  0.00    -0.092 C  
BRANCH  52  53
HETATM   53  C   UNL     1      -8.758  19.383  65.475  1.00  0.00     0.680 C  
HETATM   54  C   UNL     1      -7.784  18.233  65.650  1.00  0.00     0.158 C  
ENDBRANCH  52  53
ENDBRANCH  51  52
ENDBRANCH  49  51
ENDBRANCH  48  49
ENDBRANCH  47  48
ENDBRANCH  45  47
ENDBRANCH   5  45
BRANCH  15  55
HETATM   55  O   UNL     1      -8.330   7.152  66.807  1.00  0.00    -0.111 OA 
HETATM   56  C   UNL     1      -7.047   7.381  67.382  1.00  0.00    -0.085 C  
ENDBRANCH  15  55
TORSDOF 11
ENDMDL
MODEL      102
REMARK 921   NORMALIZED FREE ENERGY PREDICTED BY IDOCK:   23.07 KCAL/MOL
REMARK 922        TOTAL FREE ENERGY PREDICTED BY IDOCK:   34.35 KCAL/MOL
REMARK 923 INTER-LIGAND FREE ENERGY PREDICTED BY IDOCK:    9.08 KCAL/MOL
REMARK 924 INTRA-LIGAND FREE ENERGY PREDICTED BY IDOCK:   25.27 KCAL/MOL
REMARK 927      BINDING AFFINITY PREDICTED BY RF-SCORE:    0.00 PKD
ROOT
HETATM    1  C   UNL     1      -8.427  11.677  66.557  1.00  0.00    -0.141 C  
HETATM    2  O   UNL     1     -12.639  14.580  70.615  1.00  0.00    -0.320 OA 
HETATM    3  C   UNL     1      -9.104  10.422  65.936  1.00  0.00    -0.192 C  
HETATM    4  C   UNL     1     -11.630  15.005  70.049  1.00  0.00    -0.287 C  
HETATM    5  C   UNL     1      -9.899   9.660  66.992  1.00  0.00    -0.195 C  
HETATM    6  O   UNL     1      -8.968   9.278  68.021  1.00  0.00    -0.128 OA 
HETATM    7  C   UNL     1     -11.020  10.604  67.529  1.00  0.00    -0.371 C  
HETATM    8  C   UNL     1     -11.060  16.332  70.453  1.00  0.00    -0.322 A  
HETATM    9  C   UNL     1     -11.591  17.012  71.562  1.00  0.00     0.869 A  
HETATM   10  C   UNL     1     -10.600  12.042  67.836  1.00  0.00    -0.227 A  
HETATM   11  C   UNL     1     -11.052  18.236  71.971  1.00  0.00     3.220 A  
HETATM   12  C   UNL     1     -10.002  18.811  71.261  1.00  0.00     3.587 A  
HETATM   13  H   UNL     1      -7.498  13.871  66.228  1.00  0.00     0.000 HD 
HETATM   14  H   UNL     1      -9.462   8.804  68.678  1.00  0.00     0.000 HD 
HETATM   15  C   UNL     1      -9.480  18.166  70.134  1.00  0.00     1.898 A  
HETATM   16  O   UNL     1      -7.995  14.415  66.828  1.00  0.00     0.013 OA 
HETATM   17  C   UNL     1     -11.344  12.866  68.715  1.00  0.00    -0.290 A  
HETATM   18  C   UNL     1      -9.994  16.902  69.747  1.00  0.00     0.237 A  
HETATM   19  O   UNL     1     -12.455  12.308  69.302  1.00  0.00     0.024 OA 
HETATM   20  C   UNL     1     -10.943  14.194  69.020  1.00  0.00    -0.286 A  
HETATM   21  O   UNL     1      -8.588  16.623  67.854  1.00  0.00    -0.190 OA 
HETATM   22  C   UNL     1      -9.446  12.583  67.238  1.00  0.00    -0.193 A  
HETATM   23  C   UNL     1      -9.112  13.935  67.469  1.00  0.00    -0.201 A  
HETATM   24  C   UNL     1      -9.432  16.140  68.608  1.00  0.00    -0.227 C  
HETATM   25  C   UNL     1      -9.848  14.739  68.357  1.00  0.00    -0.220 A  
HETATM   26  H   UNL     1     -12.955  12.860  69.892  1.00  0.00     0.000 HD 
ENDROOT
BRANCH   1  27
HETATM   27  O   UNL     1      -7.504  11.461  67.638  1.00  0.00    -0.095 OA 
BRANCH  27  28
HETATM   28  C   UNL     1      -6.289  12.191  67.683  1.00  0.00    -0.109 C  
HETATM   29  O   UNL     1      -5.772  12.188  69.034  1.00  0.00    -0.058 OA 
HETATM   30  C   UNL     1      -5.942  12.906  71.369  1.00  0.00     0.662 C  
HETATM   31  C   UNL     1      -6.478  14.469  69.487  1.00  0.00    -0.134 C  
HETATM   32  O   UNL     1      -5.126  14.938  69.336  1.00  0.00    -0.089 OA 
HETATM   33  H   UNL     1      -4.678  14.920  70.174  1.00  0.00     0.000 HD 
HETATM   34  C   UNL     1      -7.202  14.499  68.135  1.00  0.00    -0.130 C  
HETATM   35  C   UNL     1      -6.506  13.011  69.953  1.00  0.00     0.043 C  
HETATM   36  C   UNL     1      -6.457  13.617  67.131  1.00  0.00     0.534 C  
BRANCH  34  37
HETATM   37  N   UNL     1      -7.397  15.868  67.666  1.00  0.00    -0.143 N  
HETATM   38  H   UNL     1      -8.179  16.423  68.012  1.00  0.00     0.000 HD 
HETATM   39  C   UNL     1      -6.844  17.826  66.233  1.00  0.00    -0.272 C  
HETATM   40  F   UNL     1      -5.932  18.753  66.629  1.00  0.00    -0.160 F  
HETATM   41  O   UNL     1      -5.520  15.779  66.351  1.00  0.00     0.704 OA 
HETATM   42  F   UNL     1      -6.907  17.886  64.875  1.00  0.00     0.138 F  
HETATM   43  F   UNL     1      -8.057  18.253  66.690  1.00  0.00    -0.232 F  
HETATM   44  C   UNL     1      -6.505  16.412  66.738  1.00  0.00    -0.016 C  
ENDBRANCH  34  37
ENDBRANCH  27  28
ENDBRANCH   1  27
BRANCH   5  45
HETATM   45  C   UNL     1     -10.501   8.264  66.708  1.00  0.00    -0.243 C  
HETATM   46  O   UNL     1     -10.378   7.780  65.570  1.00  0.00     1.539 OA 
BRANCH  45  47
HETATM   47  C   UNL     1     -11.492   7.603  67.669  1.00  0.00     1.036 C  
BRANCH  47  48
HETATM   48  O   UNL     1     -11.283   7.754  69.063  1.00  0.00     0.116 OA 
BRANCH  48  49
HETATM   49  C   UNL     1     -10.211   7.067  69.540  1.00  0.00    -0.199 C  
HETATM   50  O   UNL     1      -9.786   6.020  69.077  1.00  0.00    -0.138 OA 
BRANCH  49  51
HETATM   51  C   UNL     1      -9.597   7.808  70.701  1.00  0.00    -0.166 C  
BRANCH  51  52
HETATM   52  C   UNL     1      -9.176   6.854  71.816  1.00  0.00    -0.143 C  
BRANCH  52  53
HETATM   53  C   UNL     1      -7.820   7.231  72.417  1.00  0.00    -0.102 C  
HETATM   54  C   UNL     1      -6.661   6.743  71.568  1.00  0.00    -0.061 C  
ENDBRANCH  52  53
ENDBRANCH  51  52
ENDBRANCH  49  51
ENDBRANCH  48  49
ENDBRANCH  47  48
ENDBRANCH  45  47
ENDBRANCH   5  45
BRANCH  15  55
HETATM   55  O   UNL     1      -8.425  18.690  69.430  1.00  0.00     0.112 OA 
HETATM   56  C   UNL     1      -7.444  19.419  70.164  1.00  0.00     0.631 C  
ENDBRANCH  15  55
TORSDOF 11
ENDMDL
MODEL      103
REMARK 921   NORMALIZED FREE ENERGY PREDICTED BY IDOCK:   23.12 KCAL/MOL
REMARK 922        TOTAL FREE ENERGY PREDICTED BY IDOCK:   34.44 KCAL/MOL
REMARK 923 INTER-LIGAND FREE ENERGY PREDICTED BY IDOCK:   -0.81 KCAL/MOL
REMARK 924 INTRA-LIGAND FREE ENERGY PREDICTED BY IDOCK:   35.26 KCAL/MOL
REMARK 927      BINDING AFFINITY PREDICTED BY RF-SCORE:    0.00 PKD
ROOT
HETATM    1  C   UNL     1     -10.454  13.054  64.810  1.00  0.00    -0.363 C  
HETATM    2  O   UNL     1      -5.557  10.642  68.392  1.00  0.00    -0.041 OA 
HETATM    3  C   UNL     1     -10.314  14.601  64.735  1.00  0.00    -0.286 C  
HETATM    4  C   UNL     1      -6.297  10.110  67.562  1.00  0.00    -0.059 C  
HETATM    5  C   UNL     1      -9.918  15.172  66.093  1.00  0.00    -0.295 C  
HETATM    6  O   UNL     1     -10.955  14.801  67.020  1.00  0.00    -0.308 OA 
HETATM    7  C   UNL     1      -8.531  14.575  66.486  1.00  0.00     0.130 C  
HETATM    8  C   UNL     1      -6.304   8.616  67.430  1.00  0.00    -0.057 A  
HETATM    9  C   UNL     1      -5.580   7.830  68.341  1.00  0.00    -0.028 A  
HETATM   10  C   UNL     1      -8.354  13.074  66.252  1.00  0.00     0.688 A  
HETATM   11  C   UNL     1      -5.599   6.435  68.250  1.00  0.00    -0.008 A  
HETATM   12  C   UNL     1      -6.313   5.809  67.231  1.00  0.00    -0.042 A  
HETATM   13  H   UNL     1     -10.425  10.941  63.660  1.00  0.00     0.000 HD 
HETATM   14  H   UNL     1     -10.709  15.157  67.866  1.00  0.00     0.000 HD 
HETATM   15  C   UNL     1      -7.015   6.574  66.294  1.00  0.00    -0.066 A  
HETATM   16  O   UNL     1      -9.771  10.440  64.133  1.00  0.00    -0.297 OA 
HETATM   17  C   UNL     1      -7.370  12.322  66.939  1.00  0.00     0.033 A  
HETATM   18  C   UNL     1      -7.035   7.988  66.414  1.00  0.00    -0.070 A  
HETATM   19  O   UNL     1      -6.590  12.999  67.847  1.00  0.00    -0.098 OA 
HETATM   20  C   UNL     1      -7.219  10.924  66.740  1.00  0.00    -0.134 A  
HETATM   21  O   UNL     1      -8.379   8.388  64.498  1.00  0.00    -0.166 OA 
HETATM   22  C   UNL     1      -9.180  12.401  65.331  1.00  0.00     0.288 A  
HETATM   23  C   UNL     1      -8.956  11.032  65.068  1.00  0.00    -0.123 A  
HETATM   24  C   UNL     1      -7.819   8.844  65.494  1.00  0.00    -0.100 C  
HETATM   25  C   UNL     1      -7.987  10.291  65.768  1.00  0.00    -0.144 A  
HETATM   26  H   UNL     1      -5.929  12.495  68.308  1.00  0.00     0.000 HD 
ENDROOT
BRANCH   1  27
HETATM   27  O   UNL     1     -11.419  12.524  65.736  1.00  0.00    -0.328 OA 
BRANCH  27  28
HETATM   28  C   UNL     1     -11.775  13.274  66.885  1.00  0.00    -0.388 C  
HETATM   29  O   UNL     1     -10.624  14.014  67.356  1.00  0.00    -0.274 OA 
HETATM   30  C   UNL     1      -8.404  14.046  68.390  1.00  0.00    -0.162 C  
HETATM   31  C   UNL     1     -10.193  12.493  69.203  1.00  0.00     0.253 C  
HETATM   32  O   UNL     1     -10.752  13.436  70.135  1.00  0.00     0.039 OA 
HETATM   33  H   UNL     1     -10.072  14.013  70.463  1.00  0.00     0.000 HD 
HETATM   34  C   UNL     1     -11.290  11.561  68.672  1.00  0.00    -0.269 C  
HETATM   35  C   UNL     1      -9.613  13.207  67.978  1.00  0.00    -0.220 C  
HETATM   36  C   UNL     1     -12.380  12.385  67.985  1.00  0.00     0.462 C  
BRANCH  34  37
HETATM   37  N   UNL     1     -11.804  10.690  69.727  1.00  0.00    -0.335 N  
HETATM   38  H   UNL     1     -11.682   9.680  69.663  1.00  0.00     0.000 HD 
HETATM   39  C   UNL     1     -13.050  10.252  71.835  1.00  0.00    -0.463 C  
HETATM   40  F   UNL     1     -12.433  10.311  73.044  1.00  0.00     0.668 F  
HETATM   41  O   UNL     1     -12.570  12.474  70.948  1.00  0.00    -0.334 OA 
HETATM   42  F   UNL     1     -14.377  10.462  72.056  1.00  0.00     0.144 F  
HETATM   43  F   UNL     1     -12.936   8.962  71.402  1.00  0.00    -0.319 F  
HETATM   44  C   UNL     1     -12.463  11.252  70.823  1.00  0.00    -0.376 C  
ENDBRANCH  34  37
ENDBRANCH  27  28
ENDBRANCH   1  27
BRANCH   5  45
HETATM   45  C   UNL     1      -9.913  16.695  66.365  1.00  0.00    -0.302 C  
HETATM   46  O   UNL     1     -10.991  17.312  66.339  1.00  0.00    -0.016 OA 
BRANCH  45  47
HETATM   47  C   UNL     1      -8.616  17.509  66.359  1.00  0.00    -0.240 C  
BRANCH  47  48
HETATM   48  O   UNL     1      -7.872  17.603  67.561  1.00  0.00    -0.198 OA 
BRANCH  48  49
HETATM   49  C   UNL     1      -8.550  18.181  68.589  1.00  0.00    -0.267 C  
HETATM   50  O   UNL     1      -8.035  18.644  69.595  1.00  0.00     0.314 OA 
BRANCH  49  51
HETATM   51  C   UNL     1     -10.026  18.203  68.288  1.00  0.00    -0.380 C  
BRANCH  51  52
HETATM   52  C   UNL     1     -10.663  19.529  68.696  1.00  0.00     0.183 C  
BRANCH  52  53
HETATM   53  C   UNL     1      -9.863  20.240  69.790  1.00  0.00     0.371 C  
HETATM   54  C   UNL     1     -10.761  20.886  70.828  1.00  0.00     3.351 C  
ENDBRANCH  52  53
ENDBRANCH  51  52
ENDBRANCH  49  51
ENDBRANCH  48  49
ENDBRANCH  47  48
ENDBRANCH  45  47
ENDBRANCH   5  45
BRANCH  15  55
HETATM   55  O   UNL     1      -7.754   5.989  65.297  1.00  0.00    -0.083 OA 
HETATM   56  C   UNL     1      -7.995   4.588  65.396  1.00  0.00    -0.098 C  
ENDBRANCH  15  55
TORSDOF 11
ENDMDL
MODEL      104
REMARK 921   NORMALIZED FREE ENERGY PREDICTED BY IDOCK:   24.09 KCAL/MOL
REMARK 922        TOTAL FREE ENERGY PREDICTED BY IDOCK:   36.03 KCAL/MOL
REMARK 923 INTER-LIGAND FREE ENERGY PREDICTED BY IDOCK:    9.96 KCAL/MOL
REMARK 924 INTRA-LIGAND FREE ENERGY PREDICTED BY IDOCK:   26.07 KCAL/MOL
REMARK 927      BINDING AFFINITY PREDICTED BY RF-SCORE:    0.00 PKD
ROOT
HETATM    1  C   UNL     1      -9.709   9.786  71.615  1.00  0.00     1.322 C  
HETATM    2  O   UNL     1      -7.274   6.081  66.822  1.00  0.00    -0.068 OA 
HETATM    3  C   UNL     1     -10.202   8.866  72.768  1.00  0.00     0.483 C  
HETATM    4  C   UNL     1      -7.109   7.272  67.094  1.00  0.00    -0.087 C  
HETATM    5  C   UNL     1     -10.930   7.646  72.209  1.00  0.00    -0.279 C  
HETATM    6  O   UNL     1     -12.042   8.139  71.442  1.00  0.00    -0.289 OA 
HETATM    7  C   UNL     1      -9.920   6.837  71.336  1.00  0.00    -0.191 C  
HETATM    8  C   UNL     1      -6.426   8.167  66.103  1.00  0.00    -0.046 A  
HETATM    9  C   UNL     1      -6.107   7.680  64.825  1.00  0.00    -0.038 A  
HETATM   10  C   UNL     1      -9.044   7.656  70.387  1.00  0.00    -0.152 A  
HETATM   11  C   UNL     1      -5.496   8.510  63.880  1.00  0.00    -0.061 A  
HETATM   12  C   UNL     1      -5.166   9.823  64.209  1.00  0.00    -0.066 A  
HETATM   13  H   UNL     1      -8.166  11.471  70.863  1.00  0.00     0.000 HD 
HETATM   14  H   UNL     1     -12.496   7.380  71.094  1.00  0.00     0.000 HD 
HETATM   15  C   UNL     1      -5.446  10.317  65.487  1.00  0.00    -0.083 A  
HETATM   16  O   UNL     1      -7.764  11.078  70.098  1.00  0.00     0.267 OA 
HETATM   17  C   UNL     1      -8.427   7.074  69.253  1.00  0.00    -0.133 A  
HETATM   18  C   UNL     1      -6.109   9.491  66.430  1.00  0.00    -0.060 A  
HETATM   19  O   UNL     1      -8.667   5.739  69.028  1.00  0.00    -0.112 OA 
HETATM   20  C   UNL     1      -7.632   7.838  68.357  1.00  0.00    -0.109 A  
HETATM   21  O   UNL     1      -6.138  11.085  68.190  1.00  0.00    -0.049 OA 
HETATM   22  C   UNL     1      -8.831   9.026  70.629  1.00  0.00    -0.259 A  
HETATM   23  C   UNL     1      -7.960   9.752  69.789  1.00  0.00    -0.164 A  
HETATM   24  C   UNL     1      -6.495   9.983  67.773  1.00  0.00    -0.066 C  
HETATM   25  C   UNL     1      -7.365   9.170  68.655  1.00  0.00    -0.076 A  
HETATM   26  H   UNL     1      -8.253   5.349  68.267  1.00  0.00     0.000 HD 
ENDROOT
BRANCH   1  27
HETATM   27  O   UNL     1     -10.706  10.318  70.725  1.00  0.00    -0.220 OA 
BRANCH  27  28
HETATM   28  C   UNL     1     -11.545   9.434  70.001  1.00  0.00    -0.009 C  
HETATM   29  O   UNL     1     -10.734   8.468  69.291  1.00  0.00    -0.213 OA 
HETATM   30  C   UNL     1      -9.143   7.944  67.505  1.00  0.00    -0.141 C  
HETATM   31  C   UNL     1     -11.018   9.562  67.140  1.00  0.00     0.051 C  
HETATM   32  O   UNL     1     -11.962   8.557  66.731  1.00  0.00     3.189 OA 
HETATM   33  H   UNL     1     -11.512   7.842  66.298  1.00  0.00     0.000 HD 
HETATM   34  C   UNL     1     -11.745  10.718  67.839  1.00  0.00     0.027 C  
HETATM   35  C   UNL     1     -10.026   9.003  68.163  1.00  0.00    -0.175 C  
HETATM   36  C   UNL     1     -12.499  10.189  69.061  1.00  0.00     1.114 C  
BRANCH  34  37
HETATM   37  N   UNL     1     -12.598  11.452  66.907  1.00  0.00     2.568 N  
HETATM   38  H   UNL     1     -13.575  11.187  66.789  1.00  0.00     0.000 HD 
HETATM   39  C   UNL     1     -13.011  13.170  65.156  1.00  0.00    -0.128 C  
HETATM   40  F   UNL     1     -13.335  14.449  65.485  1.00  0.00    -0.470 F  
HETATM   41  O   UNL     1     -10.901  12.892  66.351  1.00  0.00    -0.270 OA 
HETATM   42  F   UNL     1     -12.473  13.207  63.906  1.00  0.00    -0.439 F  
HETATM   43  F   UNL     1     -14.188  12.487  65.044  1.00  0.00     1.653 F  
HETATM   44  C   UNL     1     -12.064  12.519  66.180  1.00  0.00    -0.286 C  
ENDBRANCH  34  37
ENDBRANCH  27  28
ENDBRANCH   1  27
BRANCH   5  45
HETATM   45  C   UNL     1     -11.706   6.671  73.126  1.00  0.00     0.430 C  
HETATM   46  O   UNL     1     -11.841   6.958  74.327  1.00  0.00     2.482 OA 
BRANCH  45  47
HETATM   47  C   UNL     1     -12.040   5.244  72.684  1.00  0.00     0.156 C  
BRANCH  47  48
HETATM   48  O   UNL     1     -10.984   4.409  72.242  1.00  0.00    -0.006 OA 
BRANCH  48  49
HETATM   49  C   UNL     1     -10.519   3.553  73.190  1.00  0.00    -0.172 C  
HETATM   50  O   UNL     1     -11.163   3.149  74.146  1.00  0.00    -0.076 OA 
BRANCH  49  51
HETATM   51  C   UNL     1      -9.104   3.144  72.869  1.00  0.00    -0.109 C  
BRANCH  51  52
HETATM   52  C   UNL     1      -9.060   2.115  71.742  1.00  0.00    -0.143 C  
BRANCH  52  53
HETATM   53  C   UNL     1      -8.799   2.762  70.380  1.00  0.00    -0.146 C  
HETATM   54  C   UNL     1      -9.090   1.815  69.231  1.00  0.00    -0.160 C  
ENDBRANCH  52  53
ENDBRANCH  51  52
ENDBRANCH  49  51
ENDBRANCH  48  49
ENDBRANCH  47  48
ENDBRANCH  45  47
ENDBRANCH   5  45
BRANCH  15  55
HETATM   55  O   UNL     1      -5.163  11.614  65.834  1.00  0.00    -0.298 OA 
HETATM   56  C   UNL     1      -6.263  12.463  66.151  1.00  0.00     2.072 C  
ENDBRANCH  15  55
TORSDOF 11
ENDMDL
MODEL      105
REMARK 921   NORMALIZED FREE ENERGY PREDICTED BY IDOCK:   24.36 KCAL/MOL
REMARK 922        TOTAL FREE ENERGY PREDICTED BY IDOCK:   36.48 KCAL/MOL
REMARK 923 INTER-LIGAND FREE ENERGY PREDICTED BY IDOCK:    4.14 KCAL/MOL
REMARK 924 INTRA-LIGAND FREE ENERGY PREDICTED BY IDOCK:   32.34 KCAL/MOL
REMARK 927      BINDING AFFINITY PREDICTED BY RF-SCORE:    0.00 PKD
ROOT
HETATM    1  C   UNL     1     -12.093  12.648  67.376  1.00  0.00    -0.111 C  
HETATM    2  O   UNL     1      -8.828   9.492  62.685  1.00  0.00    -0.221 OA 
HETATM    3  C   UNL     1     -13.128  13.605  66.718  1.00  0.00     1.478 C  
HETATM    4  C   UNL     1      -8.992   9.232  63.878  1.00  0.00    -0.050 C  
HETATM    5  C   UNL     1     -12.517  14.312  65.512  1.00  0.00    -0.422 C  
HETATM    6  O   UNL     1     -11.378  15.048  65.992  1.00  0.00    -0.338 OA 
HETATM    7  C   UNL     1     -12.120  13.226  64.463  1.00  0.00    -0.461 C  
HETATM    8  C   UNL     1      -8.174   8.148  64.517  1.00  0.00    -0.118 A  
HETATM    9  C   UNL     1      -7.136   7.538  63.794  1.00  0.00    -0.070 A  
HETATM   10  C   UNL     1     -11.412  11.987  65.012  1.00  0.00    -0.343 A  
HETATM   11  C   UNL     1      -6.345   6.547  64.384  1.00  0.00    -0.037 A  
HETATM   12  C   UNL     1      -6.601   6.130  65.688  1.00  0.00    -0.047 A  
HETATM   13  H   UNL     1     -11.682  10.705  68.731  1.00  0.00     0.000 HD 
HETATM   14  H   UNL     1     -10.997  15.489  65.242  1.00  0.00     0.000 HD 
HETATM   15  C   UNL     1      -7.651   6.702  66.413  1.00  0.00    -0.090 A  
HETATM   16  O   UNL     1     -11.140  10.157  68.175  1.00  0.00    -0.266 OA 
HETATM   17  C   UNL     1     -10.617  11.155  64.186  1.00  0.00    -0.368 A  
HETATM   18  C   UNL     1      -8.423   7.742  65.833  1.00  0.00    -0.151 A  
HETATM   19  O   UNL     1     -10.490  11.523  62.868  1.00  0.00    -0.639 OA 
HETATM   20  C   UNL     1      -9.940  10.016  64.699  1.00  0.00    -0.206 A  
HETATM   21  O   UNL     1      -9.873   8.051  67.688  1.00  0.00    -0.151 OA 
HETATM   22  C   UNL     1     -11.543  11.644  66.371  1.00  0.00    -0.140 A  
HETATM   23  C   UNL     1     -10.947  10.456  66.848  1.00  0.00    -0.097 A  
HETATM   24  C   UNL     1      -9.500   8.433  66.580  1.00  0.00    -0.220 C  
HETATM   25  C   UNL     1     -10.145   9.646  66.024  1.00  0.00    -0.318 A  
HETATM   26  H   UNL     1      -9.957  10.964  62.314  1.00  0.00     0.000 HD 
ENDROOT
BRANCH   1  27
HETATM   27  O   UNL     1     -10.872  13.232  67.861  1.00  0.00    -0.234 OA 
BRANCH  27  28
HETATM   28  C   UNL     1      -9.875  13.644  66.941  1.00  0.00    -0.261 C  
HETATM   29  O   UNL     1      -8.608  13.042  67.298  1.00  0.00    -0.190 OA 
HETATM   30  C   UNL     1      -6.703  12.866  68.826  1.00  0.00    -0.093 C  
HETATM   31  C   UNL     1      -7.722  15.085  68.271  1.00  0.00    -0.111 C  
HETATM   32  O   UNL     1      -6.901  15.304  67.111  1.00  0.00    -0.254 OA 
HETATM   33  H   UNL     1      -6.053  14.892  67.227  1.00  0.00     0.000 HD 
HETATM   34  C   UNL     1      -9.092  15.751  68.084  1.00  0.00    -0.185 C  
HETATM   35  C   UNL     1      -8.000  13.593  68.475  1.00  0.00    -0.127 C  
HETATM   36  C   UNL     1      -9.780  15.175  66.845  1.00  0.00    -0.248 C  
BRANCH  34  37
HETATM   37  N   UNL     1      -8.975  17.207  68.055  1.00  0.00    -0.228 N  
HETATM   38  H   UNL     1      -8.418  17.663  67.334  1.00  0.00     0.000 HD 
HETATM   39  C   UNL     1      -9.377  19.486  68.968  1.00  0.00    -0.280 C  
HETATM   40  F   UNL     1     -10.491  20.192  68.638  1.00  0.00    -0.542 F  
HETATM   41  O   UNL     1     -10.359  17.442  69.869  1.00  0.00     0.044 OA 
HETATM   42  F   UNL     1      -8.934  19.978  70.159  1.00  0.00     0.199 F  
HETATM   43  F   UNL     1      -8.424  19.809  68.045  1.00  0.00    -0.328 F  
HETATM   44  C   UNL     1      -9.633  17.969  69.023  1.00  0.00    -0.144 C  
ENDBRANCH  34  37
ENDBRANCH  27  28
ENDBRANCH   1  27
BRANCH   5  45
HETATM   45  C   UNL     1     -13.245  15.473  64.793  1.00  0.00     1.597 C  
HETATM   46  O   UNL     1     -14.022  15.206  63.861  1.00  0.00     2.737 OA 
BRANCH  45  47
HETATM   47  C   UNL     1     -12.817  16.930  64.980  1.00  0.00     5.833 C  
BRANCH  47  48
HETATM   48  O   UNL     1     -11.459  17.270  64.754  1.00  0.00    -0.548 OA 
BRANCH  48  49
HETATM   49  C   UNL     1     -10.607  16.211  64.802  1.00  0.00    -0.021 C  
HETATM   50  O   UNL     1     -10.756  15.164  64.191  1.00  0.00     0.250 OA 
BRANCH  49  51
HETATM   51  C   UNL     1      -9.431  16.533  65.688  1.00  0.00     0.003 C  
BRANCH  51  52
HETATM   52  C   UNL     1      -9.310  18.035  65.936  1.00  0.00     0.123 C  
BRANCH  52  53
HETATM   53  C   UNL     1     -10.517  18.593  66.694  1.00  0.00    -0.459 C  
HETATM   54  C   UNL     1     -11.514  19.265  65.768  1.00  0.00     1.186 C  
ENDBRANCH  52  53
ENDBRANCH  51  52
ENDBRANCH  49  51
ENDBRANCH  48  49
ENDBRANCH  47  48
ENDBRANCH  45  47
ENDBRANCH   5  45
BRANCH  15  55
HETATM   55  O   UNL     1      -7.911   6.337  67.711  1.00  0.00    -0.103 OA 
HETATM   56  C   UNL     1      -7.223   7.042  68.740  1.00  0.00    -0.091 C  
ENDBRANCH  15  55
TORSDOF 11
ENDMDL
MODEL      106
REMARK 921   NORMALIZED FREE ENERGY PREDICTED BY IDOCK:   24.57 KCAL/MOL
REMARK 922        TOTAL FREE ENERGY PREDICTED BY IDOCK:   36.83 KCAL/MOL
REMARK 923 INTER-LIGAND FREE ENERGY PREDICTED BY IDOCK:   10.64 KCAL/MOL
REMARK 924 INTRA-LIGAND FREE ENERGY PREDICTED BY IDOCK:   26.19 KCAL/MOL
REMARK 927      BINDING AFFINITY PREDICTED BY RF-SCORE:    0.00 PKD
ROOT
HETATM    1  C   UNL     1      -7.675  12.477  67.097  1.00  0.00    -0.108 C  
HETATM    2  O   UNL     1     -12.533  15.422  70.315  1.00  0.00    -0.376 OA 
HETATM    3  C   UNL     1      -8.144  11.061  66.655  1.00  0.00    -0.155 C  
HETATM    4  C   UNL     1     -11.535  15.878  69.753  1.00  0.00    -0.342 C  
HETATM    5  C   UNL     1      -8.933  10.382  67.771  1.00  0.00    -0.131 C  
HETATM    6  O   UNL     1      -8.056  10.295  68.908  1.00  0.00    -0.106 OA 
HETATM    7  C   UNL     1     -10.199  11.246  68.065  1.00  0.00    -0.201 C  
HETATM    8  C   UNL     1     -11.162  17.315  69.962  1.00  0.00     1.014 A  
HETATM    9  C   UNL     1     -11.862  18.089  70.902  1.00  0.00     6.336 A  
HETATM   10  C   UNL     1      -9.978  12.757  68.149  1.00  0.00    -0.229 A  
HETATM   11  C   UNL     1     -11.508  19.423  71.131  1.00  0.00     7.301 A  
HETATM   12  C   UNL     1     -10.475  20.008  70.404  1.00  0.00     1.209 A  
HETATM   13  H   UNL     1      -6.984  14.691  66.461  1.00  0.00     0.000 HD 
HETATM   14  H   UNL     1      -8.546   9.872  69.603  1.00  0.00     0.000 HD 
HETATM   15  C   UNL     1      -9.786  19.264  69.440  1.00  0.00    -0.124 A  
HETATM   16  O   UNL     1      -7.591  15.255  66.925  1.00  0.00    -0.176 OA 
HETATM   17  C   UNL     1     -10.887  13.608  68.824  1.00  0.00    -0.255 A  
HETATM   18  C   UNL     1     -10.113  17.897  69.241  1.00  0.00    -0.115 A  
HETATM   19  O   UNL     1     -11.972  13.011  69.423  1.00  0.00    -0.306 OA 
HETATM   20  C   UNL     1     -10.672  15.008  68.924  1.00  0.00    -0.240 A  
HETATM   21  O   UNL     1      -8.526  17.503  67.519  1.00  0.00    -0.210 OA 
HETATM   22  C   UNL     1      -8.848  13.340  67.544  1.00  0.00    -0.206 A  
HETATM   23  C   UNL     1      -8.696  14.743  67.564  1.00  0.00    -0.186 A  
HETATM   24  C   UNL     1      -9.370  17.042  68.287  1.00  0.00    -0.255 C  
HETATM   25  C   UNL     1      -9.595  15.577  68.252  1.00  0.00    -0.201 A  
HETATM   26  H   UNL     1     -12.582  13.582  69.876  1.00  0.00     0.000 HD 
ENDROOT
BRANCH   1  27
HETATM   27  O   UNL     1      -6.830  12.558  68.257  1.00  0.00    -0.069 OA 
BRANCH  27  28
HETATM   28  C   UNL     1      -5.731  13.454  68.265  1.00  0.00    -0.098 C  
HETATM   29  O   UNL     1      -5.421  13.828  69.628  1.00  0.00    -0.085 OA 
HETATM   30  C   UNL     1      -6.016  15.011  71.687  1.00  0.00     0.447 C  
HETATM   31  C   UNL     1      -6.452  16.020  69.437  1.00  0.00    -0.176 C  
HETATM   32  O   UNL     1      -5.159  16.642  69.335  1.00  0.00    -0.126 OA 
HETATM   33  H   UNL     1      -4.840  16.877  70.199  1.00  0.00     0.000 HD 
HETATM   34  C   UNL     1      -6.969  15.641  68.043  1.00  0.00    -0.129 C  
HETATM   35  C   UNL     1      -6.375  14.714  70.232  1.00  0.00    -0.171 C  
HETATM   36  C   UNL     1      -5.984  14.681  67.373  1.00  0.00     0.238 C  
BRANCH  34  37
HETATM   37  N   UNL     1      -7.255  16.827  67.241  1.00  0.00    -0.157 N  
HETATM   38  H   UNL     1      -8.124  17.342  67.378  1.00  0.00     0.000 HD 
HETATM   39  C   UNL     1      -6.758  18.454  65.425  1.00  0.00    -0.141 C  
HETATM   40  F   UNL     1      -5.997  19.557  65.655  1.00  0.00    -0.176 F  
HETATM   41  O   UNL     1      -5.246  16.677  66.143  1.00  0.00    -0.206 OA 
HETATM   42  F   UNL     1      -6.679  18.188  64.091  1.00  0.00     1.220 F  
HETATM   43  F   UNL     1      -8.052  18.816  65.664  1.00  0.00    -0.173 F  
HETATM   44  C   UNL     1      -6.329  17.251  66.284  1.00  0.00    -0.183 C  
ENDBRANCH  34  37
ENDBRANCH  27  28
ENDBRANCH   1  27
BRANCH   5  45
HETATM   45  C   UNL     1      -9.340   8.892  67.689  1.00  0.00    -0.136 C  
HETATM   46  O   UNL     1     -10.502   8.607  67.353  1.00  0.00    -0.263 OA 
BRANCH  45  47
HETATM   47  C   UNL     1      -8.473   7.786  68.294  1.00  0.00    -0.124 C  
BRANCH  47  48
HETATM   48  O   UNL     1      -7.064   7.901  68.194  1.00  0.00    -0.083 OA 
BRANCH  48  49
HETATM   49  C   UNL     1      -6.526   7.234  67.138  1.00  0.00    -0.059 C  
HETATM   50  O   UNL     1      -6.012   7.762  66.164  1.00  0.00    -0.037 OA 
BRANCH  49  51
HETATM   51  C   UNL     1      -6.621   5.747  67.363  1.00  0.00    -0.056 C  
BRANCH  51  52
HETATM   52  C   UNL     1      -7.634   5.100  66.422  1.00  0.00    -0.088 C  
BRANCH  52  53
HETATM   53  C   UNL     1      -7.014   3.975  65.591  1.00  0.00    -0.062 C  
HETATM   54  C   UNL     1      -7.549   3.949  64.172  1.00  0.00    -0.078 C  
ENDBRANCH  52  53
ENDBRANCH  51  52
ENDBRANCH  49  51
ENDBRANCH  48  49
ENDBRANCH  47  48
ENDBRANCH  45  47
ENDBRANCH   5  45
BRANCH  15  55
HETATM   55  O   UNL     1      -8.742  19.800  68.728  1.00  0.00    -0.284 OA 
HETATM   56  C   UNL     1      -7.474  19.864  69.374  1.00  0.00    -0.046 C  
ENDBRANCH  15  55
TORSDOF 11
ENDMDL
MODEL      107
REMARK 921   NORMALIZED FREE ENERGY PREDICTED BY IDOCK:   24.69 KCAL/MOL
REMARK 922        TOTAL FREE ENERGY PREDICTED BY IDOCK:   37.01 KCAL/MOL
REMARK 923 INTER-LIGAND FREE ENERGY PREDICTED BY IDOCK:   -7.18 KCAL/MOL
REMARK 924 INTRA-LIGAND FREE ENERGY PREDICTED BY IDOCK:   44.19 KCAL/MOL
REMARK 927      BINDING AFFINITY PREDICTED BY RF-SCORE:    0.00 PKD
ROOT
HETATM    1  C   UNL     1      -9.657   6.387  67.994  1.00  0.00    -0.118 C  
HETATM    2  O   UNL     1     -11.808  11.614  71.261  1.00  0.00     0.160 OA 
HETATM    3  C   UNL     1      -9.836   5.123  68.883  1.00  0.00    -0.241 C  
HETATM    4  C   UNL     1     -11.627  11.425  70.057  1.00  0.00    -0.299 C  
HETATM    5  C   UNL     1      -9.443   5.420  70.327  1.00  0.00    -0.163 C  
HETATM    6  O   UNL     1      -8.065   5.835  70.307  1.00  0.00    -0.101 OA 
HETATM    7  C   UNL     1     -10.390   6.537  70.868  1.00  0.00    -0.243 C  
HETATM    8  C   UNL     1     -11.672  12.590  69.112  1.00  0.00    -0.375 A  
HETATM    9  C   UNL     1     -11.778  13.896  69.617  1.00  0.00    -0.370 A  
HETATM   10  C   UNL     1     -10.645   7.717  69.929  1.00  0.00    -0.237 A  
HETATM   11  C   UNL     1     -11.791  14.994  68.752  1.00  0.00    -0.331 A  
HETATM   12  C   UNL     1     -11.733  14.802  67.374  1.00  0.00    -0.371 A  
HETATM   13  H   UNL     1     -10.273   7.591  66.005  1.00  0.00     0.000 HD 
HETATM   14  H   UNL     1      -7.820   6.020  71.206  1.00  0.00     0.000 HD 
HETATM   15  C   UNL     1     -11.660  13.507  66.850  1.00  0.00    -0.363 A  
HETATM   16  O   UNL     1     -10.561   8.434  66.336  1.00  0.00    -0.087 OA 
HETATM   17  C   UNL     1     -11.091   8.971  70.411  1.00  0.00    -0.244 A  
HETATM   18  C   UNL     1     -11.597  12.395  67.728  1.00  0.00    -0.413 A  
HETATM   19  O   UNL     1     -11.267   9.090  71.770  1.00  0.00    -0.336 OA 
HETATM   20  C   UNL     1     -11.306  10.075  69.544  1.00  0.00    -0.220 A  
HETATM   21  O   UNL     1     -11.507  10.735  66.033  1.00  0.00     0.148 OA 
HETATM   22  C   UNL     1     -10.438   7.574  68.543  1.00  0.00    -0.211 A  
HETATM   23  C   UNL     1     -10.750   8.646  67.681  1.00  0.00    -0.124 A  
HETATM   24  C   UNL     1     -11.446  11.007  67.231  1.00  0.00    -0.081 C  
HETATM   25  C   UNL     1     -11.176   9.893  68.171  1.00  0.00    -0.142 A  
HETATM   26  H   UNL     1     -11.566   9.932  72.094  1.00  0.00     0.000 HD 
ENDROOT
BRANCH   1  27
HETATM   27  O   UNL     1      -8.338   6.955  67.915  1.00  0.00    -0.119 OA 
BRANCH  27  28
HETATM   28  C   UNL     1      -7.538   7.039  69.083  1.00  0.00    -0.100 C  
HETATM   29  O   UNL     1      -8.385   6.985  70.254  1.00  0.00    -0.130 OA 
HETATM   30  C   UNL     1     -10.073   8.017  71.697  1.00  0.00    -0.238 C  
HETATM   31  C   UNL     1      -8.228   9.372  70.684  1.00  0.00    -0.168 C  
HETATM   32  O   UNL     1      -7.304   9.137  71.761  1.00  0.00    -0.325 OA 
HETATM   33  H   UNL     1      -7.777   9.030  72.579  1.00  0.00     0.000 HD 
HETATM   34  C   UNL     1      -7.466   9.545  69.363  1.00  0.00    -0.088 C  
HETATM   35  C   UNL     1      -9.158   8.172  70.484  1.00  0.00    -0.150 C  
HETATM   36  C   UNL     1      -6.642   8.289  69.075  1.00  0.00    -0.048 C  
BRANCH  34  37
HETATM   37  N   UNL     1      -6.670  10.769  69.365  1.00  0.00    -0.083 N  
HETATM   38  H   UNL     1      -5.751  10.784  69.807  1.00  0.00     0.000 HD 
HETATM   39  C   UNL     1      -6.308  13.185  68.889  1.00  0.00    -0.093 C  
HETATM   40  F   UNL     1      -5.807  13.601  67.696  1.00  0.00    -0.129 F  
HETATM   41  O   UNL     1      -8.259  11.909  68.165  1.00  0.00    -0.142 OA 
HETATM   42  F   UNL     1      -7.000  14.232  69.415  1.00  0.00    -0.117 F  
HETATM   43  F   UNL     1      -5.237  12.984  69.712  1.00  0.00    -0.078 F  
HETATM   44  C   UNL     1      -7.176  11.921  68.756  1.00  0.00    -0.112 C  
ENDBRANCH  34  37
ENDBRANCH  27  28
ENDBRANCH   1  27
BRANCH   5  45
HETATM   45  C   UNL     1      -9.322   4.298  71.384  1.00  0.00    -0.147 C  
HETATM   46  O   UNL     1      -9.595   3.131  71.053  1.00  0.00    -0.150 OA 
BRANCH  45  47
HETATM   47  C   UNL     1      -9.180   4.609  72.876  1.00  0.00    -0.123 C  
BRANCH  47  48
HETATM   48  O   UNL     1     -10.084   4.000  73.782  1.00  0.00    -0.119 OA 
BRANCH  48  49
HETATM   49  C   UNL     1     -11.385   4.058  73.391  1.00  0.00    -0.174 C  
HETATM   50  O   UNL     1     -12.233   3.218  73.648  1.00  0.00     0.294 OA 
BRANCH  49  51
HETATM   51  C   UNL     1     -11.639   5.333  72.628  1.00  0.00    -0.226 C  
BRANCH  51  52
HETATM   52  C   UNL     1     -13.020   5.907  72.938  1.00  0.00     0.988 C  
BRANCH  52  53
HETATM   53  C   UNL     1     -13.094   7.411  72.666  1.00  0.00     0.593 C  
HETATM   54  C   UNL     1     -14.391   7.807  71.985  1.00  0.00    -0.472 C  
ENDBRANCH  52  53
ENDBRANCH  51  52
ENDBRANCH  49  51
ENDBRANCH  48  49
ENDBRANCH  47  48
ENDBRANCH  45  47
ENDBRANCH   5  45
BRANCH  15  55
HETATM   55  O   UNL     1     -11.568  13.283  65.499  1.00  0.00    -0.311 OA 
HETATM   56  C   UNL     1     -11.794  14.393  64.634  1.00  0.00    -0.451 C  
ENDBRANCH  15  55
TORSDOF 11
ENDMDL
MODEL      108
REMARK 921   NORMALIZED FREE ENERGY PREDICTED BY IDOCK:   27.83 KCAL/MOL
REMARK 922        TOTAL FREE ENERGY PREDICTED BY IDOCK:   42.18 KCAL/MOL
REMARK 923 INTER-LIGAND FREE ENERGY PREDICTED BY IDOCK:   34.49 KCAL/MOL
REMARK 924 INTRA-LIGAND FREE ENERGY PREDICTED BY IDOCK:    7.69 KCAL/MOL
REMARK 927      BINDING AFFINITY PREDICTED BY RF-SCORE:    0.00 PKD
ROOT
HETATM    1  C   UNL     1     -12.893  12.519  68.195  1.00  0.00     2.309 C  
HETATM    2  O   UNL     1      -6.481  12.219  69.386  1.00  0.00    -0.105 OA 
HETATM    3  C   UNL     1     -13.210  13.848  67.450  1.00  0.00     3.054 C  
HETATM    4  C   UNL     1      -7.342  11.339  69.342  1.00  0.00    -0.025 C  
HETATM    5  C   UNL     1     -12.422  15.005  68.057  1.00  0.00     0.558 C  
HETATM    6  O   UNL     1     -12.809  15.094  69.440  1.00  0.00    -0.459 OA 
HETATM    7  C   UNL     1     -10.901  14.700  67.885  1.00  0.00    -0.261 C  
HETATM    8  C   UNL     1      -7.016   9.962  69.840  1.00  0.00    -0.105 A  
HETATM    9  C   UNL     1      -5.788   9.721  70.478  1.00  0.00    -0.066 A  
HETATM   10  C   UNL     1     -10.460  13.273  68.214  1.00  0.00    -0.257 A  
HETATM   11  C   UNL     1      -5.481   8.451  70.974  1.00  0.00    -0.032 A  
HETATM   12  C   UNL     1      -6.379   7.399  70.811  1.00  0.00    -0.039 A  
HETATM   13  H   UNL     1     -12.822  10.115  68.145  1.00  0.00     0.000 HD 
HETATM   14  H   UNL     1     -12.319  15.815  69.817  1.00  0.00     0.000 HD 
HETATM   15  C   UNL     1      -7.593   7.610  70.149  1.00  0.00    -0.086 A  
HETATM   16  O   UNL     1     -11.921   9.915  68.370  1.00  0.00     0.281 OA 
HETATM   17  C   UNL     1      -9.116  12.963  68.534  1.00  0.00    -0.049 A  
HETATM   18  C   UNL     1      -7.927   8.909  69.689  1.00  0.00    -0.092 A  
HETATM   19  O   UNL     1      -8.223  14.008  68.559  1.00  0.00    -0.142 OA 
HETATM   20  C   UNL     1      -8.708  11.642  68.863  1.00  0.00     0.078 A  
HETATM   21  O   UNL     1     -10.028   8.318  68.755  1.00  0.00    -0.173 OA 
HETATM   22  C   UNL     1     -11.398  12.223  68.201  1.00  0.00    -0.349 A  
HETATM   23  C   UNL     1     -10.964  10.901  68.432  1.00  0.00    -0.237 A  
HETATM   24  C   UNL     1      -9.228   9.206  69.047  1.00  0.00    -0.143 C  
HETATM   25  C   UNL     1      -9.631  10.605  68.766  1.00  0.00    -0.190 A  
HETATM   26  H   UNL     1      -7.321  13.800  68.774  1.00  0.00     0.000 HD 
ENDROOT
BRANCH   1  27
HETATM   27  O   UNL     1     -13.177  12.470  69.604  1.00  0.00     1.257 OA 
BRANCH  27  28
HETATM   28  C   UNL     1     -14.002  11.437  70.119  1.00  0.00     3.737 C  
HETATM   29  O   UNL     1     -14.248  11.671  71.526  1.00  0.00     1.344 OA 
HETATM   30  C   UNL     1     -13.431  11.761  73.832  1.00  0.00    10.171 C  
HETATM   31  C   UNL     1     -12.671   9.972  72.254  1.00  0.00    -0.145 C  
HETATM   32  O   UNL     1     -13.751   9.075  72.565  1.00  0.00    -0.502 OA 
HETATM   33  H   UNL     1     -14.026   9.194  73.467  1.00  0.00     0.000 HD 
HETATM   34  C   UNL     1     -12.226   9.780  70.798  1.00  0.00    -0.256 C  
HETATM   35  C   UNL     1     -13.115  11.432  72.374  1.00  0.00     0.404 C  
HETATM   36  C   UNL     1     -13.406  10.044  69.860  1.00  0.00     0.978 C  
BRANCH  34  37
HETATM   37  N   UNL     1     -11.612   8.470  70.598  1.00  0.00    -0.406 N  
HETATM   38  H   UNL     1     -10.599   8.384  70.524  1.00  0.00     0.000 HD 
HETATM   39  C   UNL     1     -11.695   6.014  70.205  1.00  0.00     0.169 C  
HETATM   40  F   UNL     1     -11.754   5.136  71.241  1.00  0.00     0.250 F  
HETATM   41  O   UNL     1     -13.646   7.410  70.654  1.00  0.00     0.133 OA 
HETATM   42  F   UNL     1     -12.211   5.379  69.117  1.00  0.00     2.257 F  
HETATM   43  F   UNL     1     -10.371   6.212  69.937  1.00  0.00    -0.202 F  
HETATM   44  C   UNL     1     -12.424   7.336  70.509  1.00  0.00     0.050 C  
ENDBRANCH  34  37
ENDBRANCH  27  28
ENDBRANCH   1  27
BRANCH   5  45
HETATM   45  C   UNL     1     -12.695  16.474  67.654  1.00  0.00     3.238 C  
HETATM   46  O   UNL     1     -13.868  16.831  67.451  1.00  0.00     6.591 OA 
BRANCH  45  47
HETATM   47  C   UNL     1     -11.569  17.408  67.205  1.00  0.00     1.257 C  
BRANCH  47  48
HETATM   48  O   UNL     1     -11.517  17.797  65.842  1.00  0.00     0.960 OA 
BRANCH  48  49
HETATM   49  C   UNL     1     -10.622  18.787  65.582  1.00  0.00    -0.154 C  
HETATM   50  O   UNL     1     -10.423  19.280  64.483  1.00  0.00     1.394 OA 
BRANCH  49  51
HETATM   51  C   UNL     1      -9.941  19.216  66.856  1.00  0.00    -0.419 C  
BRANCH  51  52
HETATM   52  C   UNL     1      -9.477  20.669  66.782  1.00  0.00    -0.338 C  
BRANCH  52  53
HETATM   53  C   UNL     1      -7.967  20.804  66.995  1.00  0.00    -0.230 C  
HETATM   54  C   UNL     1      -7.330  19.496  67.425  1.00  0.00    -0.261 C  
ENDBRANCH  52  53
ENDBRANCH  51  52
ENDBRANCH  49  51
ENDBRANCH  48  49
ENDBRANCH  47  48
ENDBRANCH  45  47
ENDBRANCH   5  45
BRANCH  15  55
HETATM   55  O   UNL     1      -8.514   6.603  69.999  1.00  0.00    -0.136 OA 
HETATM   56  C   UNL     1      -8.507   5.558  70.969  1.00  0.00    -0.125 C  
ENDBRANCH  15  55
TORSDOF 11
ENDMDL
MODEL      109
REMARK 921   NORMALIZED FREE ENERGY PREDICTED BY IDOCK:   28.23 KCAL/MOL
REMARK 922        TOTAL FREE ENERGY PREDICTED BY IDOCK:   42.83 KCAL/MOL
REMARK 923 INTER-LIGAND FREE ENERGY PREDICTED BY IDOCK:   30.88 KCAL/MOL
REMARK 924 INTRA-LIGAND FREE ENERGY PREDICTED BY IDOCK:   11.95 KCAL/MOL
REMARK 927      BINDING AFFINITY PREDICTED BY RF-SCORE:    0.00 PKD
ROOT
HETATM    1  C   UNL     1      -7.972  12.120  68.551  1.00  0.00    -0.119 C  
HETATM    2  O   UNL     1      -5.150  16.969  65.212  1.00  0.00     0.346 OA 
HETATM    3  C   UNL     1      -7.335  10.769  68.120  1.00  0.00    -0.088 C  
HETATM    4  C   UNL     1      -5.788  16.971  66.266  1.00  0.00     0.094 C  
HETATM    5  C   UNL     1      -7.130  10.728  66.608  1.00  0.00    -0.133 C  
HETATM    6  O   UNL     1      -8.427  10.891  66.007  1.00  0.00    -0.163 OA 
HETATM    7  C   UNL     1      -6.148  11.877  66.220  1.00  0.00     0.569 C  
HETATM    8  C   UNL     1      -6.236  18.276  66.855  1.00  0.00    -0.196 A  
HETATM    9  C   UNL     1      -6.050  19.468  66.137  1.00  0.00    -0.182 A  
HETATM   10  C   UNL     1      -6.404  13.232  66.880  1.00  0.00     1.048 A  
HETATM   11  C   UNL     1      -6.487  20.689  66.658  1.00  0.00    -0.311 A  
HETATM   12  C   UNL     1      -7.085  20.740  67.915  1.00  0.00    -0.253 A  
HETATM   13  H   UNL     1      -8.330  13.751  70.282  1.00  0.00     0.000 HD 
HETATM   14  H   UNL     1      -8.300  10.865  65.066  1.00  0.00     0.000 HD 
HETATM   15  C   UNL     1      -7.251  19.569  68.661  1.00  0.00    -0.339 A  
HETATM   16  O   UNL     1      -8.008  14.558  69.897  1.00  0.00     0.202 OA 
HETATM   17  C   UNL     1      -5.913  14.438  66.323  1.00  0.00     4.993 A  
HETATM   18  C   UNL     1      -6.851  18.323  68.112  1.00  0.00    -0.218 A  
HETATM   19  O   UNL     1      -5.211  14.340  65.144  1.00  0.00    10.557 OA 
HETATM   20  C   UNL     1      -6.169  15.700  66.921  1.00  0.00     0.530 A  
HETATM   21  O   UNL     1      -7.476  17.005  69.986  1.00  0.00     0.722 OA 
HETATM   22  C   UNL     1      -7.143  13.307  68.076  1.00  0.00    -0.122 A  
HETATM   23  C   UNL     1      -7.307  14.555  68.714  1.00  0.00    -0.129 A  
HETATM   24  C   UNL     1      -7.067  17.043  68.826  1.00  0.00    -0.219 C  
HETATM   25  C   UNL     1      -6.831  15.749  68.144  1.00  0.00    -0.128 A  
HETATM   26  H   UNL     1      -4.881  15.149  64.770  1.00  0.00     0.000 HD 
ENDROOT
BRANCH   1  27
HETATM   27  O   UNL     1      -9.254  12.453  67.989  1.00  0.00    -0.190 OA 
BRANCH  27  28
HETATM   28  C   UNL     1     -10.224  13.108  68.790  1.00  0.00    -0.097 C  
HETATM   29  O   UNL     1     -11.446  12.333  68.801  1.00  0.00    -0.261 OA 
HETATM   30  C   UNL     1     -13.421  11.476  67.635  1.00  0.00     8.589 C  
HETATM   31  C   UNL     1     -12.591  13.805  67.244  1.00  0.00     0.257 C  
HETATM   32  O   UNL     1     -13.352  14.383  68.319  1.00  0.00     1.803 OA 
HETATM   33  H   UNL     1     -14.161  13.901  68.444  1.00  0.00     0.000 HD 
HETATM   34  C   UNL     1     -11.285  14.585  67.042  1.00  0.00    -0.337 C  
HETATM   35  C   UNL     1     -12.182  12.367  67.569  1.00  0.00     0.258 C  
HETATM   36  C   UNL     1     -10.463  14.556  68.332  1.00  0.00    -0.246 C  
BRANCH  34  37
HETATM   37  N   UNL     1     -11.542  15.936  66.551  1.00  0.00     0.348 N  
HETATM   38  H   UNL     1     -12.368  16.128  65.985  1.00  0.00     0.000 HD 
HETATM   39  C   UNL     1     -10.952  18.331  66.226  1.00  0.00     0.261 C  
HETATM   40  F   UNL     1     -11.290  19.272  67.147  1.00  0.00    -0.489 F  
HETATM   41  O   UNL     1      -9.675  16.765  67.595  1.00  0.00    -0.245 OA 
HETATM   42  F   UNL     1      -9.890  18.822  65.529  1.00  0.00    -0.076 F  
HETATM   43  F   UNL     1     -11.989  18.263  65.341  1.00  0.00     2.138 F  
HETATM   44  C   UNL     1     -10.648  16.964  66.863  1.00  0.00    -0.214 C  
ENDBRANCH  34  37
ENDBRANCH  27  28
ENDBRANCH   1  27
BRANCH   5  45
HETATM   45  C   UNL     1      -6.709   9.429  65.880  1.00  0.00    -0.081 C  
HETATM   46  O   UNL     1      -6.049   8.581  66.502  1.00  0.00    -0.054 OA 
BRANCH  45  47
HETATM   47  C   UNL     1      -6.809   9.292  64.358  1.00  0.00    -0.086 C  
BRANCH  47  48
HETATM   48  O   UNL     1      -7.521  10.282  63.636  1.00  0.00    -0.143 OA 
BRANCH  48  49
HETATM   49  C   UNL     1      -8.522  10.872  64.342  1.00  0.00     0.101 C  
HETATM   50  O   UNL     1      -9.118  10.357  65.275  1.00  0.00    -0.171 OA 
BRANCH  49  51
HETATM   51  C   UNL     1      -8.763  12.269  63.830  1.00  0.00     1.728 C  
BRANCH  51  52
HETATM   52  C   UNL     1     -10.238  12.652  63.918  1.00  0.00    -0.340 C  
BRANCH  52  53
HETATM   53  C   UNL     1     -11.100  11.864  62.929  1.00  0.00     0.161 C  
HETATM   54  C   UNL     1     -10.436  10.569  62.498  1.00  0.00     0.919 C  
ENDBRANCH  52  53
ENDBRANCH  51  52
ENDBRANCH  49  51
ENDBRANCH  48  49
ENDBRANCH  47  48
ENDBRANCH  45  47
ENDBRANCH   5  45
BRANCH  15  55
HETATM   55  O   UNL     1      -7.864  19.579  69.889  1.00  0.00     0.172 OA 
HETATM   56  C   UNL     1      -9.265  19.839  69.919  1.00  0.00     0.713 C  
ENDBRANCH  15  55
TORSDOF 11
ENDMDL
MODEL      110
REMARK 921   NORMALIZED FREE ENERGY PREDICTED BY IDOCK:   33.50 KCAL/MOL
REMARK 922        TOTAL FREE ENERGY PREDICTED BY IDOCK:   51.49 KCAL/MOL
REMARK 923 INTER-LIGAND FREE ENERGY PREDICTED BY IDOCK:   43.07 KCAL/MOL
REMARK 924 INTRA-LIGAND FREE ENERGY PREDICTED BY IDOCK:    8.42 KCAL/MOL
REMARK 927      BINDING AFFINITY PREDICTED BY RF-SCORE:    0.00 PKD
ROOT
HETATM    1  C   UNL     1     -10.721  11.108  69.888  1.00  0.00     0.095 C  
HETATM    2  O   UNL     1      -5.952   8.618  66.189  1.00  0.00    -0.046 OA 
HETATM    3  C   UNL     1     -10.767  10.342  71.241  1.00  0.00     0.989 C  
HETATM    4  C   UNL     1      -6.532   9.704  66.146  1.00  0.00    -0.071 C  
HETATM    5  C   UNL     1     -10.585   8.844  71.018  1.00  0.00    -0.247 C  
HETATM    6  O   UNL     1     -11.656   8.417  70.157  1.00  0.00    -0.465 OA 
HETATM    7  C   UNL     1      -9.181   8.616  70.375  1.00  0.00    -0.189 C  
HETATM    8  C   UNL     1      -6.341  10.596  64.955  1.00  0.00     0.050 A  
HETATM    9  C   UNL     1      -5.622  10.131  63.842  1.00  0.00    -0.129 A  
HETATM   10  C   UNL     1      -8.797   9.569  69.242  1.00  0.00    -0.153 A  
HETATM   11  C   UNL     1      -5.459  10.939  62.712  1.00  0.00    -0.144 A  
HETATM   12  C   UNL     1      -5.983  12.229  62.691  1.00  0.00     3.363 A  
HETATM   13  H   UNL     1     -10.315  13.171  68.720  1.00  0.00     0.000 HD 
HETATM   14  H   UNL     1     -11.543   7.484  70.018  1.00  0.00     0.000 HD 
HETATM   15  C   UNL     1      -6.675  12.722  63.802  1.00  0.00    11.591 A  
HETATM   16  O   UNL     1      -9.655  12.937  68.078  1.00  0.00    -0.208 OA 
HETATM   17  C   UNL     1      -7.802   9.235  68.291  1.00  0.00    -0.098 A  
HETATM   18  C   UNL     1      -6.882  11.887  64.930  1.00  0.00     3.527 A  
HETATM   19  O   UNL     1      -7.208   8.001  68.417  1.00  0.00    -0.084 OA 
HETATM   20  C   UNL     1      -7.460  10.109  67.225  1.00  0.00    -0.091 A  
HETATM   21  O   UNL     1      -8.064  13.490  66.223  1.00  0.00     0.765 OA 
HETATM   22  C   UNL     1      -9.435  10.818  69.124  1.00  0.00    -0.151 A  
HETATM   23  C   UNL     1      -9.018  11.719  68.120  1.00  0.00    -0.181 A  
HETATM   24  C   UNL     1      -7.668  12.331  66.104  1.00  0.00     0.907 C  
HETATM   25  C   UNL     1      -8.042  11.371  67.170  1.00  0.00    -0.155 A  
HETATM   26  H   UNL     1      -6.540   7.777  67.779  1.00  0.00     0.000 HD 
ENDROOT
BRANCH   1  27
HETATM   27  O   UNL     1     -11.702  10.754  68.897  1.00  0.00    -0.294 OA 
BRANCH  27  28
HETATM   28  C   UNL     1     -12.728  11.674  68.564  1.00  0.00     1.630 C  
HETATM   29  O   UNL     1     -12.953  11.651  67.135  1.00  0.00     2.678 OA 
HETATM   30  C   UNL     1     -12.186  12.141  64.861  1.00  0.00    -0.306 C  
HETATM   31  C   UNL     1     -11.766  13.735  66.746  1.00  0.00    -0.391 C  
HETATM   32  O   UNL     1     -13.011  14.437  66.585  1.00  0.00    -0.248 OA 
HETATM   33  H   UNL     1     -13.276  14.429  65.673  1.00  0.00     0.000 HD 
HETATM   34  C   UNL     1     -11.337  13.750  68.219  1.00  0.00    -0.285 C  
HETATM   35  C   UNL     1     -11.911  12.261  66.359  1.00  0.00    -0.311 C  
HETATM   36  C   UNL     1     -12.418  13.090  69.077  1.00  0.00     0.310 C  
BRANCH  34  37
HETATM   37  N   UNL     1     -10.994  15.099  68.660  1.00  0.00    -0.244 N  
HETATM   38  H   UNL     1     -11.509  15.536  69.424  1.00  0.00     0.000 HD 
HETATM   39  C   UNL     1      -9.728  17.235  68.497  1.00  0.00    -0.296 C  
HETATM   40  F   UNL     1      -8.535  17.398  69.128  1.00  0.00    -0.218 F  
HETATM   41  O   UNL     1      -9.282  15.255  67.141  1.00  0.00    -0.196 OA 
HETATM   42  F   UNL     1      -9.754  18.122  67.464  1.00  0.00    -0.281 F  
HETATM   43  F   UNL     1     -10.691  17.644  69.374  1.00  0.00    -0.272 F  
HETATM   44  C   UNL     1      -9.955  15.787  68.027  1.00  0.00    -0.222 C  
ENDBRANCH  34  37
ENDBRANCH  27  28
ENDBRANCH   1  27
BRANCH   5  45
HETATM   45  C   UNL     1     -10.795   7.820  72.158  1.00  0.00    -0.257 C  
HETATM   46  O   UNL     1     -11.800   7.927  72.881  1.00  0.00    -0.307 OA 
BRANCH  45  47
HETATM   47  C   UNL     1      -9.674   6.884  72.617  1.00  0.00    -0.149 C  
BRANCH  47  48
HETATM   48  O   UNL     1      -9.893   5.485  72.551  1.00  0.00    -0.161 OA 
BRANCH  48  49
HETATM   49  C   UNL     1      -9.048   4.755  73.326  1.00  0.00    -0.115 C  
HETATM   50  O   UNL     1      -9.262   4.430  74.484  1.00  0.00    -0.104 OA 
BRANCH  49  51
HETATM   51  C   UNL     1      -7.824   4.368  72.535  1.00  0.00    -0.085 C  
BRANCH  51  52
HETATM   52  C   UNL     1      -7.154   3.122  73.110  1.00  0.00    -0.044 C  
BRANCH  52  53
HETATM   53  C   UNL     1      -7.560   1.851  72.359  1.00  0.00    -0.043 C  
HETATM   54  C   UNL     1      -8.871   2.020  71.616  1.00  0.00    -0.113 C  
ENDBRANCH  52  53
ENDBRANCH  51  52
ENDBRANCH  49  51
ENDBRANCH  48  49
ENDBRANCH  47  48
ENDBRANCH  45  47
ENDBRANCH   5  45
BRANCH  15  55
HETATM   55  O   UNL     1      -7.231  13.977  63.803  1.00  0.00    16.449 OA 
HETATM   56  C   UNL     1      -8.514  14.125  64.407  1.00  0.00     8.069 C  
ENDBRANCH  15  55
TORSDOF 11
ENDMDL
MODEL      111
REMARK 921   NORMALIZED FREE ENERGY PREDICTED BY IDOCK:   33.68 KCAL/MOL
REMARK 922        TOTAL FREE ENERGY PREDICTED BY IDOCK:   51.79 KCAL/MOL
REMARK 923 INTER-LIGAND FREE ENERGY PREDICTED BY IDOCK:   -4.87 KCAL/MOL
REMARK 924 INTRA-LIGAND FREE ENERGY PREDICTED BY IDOCK:   56.65 KCAL/MOL
REMARK 927      BINDING AFFINITY PREDICTED BY RF-SCORE:    0.00 PKD
ROOT
HETATM    1  C   UNL     1      -8.425   4.862  68.148  1.00  0.00    -0.102 C  
HETATM    2  O   UNL     1     -11.384   9.938  70.995  1.00  0.00    -0.342 OA 
HETATM    3  C   UNL     1      -8.539   3.621  69.078  1.00  0.00    -0.120 C  
HETATM    4  C   UNL     1     -11.087   9.725  69.818  1.00  0.00    -0.237 C  
HETATM    5  C   UNL     1      -8.298   4.014  70.533  1.00  0.00    -0.065 C  
HETATM    6  O   UNL     1      -6.976   4.578  70.599  1.00  0.00    -0.036 OA 
HETATM    7  C   UNL     1      -9.401   5.038  70.947  1.00  0.00    -0.204 C  
HETATM    8  C   UNL     1     -11.179  10.841  68.819  1.00  0.00    -0.331 A  
HETATM    9  C   UNL     1     -11.466  12.146  69.253  1.00  0.00    -0.363 A  
HETATM   10  C   UNL     1      -9.704   6.146  69.938  1.00  0.00    -0.193 A  
HETATM   11  C   UNL     1     -11.527  13.202  68.339  1.00  0.00    -0.350 A  
HETATM   12  C   UNL     1     -11.337  12.965  66.981  1.00  0.00    -0.355 A  
HETATM   13  H   UNL     1      -9.004   5.914  66.064  1.00  0.00     0.000 HD 
HETATM   14  H   UNL     1      -6.826   4.823  71.505  1.00  0.00     0.000 HD 
HETATM   15  C   UNL     1     -11.082  11.668  66.524  1.00  0.00    -0.301 A  
HETATM   16  O   UNL     1      -9.407   6.731  66.332  1.00  0.00    -0.163 OA 
HETATM   17  C   UNL     1     -10.320   7.361  70.326  1.00  0.00    -0.212 A  
HETATM   18  C   UNL     1     -10.972  10.603  67.456  1.00  0.00    -0.371 A  
HETATM   19  O   UNL     1     -10.617   7.512  71.660  1.00  0.00    -0.205 OA 
HETATM   20  C   UNL     1     -10.582   8.401  69.394  1.00  0.00    -0.204 A  
HETATM   21  O   UNL     1     -10.567   8.900  65.851  1.00  0.00     0.424 OA 
HETATM   22  C   UNL     1      -9.372   5.975  68.580  1.00  0.00    -0.121 A  
HETATM   23  C   UNL     1      -9.726   6.973  67.648  1.00  0.00    -0.136 A  
HETATM   24  C   UNL     1     -10.633   9.223  67.037  1.00  0.00    -0.193 C  
HETATM   25  C   UNL     1     -10.322   8.183  68.045  1.00  0.00    -0.267 A  
HETATM   26  H   UNL     1     -11.030   8.326  71.920  1.00  0.00     0.000 HD 
ENDROOT
BRANCH   1  27
HETATM   27  O   UNL     1      -7.172   5.569  68.144  1.00  0.00    -0.069 OA 
BRANCH  27  28
HETATM   28  C   UNL     1      -6.378   5.598  69.318  1.00  0.00    -0.037 C  
HETATM   29  O   UNL     1      -7.137   5.066  70.429  1.00  0.00    -0.050 OA 
HETATM   30  C   UNL     1      -8.979   5.273  72.029  1.00  0.00    -0.144 C  
HETATM   31  C   UNL     1      -7.588   7.253  71.386  1.00  0.00    -0.083 C  
HETATM   32  O   UNL     1      -6.595   7.035  72.404  1.00  0.00    -0.056 OA 
HETATM   33  H   UNL     1      -6.992   6.629  73.166  1.00  0.00     0.000 HD 
HETATM   34  C   UNL     1      -6.948   7.908  70.155  1.00  0.00    -0.049 C  
HETATM   35  C   UNL     1      -8.182   5.928  70.902  1.00  0.00    -0.125 C  
HETATM   36  C   UNL     1      -5.838   7.008  69.610  1.00  0.00    -0.023 C  
BRANCH  34  37
HETATM   37  N   UNL     1      -6.497   9.266  70.448  1.00  0.00    -0.056 N  
HETATM   38  H   UNL     1      -5.884   9.443  71.243  1.00  0.00     0.000 HD 
HETATM   39  C   UNL     1      -6.464  11.726  70.073  1.00  0.00    -0.021 C  
HETATM   40  F   UNL     1      -5.593  12.294  69.198  1.00  0.00    -0.061 F  
HETATM   41  O   UNL     1      -7.607  10.121  68.632  1.00  0.00    -0.081 OA 
HETATM   42  F   UNL     1      -7.513  12.585  70.203  1.00  0.00     0.751 F  
HETATM   43  F   UNL     1      -5.838  11.704  71.286  1.00  0.00    -0.046 F  
HETATM   44  C   UNL     1      -6.913  10.321  69.632  1.00  0.00    -0.114 C  
ENDBRANCH  34  37
ENDBRANCH  27  28
ENDBRANCH   1  27
BRANCH   5  45
HETATM   45  C   UNL     1      -8.144   2.953  71.648  1.00  0.00    -0.057 C  
HETATM   46  O   UNL     1      -8.519   1.790  71.424  1.00  0.00    -0.049 OA 
BRANCH  45  47
HETATM   47  C   UNL     1      -7.837   3.345  73.095  1.00  0.00    -0.069 C  
BRANCH  47  48
HETATM   48  O   UNL     1      -8.847   3.162  74.073  1.00  0.00    -0.079 OA 
BRANCH  48  49
HETATM   49  C   UNL     1     -10.107   3.393  73.619  1.00  0.00    -0.124 C  
HETATM   50  O   UNL     1     -10.396   4.159  72.712  1.00  0.00    -0.166 OA 
BRANCH  49  51
HETATM   51  C   UNL     1     -11.093   2.535  74.369  1.00  0.00     0.085 C  
BRANCH  51  52
HETATM   52  C   UNL     1     -11.820   1.569  73.437  1.00  0.00    -0.273 C  
BRANCH  52  53
HETATM   53  C   UNL     1     -13.184   2.107  72.998  1.00  0.00     0.824 C  
HETATM   54  C   UNL     1     -14.298   1.674  73.933  1.00  0.00     0.390 C  
ENDBRANCH  52  53
ENDBRANCH  51  52
ENDBRANCH  49  51
ENDBRANCH  48  49
ENDBRANCH  47  48
ENDBRANCH  45  47
ENDBRANCH   5  45
BRANCH  15  55
HETATM   55  O   UNL     1     -10.858  11.404  65.196  1.00  0.00    -0.286 OA 
HETATM   56  C   UNL     1     -11.391  12.323  64.246  1.00  0.00    -0.352 C  
ENDBRANCH  15  55
TORSDOF 11
ENDMDL
MODEL      112
REMARK 921   NORMALIZED FREE ENERGY PREDICTED BY IDOCK:   34.22 KCAL/MOL
REMARK 922        TOTAL FREE ENERGY PREDICTED BY IDOCK:   52.68 KCAL/MOL
REMARK 923 INTER-LIGAND FREE ENERGY PREDICTED BY IDOCK:   31.23 KCAL/MOL
REMARK 924 INTRA-LIGAND FREE ENERGY PREDICTED BY IDOCK:   21.45 KCAL/MOL
REMARK 927      BINDING AFFINITY PREDICTED BY RF-SCORE:    0.00 PKD
ROOT
HETATM    1  C   UNL     1     -10.537  13.052  69.251  1.00  0.00     0.150 C  
HETATM    2  O   UNL     1     -13.459   8.648  73.084  1.00  0.00    -0.152 OA 
HETATM    3  C   UNL     1     -10.715  14.466  69.875  1.00  0.00     0.049 C  
HETATM    4  C   UNL     1     -12.584   8.525  72.225  1.00  0.00    -0.381 C  
HETATM    5  C   UNL     1     -12.132  14.642  70.413  1.00  0.00    -0.319 C  
HETATM    6  O   UNL     1     -13.026  14.462  69.300  1.00  0.00    -0.224 OA 
HETATM    7  C   UNL     1     -12.361  13.581  71.534  1.00  0.00    -0.186 C  
HETATM    8  C   UNL     1     -12.205   7.155  71.747  1.00  0.00    -0.379 A  
HETATM    9  C   UNL     1     -12.941   6.038  72.173  1.00  0.00     0.474 A  
HETATM   10  C   UNL     1     -11.873  12.164  71.230  1.00  0.00     0.858 A  
HETATM   11  C   UNL     1     -12.620   4.757  71.714  1.00  0.00     3.596 A  
HETATM   12  C   UNL     1     -11.541   4.571  70.852  1.00  0.00     3.470 A  
HETATM   13  H   UNL     1      -9.051  11.267  68.625  1.00  0.00     0.000 HD 
HETATM   14  H   UNL     1     -13.908  14.572  69.634  1.00  0.00     0.000 HD 
HETATM   15  C   UNL     1     -10.775   5.667  70.442  1.00  0.00    -0.282 A  
HETATM   16  O   UNL     1      -9.406  10.513  69.081  1.00  0.00    -0.194 OA 
HETATM   17  C   UNL     1     -12.383  11.035  71.916  1.00  0.00     0.246 A  
HETATM   18  C   UNL     1     -11.130   6.973  70.869  1.00  0.00    -0.300 A  
HETATM   19  O   UNL     1     -13.358  11.267  72.858  1.00  0.00     0.199 OA 
HETATM   20  C   UNL     1     -11.948   9.716  71.619  1.00  0.00    -0.470 A  
HETATM   21  O   UNL     1      -9.365   8.097  69.746  1.00  0.00    -0.158 OA 
HETATM   22  C   UNL     1     -10.888  11.953  70.246  1.00  0.00     1.114 A  
HETATM   23  C   UNL     1     -10.392  10.650  70.029  1.00  0.00     0.070 A  
HETATM   24  C   UNL     1     -10.399   8.176  70.409  1.00  0.00    -0.206 C  
HETATM   25  C   UNL     1     -10.917   9.533  70.703  1.00  0.00    -0.370 A  
HETATM   26  H   UNL     1     -13.701  10.510  73.319  1.00  0.00     0.000 HD 
ENDROOT
BRANCH   1  27
HETATM   27  O   UNL     1     -11.400  12.702  68.156  1.00  0.00    -0.249 OA 
BRANCH  27  28
HETATM   28  C   UNL     1     -12.480  13.555  67.811  1.00  0.00     0.279 C  
HETATM   29  O   UNL     1     -12.628  13.589  66.372  1.00  0.00    -0.333 OA 
HETATM   30  C   UNL     1     -11.788  14.256  64.171  1.00  0.00    -0.338 C  
HETATM   31  C   UNL     1     -11.596  15.778  66.150  1.00  0.00     0.418 C  
HETATM   32  O   UNL     1     -12.884  16.387  65.955  1.00  0.00     3.496 OA 
HETATM   33  H   UNL     1     -13.100  16.406  65.030  1.00  0.00     0.000 HD 
HETATM   34  C   UNL     1     -11.245  15.748  67.644  1.00  0.00    -0.246 C  
HETATM   35  C   UNL     1     -11.601  14.319  65.686  1.00  0.00    -0.346 C  
HETATM   36  C   UNL     1     -12.312  14.962  68.408  1.00  0.00     0.096 C  
BRANCH  34  37
HETATM   37  N   UNL     1     -11.036  17.095  68.168  1.00  0.00    -0.314 N  
HETATM   38  H   UNL     1     -10.807  17.234  69.151  1.00  0.00     0.000 HD 
HETATM   39  C   UNL     1     -11.005  19.576  67.971  1.00  0.00     0.112 C  
HETATM   40  F   UNL     1      -9.892  20.237  67.557  1.00  0.00    -0.478 F  
HETATM   41  O   UNL     1     -11.370  18.044  66.106  1.00  0.00     0.683 OA 
HETATM   42  F   UNL     1     -12.068  20.386  67.710  1.00  0.00     1.126 F  
HETATM   43  F   UNL     1     -10.921  19.485  69.331  1.00  0.00     0.490 F  
HETATM   44  C   UNL     1     -11.151  18.193  67.311  1.00  0.00     0.138 C  
ENDBRANCH  34  37
ENDBRANCH  27  28
ENDBRANCH   1  27
BRANCH   5  45
HETATM   45  C   UNL     1     -12.653  16.016  70.897  1.00  0.00    -0.049 C  
HETATM   46  O   UNL     1     -13.855  16.131  71.189  1.00  0.00     0.169 OA 
BRANCH  45  47
HETATM   47  C   UNL     1     -11.824  17.293  70.737  1.00  0.00     2.775 C  
BRANCH  47  48
HETATM   48  O   UNL     1     -10.751  17.519  71.635  1.00  0.00     1.698 OA 
BRANCH  48  49
HETATM   49  C   UNL     1      -9.885  16.475  71.738  1.00  0.00     5.469 C  
HETATM   50  O   UNL     1      -9.603  15.899  72.777  1.00  0.00     6.429 OA 
BRANCH  49  51
HETATM   51  C   UNL     1      -9.355  16.107  70.376  1.00  0.00     1.438 C  
BRANCH  51  52
HETATM   52  C   UNL     1      -8.013  16.778  70.095  1.00  0.00     1.931 C  
BRANCH  52  53
HETATM   53  C   UNL     1      -6.831  15.863  70.425  1.00  0.00     0.615 C  
HETATM   54  C   UNL     1      -5.704  16.000  69.419  1.00  0.00    -0.125 C  
ENDBRANCH  52  53
ENDBRANCH  51  52
ENDBRANCH  49  51
ENDBRANCH  48  49
ENDBRANCH  47  48
ENDBRANCH  45  47
ENDBRANCH   5  45
BRANCH  15  55
HETATM   55  O   UNL     1      -9.726   5.524  69.569  1.00  0.00    -0.141 OA 
HETATM   56  C   UNL     1      -9.095   4.248  69.506  1.00  0.00    -0.120 C  
ENDBRANCH  15  55
TORSDOF 11
ENDMDL
MODEL      113
REMARK 921   NORMALIZED FREE ENERGY PREDICTED BY IDOCK:   35.83 KCAL/MOL
REMARK 922        TOTAL FREE ENERGY PREDICTED BY IDOCK:   55.32 KCAL/MOL
REMARK 923 INTER-LIGAND FREE ENERGY PREDICTED BY IDOCK:   34.52 KCAL/MOL
REMARK 924 INTRA-LIGAND FREE ENERGY PREDICTED BY IDOCK:   20.79 KCAL/MOL
REMARK 927      BINDING AFFINITY PREDICTED BY RF-SCORE:    0.00 PKD
ROOT
HETATM    1  C   UNL     1     -10.277  15.541  67.493  1.00  0.00    -0.254 C  
HETATM    2  O   UNL     1      -6.181  10.623  68.783  1.00  0.00    -0.043 OA 
HETATM    3  C   UNL     1      -9.462  16.754  66.959  1.00  0.00    -0.240 C  
HETATM    4  C   UNL     1      -7.397  10.637  68.580  1.00  0.00    -0.090 C  
HETATM    5  C   UNL     1      -8.175  16.932  67.760  1.00  0.00    -0.189 C  
HETATM    6  O   UNL     1      -8.562  17.144  69.129  1.00  0.00    -0.147 OA 
HETATM    7  C   UNL     1      -7.310  15.645  67.581  1.00  0.00    -0.190 C  
HETATM    8  C   UNL     1      -8.207   9.407  68.862  1.00  0.00    -0.111 A  
HETATM    9  C   UNL     1      -7.606   8.301  69.485  1.00  0.00    -0.095 A  
HETATM   10  C   UNL     1      -8.054  14.313  67.692  1.00  0.00    -0.188 A  
HETATM   11  C   UNL     1      -8.354   7.158  69.782  1.00  0.00    -0.132 A  
HETATM   12  C   UNL     1      -9.700   7.091  69.433  1.00  0.00    -0.159 A  
HETATM   13  H   UNL     1     -11.918  13.835  67.067  1.00  0.00     0.000 HD 
HETATM   14  H   UNL     1      -7.761  17.255  69.628  1.00  0.00     0.000 HD 
HETATM   15  C   UNL     1     -10.310   8.169  68.783  1.00  0.00    -0.202 A  
HETATM   16  O   UNL     1     -11.462  13.030  67.281  1.00  0.00    -0.295 OA 
HETATM   17  C   UNL     1      -7.379  13.105  67.993  1.00  0.00    -0.125 A  
HETATM   18  C   UNL     1      -9.565   9.348  68.524  1.00  0.00    -0.154 A  
HETATM   19  O   UNL     1      -6.023  13.184  68.204  1.00  0.00    -0.081 OA 
HETATM   20  C   UNL     1      -8.071  11.871  68.119  1.00  0.00    -0.155 A  
HETATM   21  O   UNL     1     -11.323  10.534  67.457  1.00  0.00    -0.396 OA 
HETATM   22  C   UNL     1      -9.446  14.264  67.490  1.00  0.00    -0.209 A  
HETATM   23  C   UNL     1     -10.108  13.018  67.520  1.00  0.00    -0.218 A  
HETATM   24  C   UNL     1     -10.177  10.546  67.905  1.00  0.00    -0.183 C  
HETATM   25  C   UNL     1      -9.433  11.826  67.837  1.00  0.00    -0.191 A  
HETATM   26  H   UNL     1      -5.570  12.373  68.407  1.00  0.00     0.000 HD 
ENDROOT
BRANCH   1  27
HETATM   27  O   UNL     1     -10.693  15.582  68.869  1.00  0.00    -0.224 OA 
BRANCH  27  28
HETATM   28  C   UNL     1     -10.911  14.370  69.574  1.00  0.00    -0.197 C  
HETATM   29  O   UNL     1     -11.683  14.638  70.768  1.00  0.00    -0.285 OA 
HETATM   30  C   UNL     1     -11.854  15.622  73.004  1.00  0.00    -0.558 C  
HETATM   31  C   UNL     1      -9.764  14.469  72.248  1.00  0.00     5.931 C  
HETATM   32  O   UNL     1     -10.187  13.164  72.680  1.00  0.00     9.946 OA 
HETATM   33  H   UNL     1     -10.754  13.239  73.439  1.00  0.00     0.000 HD 
HETATM   34  C   UNL     1      -8.847  14.349  71.023  1.00  0.00     4.054 C  
HETATM   35  C   UNL     1     -10.959  15.317  71.804  1.00  0.00     0.010 C  
HETATM   36  C   UNL     1      -9.593  13.645  69.889  1.00  0.00     1.876 C  
BRANCH  34  37
HETATM   37  N   UNL     1      -7.581  13.708  71.367  1.00  0.00     4.141 N  
HETATM   38  H   UNL     1      -6.838  14.245  71.813  1.00  0.00     0.000 HD 
HETATM   39  C   UNL     1      -5.997  11.789  71.393  1.00  0.00     0.908 C  
HETATM   40  F   UNL     1      -6.018  10.871  72.395  1.00  0.00     0.683 F  
HETATM   41  O   UNL     1      -8.301  11.672  70.594  1.00  0.00     3.478 OA 
HETATM   42  F   UNL     1      -5.433  11.183  70.312  1.00  0.00    -0.063 F  
HETATM   43  F   UNL     1      -5.127  12.767  71.779  1.00  0.00    -0.142 F  
HETATM   44  C   UNL     1      -7.395  12.353  71.080  1.00  0.00     5.251 C  
ENDBRANCH  34  37
ENDBRANCH  27  28
ENDBRANCH   1  27
BRANCH   5  45
HETATM   45  C   UNL     1      -7.276  18.179  67.587  1.00  0.00    -0.208 C  
HETATM   46  O   UNL     1      -6.042  18.029  67.566  1.00  0.00    -0.153 OA 
BRANCH  45  47
HETATM   47  C   UNL     1      -7.827  19.598  67.748  1.00  0.00    -0.290 C  
BRANCH  47  48
HETATM   48  O   UNL     1      -8.142  20.337  66.581  1.00  0.00    -0.295 OA 
BRANCH  48  49
HETATM   49  C   UNL     1      -9.452  20.275  66.221  1.00  0.00    -0.268 C  
HETATM   50  O   UNL     1      -9.861  19.971  65.111  1.00  0.00     0.018 OA 
BRANCH  49  51
HETATM   51  C   UNL     1     -10.329  20.597  67.404  1.00  0.00    -0.067 C  
BRANCH  51  52
HETATM   52  C   UNL     1     -10.201  19.541  68.501  1.00  0.00    -0.517 C  
BRANCH  52  53
HETATM   53  C   UNL     1      -8.878  19.657  69.262  1.00  0.00     0.048 C  
HETATM   54  C   UNL     1      -9.069  20.217  70.659  1.00  0.00     1.648 C  
ENDBRANCH  52  53
ENDBRANCH  51  52
ENDBRANCH  49  51
ENDBRANCH  48  49
ENDBRANCH  47  48
ENDBRANCH  45  47
ENDBRANCH   5  45
BRANCH  15  55
HETATM   55  O   UNL     1     -11.643   8.149  68.453  1.00  0.00     0.993 OA 
HETATM   56  C   UNL     1     -12.579   8.421  69.492  1.00  0.00     2.851 C  
ENDBRANCH  15  55
TORSDOF 11
ENDMDL
MODEL      114
REMARK 921   NORMALIZED FREE ENERGY PREDICTED BY IDOCK:   45.61 KCAL/MOL
REMARK 922        TOTAL FREE ENERGY PREDICTED BY IDOCK:   71.39 KCAL/MOL
REMARK 923 INTER-LIGAND FREE ENERGY PREDICTED BY IDOCK:   49.59 KCAL/MOL
REMARK 924 INTRA-LIGAND FREE ENERGY PREDICTED BY IDOCK:   21.80 KCAL/MOL
REMARK 927      BINDING AFFINITY PREDICTED BY RF-SCORE:    0.00 PKD
ROOT
HETATM    1  C   UNL     1      -7.972  12.120  68.551  1.00  0.00    -0.119 C  
HETATM    2  O   UNL     1      -5.211  17.021  65.237  1.00  0.00     0.435 OA 
HETATM    3  C   UNL     1      -7.323  10.778  68.108  1.00  0.00    -0.088 C  
HETATM    4  C   UNL     1      -5.845  17.009  66.293  1.00  0.00     0.094 C  
HETATM    5  C   UNL     1      -7.124  10.750  66.595  1.00  0.00    -0.133 C  
HETATM    6  O   UNL     1      -8.425  10.905  66.000  1.00  0.00    -0.163 OA 
HETATM    7  C   UNL     1      -6.155  11.912  66.212  1.00  0.00     0.569 C  
HETATM    8  C   UNL     1      -6.303  18.305  66.893  1.00  0.00    -0.198 A  
HETATM    9  C   UNL     1      -6.132  19.504  66.183  1.00  0.00    -0.182 A  
HETATM   10  C   UNL     1      -6.422  13.260  66.882  1.00  0.00     1.000 A  
HETATM   11  C   UNL     1      -6.580  20.717  66.715  1.00  0.00    -0.322 A  
HETATM   12  C   UNL     1      -7.173  20.753  67.974  1.00  0.00    -0.144 A  
HETATM   13  H   UNL     1      -8.339  13.735  70.296  1.00  0.00     0.000 HD 
HETATM   14  H   UNL     1      -8.301  10.887  65.059  1.00  0.00     0.000 HD 
HETATM   15  C   UNL     1      -7.324  19.575  68.712  1.00  0.00    -0.358 A  
HETATM   16  O   UNL     1      -8.027  14.548  69.915  1.00  0.00     0.202 OA 
HETATM   17  C   UNL     1      -5.945  14.474  66.332  1.00  0.00     4.111 A  
HETATM   18  C   UNL     1      -6.914  18.337  68.153  1.00  0.00    -0.230 A  
HETATM   19  O   UNL     1      -5.246  14.392  65.150  1.00  0.00    10.613 OA 
HETATM   20  C   UNL     1      -6.211  15.730  66.940  1.00  0.00     0.412 A  
HETATM   21  O   UNL     1      -7.519  16.999  70.019  1.00  0.00     0.722 OA 
HETATM   22  C   UNL     1      -7.157  13.319  68.081  1.00  0.00    -0.111 A  
HETATM   23  C   UNL     1      -7.331  14.560  68.729  1.00  0.00    -0.129 A  
HETATM   24  C   UNL     1      -7.115  17.050  68.858  1.00  0.00    -0.233 C  
HETATM   25  C   UNL     1      -6.868  15.763  68.166  1.00  0.00    -0.128 A  
HETATM   26  H   UNL     1      -4.926  15.206  64.780  1.00  0.00     0.000 HD 
ENDROOT
BRANCH   1  27
HETATM   27  O   UNL     1      -9.259  12.444  67.997  1.00  0.00    -0.190 OA 
BRANCH  27  28
HETATM   28  C   UNL     1     -10.233  13.084  68.806  1.00  0.00    -0.089 C  
HETATM   29  O   UNL     1      -9.577  13.979  69.735  1.00  0.00     0.684 OA 
HETATM   30  C   UNL     1      -8.152  14.323  71.696  1.00  0.00     5.601 C  
HETATM   31  C   UNL     1      -9.842  12.477  71.627  1.00  0.00    13.945 C  
HETATM   32  O   UNL     1     -10.917  13.283  72.141  1.00  0.00     4.184 OA 
HETATM   33  H   UNL     1     -10.576  13.948  72.728  1.00  0.00     0.000 HD 
HETATM   34  C   UNL     1     -10.393  11.403  70.680  1.00  0.00     2.738 C  
HETATM   35  C   UNL     1      -8.871  13.320  70.796  1.00  0.00     7.533 C  
HETATM   36  C   UNL     1     -11.139  12.070  69.523  1.00  0.00    -0.140 C  
BRANCH  34  37
HETATM   37  N   UNL     1     -11.202  10.423  71.400  1.00  0.00     0.003 N  
HETATM   38  H   UNL     1     -10.977  10.181  72.364  1.00  0.00     0.000 HD 
HETATM   39  C   UNL     1     -13.021   8.733  71.562  1.00  0.00    -0.319 C  
HETATM   40  F   UNL     1     -14.291   9.094  71.885  1.00  0.00    -0.381 F  
HETATM   41  O   UNL     1     -12.610  10.141  69.611  1.00  0.00     0.114 OA 
HETATM   42  F   UNL     1     -13.103   7.556  70.883  1.00  0.00    -0.283 F  
HETATM   43  F   UNL     1     -12.386   8.452  72.737  1.00  0.00    -0.435 F  
HETATM   44  C   UNL     1     -12.286   9.819  70.756  1.00  0.00    -0.256 C  
ENDBRANCH  34  37
ENDBRANCH  27  28
ENDBRANCH   1  27
BRANCH   5  45
HETATM   45  C   UNL     1      -6.693   9.461  65.855  1.00  0.00    -0.081 C  
HETATM   46  O   UNL     1      -6.022   8.615  66.469  1.00  0.00    -0.050 OA 
BRANCH  45  47
HETATM   47  C   UNL     1      -6.798   9.334  64.334  1.00  0.00    -0.086 C  
BRANCH  47  48
HETATM   48  O   UNL     1      -7.522  10.322  63.621  1.00  0.00    -0.143 OA 
BRANCH  48  49
HETATM   49  C   UNL     1      -8.526  10.897  64.335  1.00  0.00     0.101 C  
HETATM   50  O   UNL     1      -9.114  10.370  65.267  1.00  0.00    -0.171 OA 
BRANCH  49  51
HETATM   51  C   UNL     1      -8.783  12.295  63.835  1.00  0.00     1.728 C  
BRANCH  51  52
HETATM   52  C   UNL     1     -10.219  12.460  63.342  1.00  0.00    -0.252 C  
BRANCH  52  53
HETATM   53  C   UNL     1     -11.048  13.352  64.271  1.00  0.00    -0.396 C  
HETATM   54  C   UNL     1     -10.180  14.133  65.239  1.00  0.00    -0.400 C  
ENDBRANCH  52  53
ENDBRANCH  51  52
ENDBRANCH  49  51
ENDBRANCH  48  49
ENDBRANCH  47  48
ENDBRANCH  45  47
ENDBRANCH   5  45
BRANCH  15  55
HETATM   55  O   UNL     1      -7.933  19.570  69.942  1.00  0.00     0.231 OA 
HETATM   56  C   UNL     1      -9.336  19.816  69.980  1.00  0.00     0.784 C  
ENDBRANCH  15  55
TORSDOF 11
ENDMDL
MODEL      115
REMARK 921   NORMALIZED FREE ENERGY PREDICTED BY IDOCK:   50.17 KCAL/MOL
REMARK 922        TOTAL FREE ENERGY PREDICTED BY IDOCK:   78.89 KCAL/MOL
REMARK 923 INTER-LIGAND FREE ENERGY PREDICTED BY IDOCK:   37.70 KCAL/MOL
REMARK 924 INTRA-LIGAND FREE ENERGY PREDICTED BY IDOCK:   41.19 KCAL/MOL
REMARK 927      BINDING AFFINITY PREDICTED BY RF-SCORE:    0.00 PKD
ROOT
HETATM    1  C   UNL     1      -7.971  12.121  68.553  1.00  0.00    -0.119 C  
HETATM    2  O   UNL     1      -5.268  17.001  65.163  1.00  0.00     0.645 OA 
HETATM    3  C   UNL     1      -7.336  10.775  68.100  1.00  0.00    -0.088 C  
HETATM    4  C   UNL     1      -5.879  16.995  66.233  1.00  0.00     0.094 C  
HETATM    5  C   UNL     1      -7.171  10.741  66.584  1.00  0.00    -0.134 C  
HETATM    6  O   UNL     1      -8.484  10.899  66.017  1.00  0.00    -0.163 OA 
HETATM    7  C   UNL     1      -6.207  11.899  66.175  1.00  0.00     0.807 C  
HETATM    8  C   UNL     1      -6.319  18.294  66.839  1.00  0.00    -0.198 A  
HETATM    9  C   UNL     1      -6.160  19.491  66.121  1.00  0.00    -0.182 A  
HETATM   10  C   UNL     1      -6.454  13.250  66.847  1.00  0.00     1.000 A  
HETATM   11  C   UNL     1      -6.592  20.707  66.659  1.00  0.00    -0.321 A  
HETATM   12  C   UNL     1      -7.157  20.749  67.931  1.00  0.00    -0.253 A  
HETATM   13  H   UNL     1      -8.294  13.742  70.300  1.00  0.00     0.000 HD 
HETATM   14  H   UNL     1      -8.382  10.878  65.073  1.00  0.00     0.000 HD 
HETATM   15  C   UNL     1      -7.295  19.573  68.676  1.00  0.00    -0.346 A  
HETATM   16  O   UNL     1      -7.987  14.552  69.910  1.00  0.00     0.202 OA 
HETATM   17  C   UNL     1      -5.986  14.461  66.282  1.00  0.00     4.993 A  
HETATM   18  C   UNL     1      -6.901  18.333  68.112  1.00  0.00    -0.218 A  
HETATM   19  O   UNL     1      -5.314  14.372  65.085  1.00  0.00    10.908 OA 
HETATM   20  C   UNL     1      -6.234  15.719  66.892  1.00  0.00     0.412 A  
HETATM   21  O   UNL     1      -7.469  17.003  69.995  1.00  0.00     0.722 OA 
HETATM   22  C   UNL     1      -7.163  13.315  68.062  1.00  0.00    -0.121 A  
HETATM   23  C   UNL     1      -7.318  14.559  68.710  1.00  0.00    -0.129 A  
HETATM   24  C   UNL     1      -7.091  17.048  68.825  1.00  0.00    -0.219 C  
HETATM   25  C   UNL     1      -6.864  15.758  68.132  1.00  0.00    -0.128 A  
HETATM   26  H   UNL     1      -4.999  15.185  64.706  1.00  0.00     0.000 HD 
ENDROOT
BRANCH   1  27
HETATM   27  O   UNL     1      -9.269  12.447  68.026  1.00  0.00    -0.190 OA 
BRANCH  27  28
HETATM   28  C   UNL     1     -10.217  13.106  68.851  1.00  0.00    -0.005 C  
HETATM   29  O   UNL     1     -10.461  14.437  68.338  1.00  0.00    -0.233 OA 
HETATM   30  C   UNL     1      -9.684  16.720  67.918  1.00  0.00    -0.245 C  
HETATM   31  C   UNL     1      -9.105  15.521  70.038  1.00  0.00     0.290 C  
HETATM   32  O   UNL     1     -10.287  15.945  70.739  1.00  0.00     0.084 OA 
HETATM   33  H   UNL     1     -10.563  16.799  70.428  1.00  0.00     0.000 HD 
HETATM   34  C   UNL     1      -8.657  14.142  70.541  1.00  0.00     2.999 C  
HETATM   35  C   UNL     1      -9.380  15.359  68.541  1.00  0.00    -0.198 C  
HETATM   36  C   UNL     1      -9.780  13.125  70.325  1.00  0.00     3.821 C  
BRANCH  34  37
HETATM   37  N   UNL     1      -8.194  14.204  71.924  1.00  0.00     5.743 N  
HETATM   38  H   UNL     1      -8.817  13.941  72.687  1.00  0.00     0.000 HD 
HETATM   39  C   UNL     1      -6.523  14.752  73.685  1.00  0.00     1.935 C  
HETATM   40  F   UNL     1      -5.579  13.851  74.065  1.00  0.00    -0.301 F  
HETATM   41  O   UNL     1      -6.103  14.897  71.285  1.00  0.00     0.066 OA 
HETATM   42  F   UNL     1      -6.042  15.986  73.997  1.00  0.00     1.393 F  
HETATM   43  F   UNL     1      -7.603  14.548  74.495  1.00  0.00     2.901 F  
HETATM   44  C   UNL     1      -6.891  14.629  72.195  1.00  0.00     2.193 C  
ENDBRANCH  34  37
ENDBRANCH  27  28
ENDBRANCH   1  27
BRANCH   5  45
HETATM   45  C   UNL     1      -6.761   9.449  65.838  1.00  0.00    -0.081 C  
HETATM   46  O   UNL     1      -6.079   8.602  66.440  1.00  0.00    -0.054 OA 
BRANCH  45  47
HETATM   47  C   UNL     1      -6.899   9.317  64.320  1.00  0.00    -0.090 C  
BRANCH  47  48
HETATM   48  O   UNL     1      -7.632  10.308  63.619  1.00  0.00    -0.150 OA 
BRANCH  48  49
HETATM   49  C   UNL     1      -8.616  10.892  64.354  1.00  0.00     0.044 C  
HETATM   50  O   UNL     1      -9.053  10.461  65.410  1.00  0.00    -0.169 OA 
BRANCH  49  51
HETATM   51  C   UNL     1      -9.063  12.172  63.696  1.00  0.00     0.687 C  
BRANCH  51  52
HETATM   52  C   UNL     1     -10.549  12.136  63.348  1.00  0.00    -0.454 C  
BRANCH  52  53
HETATM   53  C   UNL     1     -11.371  13.080  64.229  1.00  0.00    -0.419 C  
HETATM   54  C   UNL     1     -12.653  13.525  63.551  1.00  0.00    -0.063 C  
ENDBRANCH  52  53
ENDBRANCH  51  52
ENDBRANCH  49  51
ENDBRANCH  48  49
ENDBRANCH  47  48
ENDBRANCH  45  47
ENDBRANCH   5  45
BRANCH  15  55
HETATM   55  O   UNL     1      -7.876  19.574  69.920  1.00  0.00     0.172 OA 
HETATM   56  C   UNL     1      -9.277  19.825  69.988  1.00  0.00     0.863 C  
ENDBRANCH  15  55
TORSDOF 11
ENDMDL
MODEL      116
REMARK 921   NORMALIZED FREE ENERGY PREDICTED BY IDOCK:   50.85 KCAL/MOL
REMARK 922        TOTAL FREE ENERGY PREDICTED BY IDOCK:   79.99 KCAL/MOL
REMARK 923 INTER-LIGAND FREE ENERGY PREDICTED BY IDOCK:   42.42 KCAL/MOL
REMARK 924 INTRA-LIGAND FREE ENERGY PREDICTED BY IDOCK:   37.57 KCAL/MOL
REMARK 927      BINDING AFFINITY PREDICTED BY RF-SCORE:    0.00 PKD
ROOT
HETATM    1  C   UNL     1      -9.310  15.089  65.376  1.00  0.00     0.284 C  
HETATM    2  O   UNL     1      -6.520  10.183  68.657  1.00  0.00    -0.052 OA 
HETATM    3  C   UNL     1      -9.082  16.416  66.155  1.00  0.00    -0.362 C  
HETATM    4  C   UNL     1      -6.859  10.283  67.477  1.00  0.00    -0.072 C  
HETATM    5  C   UNL     1      -9.278  16.201  67.653  1.00  0.00    -0.205 C  
HETATM    6  O   UNL     1     -10.626  15.731  67.835  1.00  0.00    -0.267 OA 
HETATM    7  C   UNL     1      -8.218  15.162  68.137  1.00  0.00    -0.145 C  
HETATM    8  C   UNL     1      -6.876   9.061  66.607  1.00  0.00    -0.080 A  
HETATM    9  C   UNL     1      -6.646   7.797  67.173  1.00  0.00    -0.063 A  
HETATM   10  C   UNL     1      -8.026  13.933  67.247  1.00  0.00    -0.147 A  
HETATM   11  C   UNL     1      -6.687   6.645  66.383  1.00  0.00    -0.053 A  
HETATM   12  C   UNL     1      -6.926   6.742  65.014  1.00  0.00    -0.051 A  
HETATM   13  H   UNL     1      -8.889  13.781  63.402  1.00  0.00     0.000 HD 
HETATM   14  H   UNL     1     -10.748  15.597  68.767  1.00  0.00     0.000 HD 
HETATM   15  C   UNL     1      -7.126   7.995  64.425  1.00  0.00    -0.077 A  
HETATM   16  O   UNL     1      -8.522  12.975  63.745  1.00  0.00     3.566 OA 
HETATM   17  C   UNL     1      -7.464  12.732  67.745  1.00  0.00    -0.135 A  
HETATM   18  C   UNL     1      -7.132   9.160  65.234  1.00  0.00    -0.088 A  
HETATM   19  O   UNL     1      -7.115  12.711  69.075  1.00  0.00    -0.178 OA 
HETATM   20  C   UNL     1      -7.306  11.582  66.927  1.00  0.00    -0.140 A  
HETATM   21  O   UNL     1      -7.512  10.698  63.466  1.00  0.00    -0.009 OA 
HETATM   22  C   UNL     1      -8.410  13.974  65.893  1.00  0.00     1.799 A  
HETATM   23  C   UNL     1      -8.158  12.860  65.065  1.00  0.00     4.339 A  
HETATM   24  C   UNL     1      -7.410  10.504  64.676  1.00  0.00     0.063 C  
HETATM   25  C   UNL     1      -7.614  11.666  65.573  1.00  0.00     0.997 A  
HETATM   26  H   UNL     1      -6.738  11.906  69.409  1.00  0.00     0.000 HD 
ENDROOT
BRANCH   1  27
HETATM   27  O   UNL     1     -10.600  14.466  65.500  1.00  0.00    -0.310 OA 
BRANCH  27  28
HETATM   28  C   UNL     1     -11.771  15.266  65.495  1.00  0.00     0.025 C  
HETATM   29  O   UNL     1     -11.605  16.359  64.561  1.00  0.00    -0.471 OA 
HETATM   30  C   UNL     1     -10.523  18.465  63.936  1.00  0.00     8.917 C  
HETATM   31  C   UNL     1     -11.198  18.004  66.303  1.00  0.00     0.858 C  
HETATM   32  O   UNL     1     -12.530  18.526  66.149  1.00  0.00     5.170 OA 
HETATM   33  H   UNL     1     -12.535  19.224  65.504  1.00  0.00     0.000 HD 
HETATM   34  C   UNL     1     -11.189  16.878  67.345  1.00  0.00     0.170 C  
HETATM   35  C   UNL     1     -10.696  17.380  64.998  1.00  0.00     0.304 C  
HETATM   36  C   UNL     1     -12.136  15.760  66.904  1.00  0.00     1.026 C  
BRANCH  34  37
HETATM   37  N   UNL     1     -11.481  17.388  68.682  1.00  0.00     0.207 N  
HETATM   38  H   UNL     1     -11.357  18.377  68.893  1.00  0.00     0.000 HD 
HETATM   39  C   UNL     1     -12.125  17.119  71.071  1.00  0.00     3.027 C  
HETATM   40  F   UNL     1     -13.429  17.140  71.456  1.00  0.00     3.805 F  
HETATM   41  O   UNL     1     -12.146  15.320  69.421  1.00  0.00    -0.313 OA 
HETATM   42  F   UNL     1     -11.439  16.437  72.029  1.00  0.00    -0.477 F  
HETATM   43  F   UNL     1     -11.682  18.409  71.131  1.00  0.00     3.253 F  
HETATM   44  C   UNL     1     -11.933  16.509  69.671  1.00  0.00     0.583 C  
ENDBRANCH  34  37
ENDBRANCH  27  28
ENDBRANCH   1  27
BRANCH   5  45
HETATM   45  C   UNL     1      -9.320  17.386  68.647  1.00  0.00    -0.267 C  
HETATM   46  O   UNL     1      -9.881  18.439  68.300  1.00  0.00    -0.320 OA 
BRANCH  45  47
HETATM   47  C   UNL     1      -8.443  17.417  69.901  1.00  0.00     1.668 C  
BRANCH  47  48
HETATM   48  O   UNL     1      -7.447  16.419  70.053  1.00  0.00     0.395 OA 
BRANCH  48  49
HETATM   49  C   UNL     1      -6.293  16.681  69.384  1.00  0.00    -0.215 C  
HETATM   50  O   UNL     1      -6.169  17.516  68.500  1.00  0.00    -0.167 OA 
BRANCH  49  51
HETATM   51  C   UNL     1      -5.178  15.820  69.918  1.00  0.00    -0.119 C  
BRANCH  51  52
HETATM   52  C   UNL     1      -5.702  14.751  70.874  1.00  0.00    -0.126 C  
BRANCH  52  53
HETATM   53  C   UNL     1      -7.150  14.361  70.564  1.00  0.00     0.541 C  
HETATM   54  C   UNL     1      -7.972  14.166  71.825  1.00  0.00     6.100 C  
ENDBRANCH  52  53
ENDBRANCH  51  52
ENDBRANCH  49  51
ENDBRANCH  48  49
ENDBRANCH  47  48
ENDBRANCH  45  47
ENDBRANCH   5  45
BRANCH  15  55
HETATM   55  O   UNL     1      -7.396   8.124  63.085  1.00  0.00    -0.093 OA 
HETATM   56  C   UNL     1      -8.722   7.834  62.652  1.00  0.00     0.325 C  
ENDBRANCH  15  55
TORSDOF 11
ENDMDL
MODEL      117
REMARK 921   NORMALIZED FREE ENERGY PREDICTED BY IDOCK:   53.14 KCAL/MOL
REMARK 922        TOTAL FREE ENERGY PREDICTED BY IDOCK:   83.77 KCAL/MOL
REMARK 923 INTER-LIGAND FREE ENERGY PREDICTED BY IDOCK:   72.25 KCAL/MOL
REMARK 924 INTRA-LIGAND FREE ENERGY PREDICTED BY IDOCK:   11.52 KCAL/MOL
REMARK 927      BINDING AFFINITY PREDICTED BY RF-SCORE:    0.00 PKD
ROOT
HETATM    1  C   UNL     1     -13.032  12.505  68.108  1.00  0.00     2.953 C  
HETATM    2  O   UNL     1      -6.547  11.749  68.114  1.00  0.00    -0.053 OA 
HETATM    3  C   UNL     1     -13.402  13.712  67.200  1.00  0.00     3.725 C  
HETATM    4  C   UNL     1      -7.457  10.968  68.398  1.00  0.00    -0.100 C  
HETATM    5  C   UNL     1     -12.431  14.868  67.420  1.00  0.00     0.604 C  
HETATM    6  O   UNL     1     -12.522  15.232  68.810  1.00  0.00    -0.583 OA 
HETATM    7  C   UNL     1     -11.001  14.382  67.028  1.00  0.00    -0.304 C  
HETATM    8  C   UNL     1      -7.132   9.670  69.076  1.00  0.00    -0.066 A  
HETATM    9  C   UNL     1      -5.820   9.416  69.507  1.00  0.00    -0.033 A  
HETATM   10  C   UNL     1     -10.600  12.994  67.530  1.00  0.00    -0.237 A  
HETATM   11  C   UNL     1      -5.506   8.224  70.166  1.00  0.00    -0.022 A  
HETATM   12  C   UNL     1      -6.487   7.258  70.374  1.00  0.00    -0.042 A  
HETATM   13  H   UNL     1     -13.137  10.133  68.498  1.00  0.00     0.000 HD 
HETATM   14  H   UNL     1     -11.918  15.952  68.947  1.00  0.00     0.000 HD 
HETATM   15  C   UNL     1      -7.793   7.478  69.924  1.00  0.00    -0.107 A  
HETATM   16  O   UNL     1     -12.224   9.882  68.584  1.00  0.00     0.559 OA 
HETATM   17  C   UNL     1      -9.243  12.605  67.646  1.00  0.00    -0.191 A  
HETATM   18  C   UNL     1      -8.124   8.707  69.298  1.00  0.00    -0.112 A  
HETATM   19  O   UNL     1      -8.295  13.541  67.307  1.00  0.00    -0.186 OA 
HETATM   20  C   UNL     1      -8.869  11.325  68.134  1.00  0.00    -0.159 A  
HETATM   21  O   UNL     1     -10.407   8.187  68.901  1.00  0.00    -0.211 OA 
HETATM   22  C   UNL     1     -11.591  12.061  67.891  1.00  0.00    -0.405 A  
HETATM   23  C   UNL     1     -11.210  10.759  68.280  1.00  0.00    -0.297 A  
HETATM   24  C   UNL     1      -9.505   9.024  68.867  1.00  0.00    -0.151 C  
HETATM   25  C   UNL     1      -9.860  10.388  68.408  1.00  0.00    -0.173 A  
HETATM   26  H   UNL     1      -7.385  13.281  67.385  1.00  0.00     0.000 HD 
ENDROOT
BRANCH   1  27
HETATM   27  O   UNL     1     -13.028  12.726  69.529  1.00  0.00     0.745 OA 
BRANCH  27  28
HETATM   28  C   UNL     1     -13.832  11.915  70.370  1.00  0.00     3.170 C  
HETATM   29  O   UNL     1     -13.511  12.186  71.755  1.00  0.00    -0.327 OA 
HETATM   30  C   UNL     1     -11.942  12.055  73.630  1.00  0.00    11.272 C  
HETATM   31  C   UNL     1     -12.208  10.152  72.024  1.00  0.00     0.039 C  
HETATM   32  O   UNL     1     -13.285   9.536  72.751  1.00  0.00    -0.537 OA 
HETATM   33  H   UNL     1     -13.193   9.707  73.681  1.00  0.00     0.000 HD 
HETATM   34  C   UNL     1     -12.356   9.875  70.522  1.00  0.00    -0.150 C  
HETATM   35  C   UNL     1     -12.239  11.675  72.181  1.00  0.00     1.446 C  
HETATM   36  C   UNL     1     -13.696  10.423  70.027  1.00  0.00     1.354 C  
BRANCH  34  37
HETATM   37  N   UNL     1     -12.165   8.459  70.222  1.00  0.00    -0.208 N  
HETATM   38  H   UNL     1     -11.320   7.978  70.528  1.00  0.00     0.000 HD 
HETATM   39  C   UNL     1     -12.819   6.305  69.161  1.00  0.00     5.934 C  
HETATM   40  F   UNL     1     -13.626   5.419  69.803  1.00  0.00     7.204 F  
HETATM   41  O   UNL     1     -14.205   8.313  69.183  1.00  0.00     7.369 OA 
HETATM   42  F   UNL     1     -12.937   6.055  67.828  1.00  0.00     5.737 F  
HETATM   43  F   UNL     1     -11.537   5.977  69.498  1.00  0.00    -0.481 F  
HETATM   44  C   UNL     1     -13.150   7.767  69.511  1.00  0.00     4.253 C  
ENDBRANCH  34  37
ENDBRANCH  27  28
ENDBRANCH   1  27
BRANCH   5  45
HETATM   45  C   UNL     1     -12.679  16.267  66.808  1.00  0.00     3.734 C  
HETATM   46  O   UNL     1     -13.791  16.800  66.963  1.00  0.00     7.651 OA 
BRANCH  45  47
HETATM   47  C   UNL     1     -11.727  16.874  65.774  1.00  0.00     1.700 C  
BRANCH  47  48
HETATM   48  O   UNL     1     -12.178  17.006  64.436  1.00  0.00     0.894 OA 
BRANCH  48  49
HETATM   49  C   UNL     1     -11.891  15.937  63.647  1.00  0.00     1.056 C  
HETATM   50  O   UNL     1     -12.149  15.857  62.455  1.00  0.00     4.023 OA 
BRANCH  49  51
HETATM   51  C   UNL     1     -11.172  14.881  64.446  1.00  0.00    -0.171 C  
BRANCH  51  52
HETATM   52  C   UNL     1     -10.283  14.014  63.558  1.00  0.00     3.298 C  
BRANCH  52  53
HETATM   53  C   UNL     1     -10.690  12.539  63.598  1.00  0.00    -0.469 C  
HETATM   54  C   UNL     1     -11.756  12.268  64.644  1.00  0.00    -0.420 C  
ENDBRANCH  52  53
ENDBRANCH  51  52
ENDBRANCH  49  51
ENDBRANCH  48  49
ENDBRANCH  47  48
ENDBRANCH  45  47
ENDBRANCH   5  45
BRANCH  15  55
HETATM   55  O   UNL     1      -8.792   6.561  70.140  1.00  0.00    -0.142 OA 
HETATM   56  C   UNL     1      -8.751   5.823  71.359  1.00  0.00    -0.133 C  
ENDBRANCH  15  55
TORSDOF 11
ENDMDL
MODEL      118
REMARK 921   NORMALIZED FREE ENERGY PREDICTED BY IDOCK:   55.97 KCAL/MOL
REMARK 922        TOTAL FREE ENERGY PREDICTED BY IDOCK:   88.41 KCAL/MOL
REMARK 923 INTER-LIGAND FREE ENERGY PREDICTED BY IDOCK:   15.90 KCAL/MOL
REMARK 924 INTRA-LIGAND FREE ENERGY PREDICTED BY IDOCK:   72.51 KCAL/MOL
REMARK 927      BINDING AFFINITY PREDICTED BY RF-SCORE:    0.00 PKD
ROOT
HETATM    1  C   UNL     1     -10.801  11.898  71.316  1.00  0.00     4.598 C  
HETATM    2  O   UNL     1     -10.164   7.088  66.948  1.00  0.00    -0.219 OA 
HETATM    3  C   UNL     1     -11.762  12.979  70.744  1.00  0.00     0.292 C  
HETATM    4  C   UNL     1      -9.954   7.117  68.162  1.00  0.00    -0.151 C  
HETATM    5  C   UNL     1     -11.471  13.231  69.268  1.00  0.00    -0.288 C  
HETATM    6  O   UNL     1     -10.104  13.670  69.180  1.00  0.00    -0.428 OA 
HETATM    7  C   UNL     1     -11.717  11.900  68.491  1.00  0.00    -0.388 C  
HETATM    8  C   UNL     1      -9.225   5.979  68.813  1.00  0.00    -0.123 A  
HETATM    9  C   UNL     1      -8.667   4.962  68.021  1.00  0.00    -0.107 A  
HETATM   10  C   UNL     1     -11.153  10.632  69.135  1.00  0.00    -0.309 A  
HETATM   11  C   UNL     1      -7.959   3.910  68.610  1.00  0.00    -0.068 A  
HETATM   12  C   UNL     1      -7.828   3.841  69.995  1.00  0.00    -0.047 A  
HETATM   13  H   UNL     1     -10.380  10.212  72.979  1.00  0.00     0.000 HD 
HETATM   14  H   UNL     1      -9.923  13.827  68.261  1.00  0.00     0.000 HD 
HETATM   15  C   UNL     1      -8.404   4.827  70.803  1.00  0.00    -0.094 A  
HETATM   16  O   UNL     1     -10.202   9.433  72.465  1.00  0.00     0.615 OA 
HETATM   17  C   UNL     1     -10.902   9.460  68.379  1.00  0.00    -0.109 A  
HETATM   18  C   UNL     1      -9.081   5.921  70.204  1.00  0.00    -0.155 A  
HETATM   19  O   UNL     1     -11.167   9.518  67.031  1.00  0.00    -0.128 OA 
HETATM   20  C   UNL     1     -10.357   8.289  68.970  1.00  0.00    -0.233 A  
HETATM   21  O   UNL     1      -9.683   6.992  72.236  1.00  0.00    -0.154 OA 
HETATM   22  C   UNL     1     -10.872  10.605  70.514  1.00  0.00     0.067 A  
HETATM   23  C   UNL     1     -10.425   9.406  71.108  1.00  0.00    -0.322 A  
HETATM   24  C   UNL     1      -9.647   7.029  71.007  1.00  0.00    -0.170 C  
HETATM   25  C   UNL     1     -10.162   8.253  70.347  1.00  0.00    -0.209 A  
HETATM   26  H   UNL     1     -10.998   8.733  66.525  1.00  0.00     0.000 HD 
ENDROOT
BRANCH   1  27
HETATM   27  O   UNL     1      -9.390  12.170  71.252  1.00  0.00     9.672 OA 
BRANCH  27  28
HETATM   28  C   UNL     1      -8.881  13.005  70.224  1.00  0.00     4.773 C  
HETATM   29  O   UNL     1      -9.975  13.499  69.416  1.00  0.00     0.312 OA 
HETATM   30  C   UNL     1     -11.761  13.090  67.791  1.00  0.00    -0.405 C  
HETATM   31  C   UNL     1      -9.534  11.966  67.583  1.00  0.00    -0.182 C  
HETATM   32  O   UNL     1      -8.939  13.025  66.814  1.00  0.00    -0.265 OA 
HETATM   33  H   UNL     1      -9.599  13.456  66.284  1.00  0.00     0.000 HD 
HETATM   34  C   UNL     1      -8.467  11.271  68.440  1.00  0.00    -0.153 C  
HETATM   35  C   UNL     1     -10.576  12.513  68.562  1.00  0.00    -0.243 C  
HETATM   36  C   UNL     1      -7.816  12.289  69.378  1.00  0.00     0.648 C  
BRANCH  34  37
HETATM   37  N   UNL     1      -7.504  10.552  67.610  1.00  0.00    -0.091 N  
HETATM   38  H   UNL     1      -6.529  10.847  67.582  1.00  0.00     0.000 HD 
HETATM   39  C   UNL     1      -6.865   8.819  65.942  1.00  0.00    -0.068 C  
HETATM   40  F   UNL     1      -6.534   7.558  66.327  1.00  0.00    -0.044 F  
HETATM   41  O   UNL     1      -9.090   9.045  66.921  1.00  0.00    -0.127 OA 
HETATM   42  F   UNL     1      -7.278   8.743  64.647  1.00  0.00    -0.089 F  
HETATM   43  F   UNL     1      -5.706   9.540  65.931  1.00  0.00    -0.046 F  
HETATM   44  C   UNL     1      -7.929   9.455  66.856  1.00  0.00    -0.109 C  
ENDBRANCH  34  37
ENDBRANCH  27  28
ENDBRANCH   1  27
BRANCH   5  45
HETATM   45  C   UNL     1     -12.130  14.399  68.497  1.00  0.00    -0.243 C  
HETATM   46  O   UNL     1     -13.187  14.188  67.878  1.00  0.00     1.846 OA 
BRANCH  45  47
HETATM   47  C   UNL     1     -11.379  15.704  68.217  1.00  0.00    -0.356 C  
BRANCH  47  48
HETATM   48  O   UNL     1     -11.251  16.648  69.267  1.00  0.00    -0.260 OA 
BRANCH  48  49
HETATM   49  C   UNL     1     -10.453  17.707  68.966  1.00  0.00    -0.200 C  
HETATM   50  O   UNL     1      -9.519  18.097  69.649  1.00  0.00     0.365 OA 
BRANCH  49  51
HETATM   51  C   UNL     1     -10.863  18.305  67.644  1.00  0.00    -0.272 C  
BRANCH  51  52
HETATM   52  C   UNL     1      -9.822  18.038  66.560  1.00  0.00    -0.353 C  
BRANCH  52  53
HETATM   53  C   UNL     1      -9.614  19.251  65.650  1.00  0.00     0.347 C  
HETATM   54  C   UNL     1     -10.786  20.213  65.701  1.00  0.00    -0.242 C  
ENDBRANCH  52  53
ENDBRANCH  51  52
ENDBRANCH  49  51
ENDBRANCH  48  49
ENDBRANCH  47  48
ENDBRANCH  45  47
ENDBRANCH   5  45
BRANCH  15  55
HETATM   55  O   UNL     1      -8.267   4.807  72.169  1.00  0.00    -0.107 OA 
HETATM   56  C   UNL     1      -6.956   4.986  72.699  1.00  0.00    -0.080 C  
ENDBRANCH  15  55
TORSDOF 11
ENDMDL
MODEL      119
REMARK 921   NORMALIZED FREE ENERGY PREDICTED BY IDOCK:   56.94 KCAL/MOL
REMARK 922        TOTAL FREE ENERGY PREDICTED BY IDOCK:   90.00 KCAL/MOL
REMARK 923 INTER-LIGAND FREE ENERGY PREDICTED BY IDOCK:   -5.99 KCAL/MOL
REMARK 924 INTRA-LIGAND FREE ENERGY PREDICTED BY IDOCK:   95.99 KCAL/MOL
REMARK 927      BINDING AFFINITY PREDICTED BY RF-SCORE:    0.00 PKD
ROOT
HETATM    1  C   UNL     1      -8.466   4.865  68.135  1.00  0.00    -0.102 C  
HETATM    2  O   UNL     1     -11.752  10.149  70.111  1.00  0.00    -0.261 OA 
HETATM    3  C   UNL     1      -8.698   3.712  69.153  1.00  0.00    -0.137 C  
HETATM    4  C   UNL     1     -11.309   9.833  69.005  1.00  0.00     0.035 C  
HETATM    5  C   UNL     1      -8.642   4.239  70.584  1.00  0.00    -0.078 C  
HETATM    6  O   UNL     1      -7.338   4.820  70.764  1.00  0.00    -0.053 OA 
HETATM    7  C   UNL     1      -9.786   5.286  70.762  1.00  0.00    -0.247 C  
HETATM    8  C   UNL     1     -11.275  10.852  67.905  1.00  0.00    -0.387 A  
HETATM    9  C   UNL     1     -11.611  12.188  68.178  1.00  0.00    -0.397 A  
HETATM   10  C   UNL     1      -9.958   6.294  69.625  1.00  0.00    -0.201 A  
HETATM   11  C   UNL     1     -11.556  13.156  67.171  1.00  0.00    -0.410 A  
HETATM   12  C   UNL     1     -11.196  12.798  65.874  1.00  0.00    -0.334 A  
HETATM   13  H   UNL     1      -8.777   5.716  65.907  1.00  0.00     0.000 HD 
HETATM   14  H   UNL     1      -7.302   5.148  71.655  1.00  0.00     0.000 HD 
HETATM   15  C   UNL     1     -10.889  11.467  65.574  1.00  0.00    -0.220 A  
HETATM   16  O   UNL     1      -9.210   6.551  66.046  1.00  0.00    -0.136 OA 
HETATM   17  C   UNL     1     -10.617   7.533  69.820  1.00  0.00    -0.241 A  
HETATM   18  C   UNL     1     -10.898  10.493  66.605  1.00  0.00    -0.166 A  
HETATM   19  O   UNL     1     -11.079   7.801  71.087  1.00  0.00    -0.241 OA 
HETATM   20  C   UNL     1     -10.757   8.480  68.771  1.00  0.00    -0.089 A  
HETATM   21  O   UNL     1     -10.297   8.655  65.227  1.00  0.00     1.312 OA 
HETATM   22  C   UNL     1      -9.458   6.003  68.341  1.00  0.00    -0.124 A  
HETATM   23  C   UNL     1      -9.691   6.908  67.284  1.00  0.00    -0.146 A  
HETATM   24  C   UNL     1     -10.511   9.084  66.360  1.00  0.00    -0.040 C  
HETATM   25  C   UNL     1     -10.330   8.143  67.491  1.00  0.00    -0.330 A  
HETATM   26  H   UNL     1     -11.520   8.632  71.217  1.00  0.00     0.000 HD 
ENDROOT
BRANCH   1  27
HETATM   27  O   UNL     1      -7.222   5.581  68.223  1.00  0.00    -0.069 OA 
BRANCH  27  28
HETATM   28  C   UNL     1      -6.870   6.233  69.432  1.00  0.00    -0.065 C  
HETATM   29  O   UNL     1      -7.918   6.036  70.410  1.00  0.00    -0.103 OA 
HETATM   30  C   UNL     1     -10.199   6.469  71.189  1.00  0.00    -0.219 C  
HETATM   31  C   UNL     1      -8.816   8.279  70.148  1.00  0.00    -0.141 C  
HETATM   32  O   UNL     1      -8.208   8.688  71.385  1.00  0.00    -0.137 OA 
HETATM   33  H   UNL     1      -8.807   8.542  72.108  1.00  0.00     0.000 HD 
HETATM   34  C   UNL     1      -7.848   8.514  68.980  1.00  0.00    -0.104 C  
HETATM   35  C   UNL     1      -9.119   6.778  70.153  1.00  0.00    -0.155 C  
HETATM   36  C   UNL     1      -6.559   7.723  69.211  1.00  0.00    -0.040 C  
BRANCH  34  37
HETATM   37  N   UNL     1      -7.619   9.939  68.758  1.00  0.00    -0.079 N  
HETATM   38  H   UNL     1      -8.012  10.628  69.398  1.00  0.00     0.000 HD 
HETATM   39  C   UNL     1      -6.746  11.873  67.459  1.00  0.00    -0.111 C  
HETATM   40  F   UNL     1      -5.480  12.334  67.645  1.00  0.00    -0.059 F  
HETATM   41  O   UNL     1      -6.321   9.533  66.911  1.00  0.00    -0.064 OA 
HETATM   42  F   UNL     1      -7.126  12.254  66.208  1.00  0.00     0.216 F  
HETATM   43  F   UNL     1      -7.543  12.563  68.326  1.00  0.00    -0.098 F  
HETATM   44  C   UNL     1      -6.855  10.351  67.663  1.00  0.00    -0.075 C  
ENDBRANCH  34  37
ENDBRANCH  27  28
ENDBRANCH   1  27
BRANCH   5  45
HETATM   45  C   UNL     1      -8.630   3.285  71.802  1.00  0.00    -0.076 C  
HETATM   46  O   UNL     1      -9.034   2.120  71.654  1.00  0.00    -0.070 OA 
BRANCH  45  47
HETATM   47  C   UNL     1      -8.433   3.804  73.229  1.00  0.00    -0.087 C  
BRANCH  47  48
HETATM   48  O   UNL     1      -9.568   3.911  74.072  1.00  0.00    -0.095 OA 
BRANCH  48  49
HETATM   49  C   UNL     1     -10.678   4.387  73.448  1.00  0.00    -0.239 C  
HETATM   50  O   UNL     1     -11.816   4.306  73.884  1.00  0.00     0.020 OA 
BRANCH  49  51
HETATM   51  C   UNL     1     -10.296   5.067  72.158  1.00  0.00    -0.276 C  
BRANCH  51  52
HETATM   52  C   UNL     1      -9.115   6.015  72.352  1.00  0.00    -0.136 C  
BRANCH  52  53
HETATM   53  C   UNL     1      -8.996   6.501  73.799  1.00  0.00    -0.144 C  
HETATM   54  C   UNL     1      -9.265   7.989  73.926  1.00  0.00    -0.063 C  
ENDBRANCH  52  53
ENDBRANCH  51  52
ENDBRANCH  49  51
ENDBRANCH  48  49
ENDBRANCH  47  48
ENDBRANCH  45  47
ENDBRANCH   5  45
BRANCH  15  55
HETATM   55  O   UNL     1     -10.500  11.085  64.314  1.00  0.00    -0.338 OA 
HETATM   56  C   UNL     1      -9.114  10.827  64.105  1.00  0.00    -0.196 C  
ENDBRANCH  15  55
TORSDOF 11
ENDMDL
MODEL      120
REMARK 921   NORMALIZED FREE ENERGY PREDICTED BY IDOCK:   63.08 KCAL/MOL
REMARK 922        TOTAL FREE ENERGY PREDICTED BY IDOCK:  100.09 KCAL/MOL
REMARK 923 INTER-LIGAND FREE ENERGY PREDICTED BY IDOCK:   55.66 KCAL/MOL
REMARK 924 INTRA-LIGAND FREE ENERGY PREDICTED BY IDOCK:   44.44 KCAL/MOL
REMARK 927      BINDING AFFINITY PREDICTED BY RF-SCORE:    0.00 PKD
ROOT
HETATM    1  C   UNL     1     -13.078  12.515  68.040  1.00  0.00     3.806 C  
HETATM    2  O   UNL     1      -6.844  10.666  67.458  1.00  0.00    -0.076 OA 
HETATM    3  C   UNL     1     -13.307  13.801  67.196  1.00  0.00     3.596 C  
HETATM    4  C   UNL     1      -7.848  10.042  67.804  1.00  0.00    -0.094 C  
HETATM    5  C   UNL     1     -12.136  14.766  67.355  1.00  0.00    -0.091 C  
HETATM    6  O   UNL     1     -12.048  15.087  68.755  1.00  0.00    -0.530 OA 
HETATM    7  C   UNL     1     -10.849  14.058  66.828  1.00  0.00    -0.294 C  
HETATM    8  C   UNL     1      -7.697   8.683  68.420  1.00  0.00    -0.100 A  
HETATM    9  C   UNL     1      -6.418   8.193  68.728  1.00  0.00    -0.053 A  
HETATM   10  C   UNL     1     -10.654  12.605  67.262  1.00  0.00    -0.244 A  
HETATM   11  C   UNL     1      -6.261   6.941  69.330  1.00  0.00    -0.030 A  
HETATM   12  C   UNL     1      -7.374   6.149  69.601  1.00  0.00    -0.079 A  
HETATM   13  H   UNL     1     -13.558  10.183  68.383  1.00  0.00     0.000 HD 
HETATM   14  H   UNL     1     -11.319  15.688  68.855  1.00  0.00     0.000 HD 
HETATM   15  C   UNL     1      -8.655   6.605  69.273  1.00  0.00    -0.131 A  
HETATM   16  O   UNL     1     -12.699   9.777  68.384  1.00  0.00     2.763 OA 
HETATM   17  C   UNL     1      -9.380  11.986  67.249  1.00  0.00    -0.180 A  
HETATM   18  C   UNL     1      -8.819   7.895  68.707  1.00  0.00    -0.138 A  
HETATM   19  O   UNL     1      -8.316  12.759  66.848  1.00  0.00    -0.328 OA 
HETATM   20  C   UNL     1      -9.193  10.644  67.673  1.00  0.00    -0.153 A  
HETATM   21  O   UNL     1     -11.182   7.786  68.501  1.00  0.00     0.231 OA 
HETATM   22  C   UNL     1     -11.758  11.841  67.686  1.00  0.00    -0.320 A  
HETATM   23  C   UNL     1     -11.577  10.479  68.011  1.00  0.00    -0.023 A  
HETATM   24  C   UNL     1     -10.155   8.458  68.406  1.00  0.00    -0.198 C  
HETATM   25  C   UNL     1     -10.306   9.879  68.012  1.00  0.00    -0.244 A  
HETATM   26  H   UNL     1      -7.461  12.345  66.840  1.00  0.00     0.000 HD 
ENDROOT
BRANCH   1  27
HETATM   27  O   UNL     1     -12.918  12.679  69.460  1.00  0.00     0.772 OA 
BRANCH  27  28
HETATM   28  C   UNL     1     -13.499  11.738  70.347  1.00  0.00     1.493 C  
HETATM   29  O   UNL     1     -12.993  11.956  71.684  1.00  0.00    -0.412 OA 
HETATM   30  C   UNL     1     -11.144  11.878  73.289  1.00  0.00    14.829 C  
HETATM   31  C   UNL     1     -11.476  10.059  71.600  1.00  0.00     0.020 C  
HETATM   32  O   UNL     1     -12.362   9.289  72.430  1.00  0.00    -0.307 OA 
HETATM   33  H   UNL     1     -12.142   9.412  73.346  1.00  0.00     0.000 HD 
HETATM   34  C   UNL     1     -11.830   9.860  70.120  1.00  0.00    -0.124 C  
HETATM   35  C   UNL     1     -11.627  11.558  71.875  1.00  0.00     3.039 C  
HETATM   36  C   UNL     1     -13.277  10.291  69.874  1.00  0.00     0.616 C  
BRANCH  34  37
HETATM   37  N   UNL     1     -11.554   8.493  69.687  1.00  0.00    -0.236 N  
HETATM   38  H   UNL     1     -10.648   8.067  69.877  1.00  0.00     0.000 HD 
HETATM   39  C   UNL     1     -12.128   6.376  68.511  1.00  0.00     2.413 C  
HETATM   40  F   UNL     1     -12.798   5.377  69.144  1.00  0.00     5.409 F  
HETATM   41  O   UNL     1     -13.664   8.248  68.821  1.00  0.00     9.858 OA 
HETATM   42  F   UNL     1     -12.350   6.219  67.177  1.00  0.00     1.435 F  
HETATM   43  F   UNL     1     -10.798   6.138  68.706  1.00  0.00    -0.253 F  
HETATM   44  C   UNL     1     -12.542   7.773  69.009  1.00  0.00     4.246 C  
ENDBRANCH  34  37
ENDBRANCH  27  28
ENDBRANCH   1  27
BRANCH   5  45
HETATM   45  C   UNL     1     -12.189  16.208  66.799  1.00  0.00     1.868 C  
HETATM   46  O   UNL     1     -12.641  16.394  65.657  1.00  0.00     2.587 OA 
BRANCH  45  47
HETATM   47  C   UNL     1     -11.433  17.358  67.470  1.00  0.00     0.706 C  
BRANCH  47  48
HETATM   48  O   UNL     1     -10.231  17.815  66.874  1.00  0.00    -0.320 OA 
BRANCH  48  49
HETATM   49  C   UNL     1      -9.103  17.349  67.472  1.00  0.00    -0.232 C  
HETATM   50  O   UNL     1      -7.964  17.578  67.096  1.00  0.00    -0.199 OA 
BRANCH  49  51
HETATM   51  C   UNL     1      -9.461  16.540  68.692  1.00  0.00    -0.243 C  
BRANCH  51  52
HETATM   52  C   UNL     1      -8.343  16.567  69.732  1.00  0.00     0.756 C  
BRANCH  52  53
HETATM   53  C   UNL     1      -7.848  15.162  70.085  1.00  0.00     0.403 C  
HETATM   54  C   UNL     1      -8.726  14.079  69.485  1.00  0.00     0.777 C  
ENDBRANCH  52  53
ENDBRANCH  51  52
ENDBRANCH  49  51
ENDBRANCH  48  49
ENDBRANCH  47  48
ENDBRANCH  45  47
ENDBRANCH   5  45
BRANCH  15  55
HETATM   55  O   UNL     1      -9.776   5.864  69.556  1.00  0.00    -0.141 OA 
HETATM   56  C   UNL     1      -9.763   5.086  70.749  1.00  0.00    -0.196 C  
ENDBRANCH  15  55
TORSDOF 11
ENDMDL
MODEL      121
REMARK 921   NORMALIZED FREE ENERGY PREDICTED BY IDOCK:   63.43 KCAL/MOL
REMARK 922        TOTAL FREE ENERGY PREDICTED BY IDOCK:  100.67 KCAL/MOL
REMARK 923 INTER-LIGAND FREE ENERGY PREDICTED BY IDOCK:   59.83 KCAL/MOL
REMARK 924 INTRA-LIGAND FREE ENERGY PREDICTED BY IDOCK:   40.84 KCAL/MOL
REMARK 927      BINDING AFFINITY PREDICTED BY RF-SCORE:    0.00 PKD
ROOT
HETATM    1  C   UNL     1      -9.312  15.092  65.375  1.00  0.00     0.242 C  
HETATM    2  O   UNL     1      -6.575  10.224  68.755  1.00  0.00    -0.051 OA 
HETATM    3  C   UNL     1      -9.098  16.428  66.143  1.00  0.00    -0.362 C  
HETATM    4  C   UNL     1      -6.894  10.311  67.568  1.00  0.00    -0.072 C  
HETATM    5  C   UNL     1      -9.318  16.229  67.640  1.00  0.00    -0.218 C  
HETATM    6  O   UNL     1     -10.669  15.760  67.804  1.00  0.00    -0.291 OA 
HETATM    7  C   UNL     1      -8.267  15.196  68.152  1.00  0.00    -0.145 C  
HETATM    8  C   UNL     1      -6.896   9.079  66.712  1.00  0.00    -0.080 A  
HETATM    9  C   UNL     1      -6.675   7.822  67.296  1.00  0.00    -0.068 A  
HETATM   10  C   UNL     1      -8.059  13.957  67.280  1.00  0.00    -0.162 A  
HETATM   11  C   UNL     1      -6.702   6.661  66.517  1.00  0.00    -0.056 A  
HETATM   12  C   UNL     1      -6.919   6.743  65.144  1.00  0.00    -0.055 A  
HETATM   13  H   UNL     1      -8.857  13.763  63.422  1.00  0.00     0.000 HD 
HETATM   14  H   UNL     1     -10.807  15.636  68.736  1.00  0.00     0.000 HD 
HETATM   15  C   UNL     1      -7.109   7.989  64.538  1.00  0.00    -0.077 A  
HETATM   16  O   UNL     1      -8.496  12.960  63.780  1.00  0.00     3.083 OA 
HETATM   17  C   UNL     1      -7.504  12.762  67.800  1.00  0.00    -0.135 A  
HETATM   18  C   UNL     1      -7.129   9.163  65.334  1.00  0.00    -0.081 A  
HETATM   19  O   UNL     1      -7.178  12.756  69.135  1.00  0.00    -0.270 OA 
HETATM   20  C   UNL     1      -7.332  11.603  66.997  1.00  0.00    -0.143 A  
HETATM   21  O   UNL     1      -7.480  10.682  63.543  1.00  0.00    -0.009 OA 
HETATM   22  C   UNL     1      -8.420  13.984  65.919  1.00  0.00     1.489 A  
HETATM   23  C   UNL     1      -8.153  12.860  65.108  1.00  0.00     3.964 A  
HETATM   24  C   UNL     1      -7.398  10.500  64.757  1.00  0.00     0.042 C  
HETATM   25  C   UNL     1      -7.618  11.673  65.637  1.00  0.00     0.827 A  
HETATM   26  H   UNL     1      -6.806  11.954  69.484  1.00  0.00     0.000 HD 
ENDROOT
BRANCH   1  27
HETATM   27  O   UNL     1     -10.604  14.469  65.484  1.00  0.00    -0.310 OA 
BRANCH  27  28
HETATM   28  C   UNL     1     -11.775  15.267  65.434  1.00  0.00    -0.013 C  
HETATM   29  O   UNL     1     -11.595  16.331  64.470  1.00  0.00    -0.401 OA 
HETATM   30  C   UNL     1     -10.504  18.419  63.799  1.00  0.00    10.115 C  
HETATM   31  C   UNL     1     -11.219  18.030  66.167  1.00  0.00     0.864 C  
HETATM   32  O   UNL     1     -12.549  18.544  65.974  1.00  0.00     6.116 OA 
HETATM   33  H   UNL     1     -12.544  19.222  65.307  1.00  0.00     0.000 HD 
HETATM   34  C   UNL     1     -11.226  16.936  67.243  1.00  0.00     0.231 C  
HETATM   35  C   UNL     1     -10.694  17.367  64.891  1.00  0.00     0.547 C  
HETATM   36  C   UNL     1     -12.164  15.804  66.821  1.00  0.00     1.317 C  
BRANCH  34  37
HETATM   37  N   UNL     1     -11.542  17.487  68.559  1.00  0.00     0.489 N  
HETATM   38  H   UNL     1     -11.421  18.482  68.741  1.00  0.00     0.000 HD 
HETATM   39  C   UNL     1     -12.228  17.291  70.942  1.00  0.00     4.437 C  
HETATM   40  F   UNL     1     -13.538  17.323  71.304  1.00  0.00     5.578 F  
HETATM   41  O   UNL     1     -12.221  15.443  69.348  1.00  0.00    -0.300 OA 
HETATM   42  F   UNL     1     -11.559  16.639  71.933  1.00  0.00    -0.511 F  
HETATM   43  F   UNL     1     -11.785  18.582  70.971  1.00  0.00     3.642 F  
HETATM   44  C   UNL     1     -12.012  16.639  69.565  1.00  0.00     0.832 C  
ENDBRANCH  34  37
ENDBRANCH  27  28
ENDBRANCH   1  27
BRANCH   5  45
HETATM   45  C   UNL     1      -9.377  17.424  68.620  1.00  0.00    -0.267 C  
HETATM   46  O   UNL     1      -9.931  18.474  68.251  1.00  0.00    -0.338 OA 
BRANCH  45  47
HETATM   47  C   UNL     1      -8.524  17.468  69.890  1.00  0.00     1.707 C  
BRANCH  47  48
HETATM   48  O   UNL     1      -8.521  18.657  70.661  1.00  0.00     3.057 OA 
BRANCH  48  49
HETATM   49  C   UNL     1      -9.577  18.770  71.510  1.00  0.00     5.382 C  
HETATM   50  O   UNL     1     -10.597  18.101  71.453  1.00  0.00     2.006 OA 
BRANCH  49  51
HETATM   51  C   UNL     1      -9.290  19.816  72.557  1.00  0.00     3.554 C  
BRANCH  51  52
HETATM   52  C   UNL     1      -8.024  20.603  72.231  1.00  0.00     2.752 C  
BRANCH  52  53
HETATM   53  C   UNL     1      -7.746  20.654  70.726  1.00  0.00     2.212 C  
HETATM   54  C   UNL     1      -6.271  20.493  70.410  1.00  0.00    -0.066 C  
ENDBRANCH  52  53
ENDBRANCH  51  52
ENDBRANCH  49  51
ENDBRANCH  48  49
ENDBRANCH  47  48
ENDBRANCH  45  47
ENDBRANCH   5  45
BRANCH  15  55
HETATM   55  O   UNL     1      -7.356   8.104  63.192  1.00  0.00    -0.093 OA 
HETATM   56  C   UNL     1      -7.430   6.899  62.434  1.00  0.00    -0.077 C  
ENDBRANCH  15  55
TORSDOF 11
ENDMDL
MODEL      122
REMARK 921   NORMALIZED FREE ENERGY PREDICTED BY IDOCK:   63.99 KCAL/MOL
REMARK 922        TOTAL FREE ENERGY PREDICTED BY IDOCK:  101.59 KCAL/MOL
REMARK 923 INTER-LIGAND FREE ENERGY PREDICTED BY IDOCK:   61.42 KCAL/MOL
REMARK 924 INTRA-LIGAND FREE ENERGY PREDICTED BY IDOCK:   40.17 KCAL/MOL
REMARK 927      BINDING AFFINITY PREDICTED BY RF-SCORE:    0.00 PKD
ROOT
HETATM    1  C   UNL     1      -9.284  11.402  71.238  1.00  0.00     9.157 C  
HETATM    2  O   UNL     1      -7.561   8.690  65.555  1.00  0.00    -0.083 OA 
HETATM    3  C   UNL     1      -9.536  10.277  72.282  1.00  0.00     6.499 C  
HETATM    4  C   UNL     1      -7.400   9.830  65.994  1.00  0.00    -0.102 C  
HETATM    5  C   UNL     1     -10.299   9.117  71.650  1.00  0.00    -0.318 C  
HETATM    6  O   UNL     1     -11.546   9.650  71.168  1.00  0.00    -0.319 OA 
HETATM    7  C   UNL     1      -9.423   8.529  70.500  1.00  0.00    -0.193 C  
HETATM    8  C   UNL     1      -6.931  10.917  65.073  1.00  0.00     0.337 A  
HETATM    9  C   UNL     1      -6.817  10.665  63.696  1.00  0.00     0.199 A  
HETATM   10  C   UNL     1      -8.756   9.547  69.574  1.00  0.00    -0.178 A  
HETATM   11  C   UNL     1      -6.410  11.675  62.819  1.00  0.00     1.475 A  
HETATM   12  C   UNL     1      -6.082  12.937  63.308  1.00  0.00    10.608 A  
HETATM   13  H   UNL     1      -7.960  13.286  70.543  1.00  0.00     0.000 HD 
HETATM   14  H   UNL     1     -12.021   8.928  70.775  1.00  0.00     0.000 HD 
HETATM   15  C   UNL     1      -6.158  13.199  64.680  1.00  0.00    13.445 A  
HETATM   16  O   UNL     1      -7.680  13.050  69.667  1.00  0.00     0.643 OA 
HETATM   17  C   UNL     1      -8.319   9.199  68.273  1.00  0.00    -0.120 A  
HETATM   18  C   UNL     1      -6.616  12.189  65.564  1.00  0.00     3.167 A  
HETATM   19  O   UNL     1      -8.541   7.904  67.866  1.00  0.00    -0.125 OA 
HETATM   20  C   UNL     1      -7.720  10.148  67.403  1.00  0.00    -0.095 A  
HETATM   21  O   UNL     1      -6.407  13.474  67.550  1.00  0.00    -0.225 OA 
HETATM   22  C   UNL     1      -8.559  10.872  70.008  1.00  0.00     1.053 A  
HETATM   23  C   UNL     1      -7.874  11.781  69.173  1.00  0.00     0.164 A  
HETATM   24  C   UNL     1      -6.786  12.432  67.016  1.00  0.00     0.001 C  
HETATM   25  C   UNL     1      -7.459  11.431  67.876  1.00  0.00    -0.095 A  
HETATM   26  H   UNL     1      -8.248   7.670  66.993  1.00  0.00     0.000 HD 
ENDROOT
BRANCH   1  27
HETATM   27  O   UNL     1     -10.439  12.002  70.625  1.00  0.00     2.522 OA 
BRANCH  27  28
HETATM   28  C   UNL     1     -11.417  11.178  70.012  1.00  0.00    -0.292 C  
HETATM   29  O   UNL     1     -10.768  10.066  69.351  1.00  0.00    -0.208 OA 
HETATM   30  C   UNL     1      -9.347   9.209  67.550  1.00  0.00    -0.157 C  
HETATM   31  C   UNL     1     -11.026  11.019  67.130  1.00  0.00    -0.283 C  
HETATM   32  O   UNL     1     -12.107  10.113  66.846  1.00  0.00     1.413 OA 
HETATM   33  H   UNL     1     -11.770   9.315  66.455  1.00  0.00     0.000 HD 
HETATM   34  C   UNL     1     -11.569  12.308  67.762  1.00  0.00    -0.351 C  
HETATM   35  C   UNL     1     -10.059  10.419  68.154  1.00  0.00    -0.155 C  
HETATM   36  C   UNL     1     -12.318  11.973  69.053  1.00  0.00     0.122 C  
BRANCH  34  37
HETATM   37  N   UNL     1     -12.373  13.069  66.809  1.00  0.00    -0.174 N  
HETATM   38  H   UNL     1     -13.216  13.551  67.119  1.00  0.00     0.000 HD 
HETATM   39  C   UNL     1     -12.935  13.878  64.524  1.00  0.00     0.303 C  
HETATM   40  F   UNL     1     -12.392  15.021  64.027  1.00  0.00    -0.508 F  
HETATM   41  O   UNL     1     -10.930  12.605  65.087  1.00  0.00    -0.279 OA 
HETATM   42  F   UNL     1     -13.303  13.117  63.457  1.00  0.00     0.349 F  
HETATM   43  F   UNL     1     -14.093  14.239  65.151  1.00  0.00     0.701 F  
HETATM   44  C   UNL     1     -11.977  13.132  65.470  1.00  0.00    -0.412 C  
ENDBRANCH  34  37
ENDBRANCH  27  28
ENDBRANCH   1  27
BRANCH   5  45
HETATM   45  C   UNL     1     -10.868   7.957  72.501  1.00  0.00    -0.341 C  
HETATM   46  O   UNL     1     -11.842   8.178  73.240  1.00  0.00    -0.103 OA 
BRANCH  45  47
HETATM   47  C   UNL     1     -10.096   6.650  72.698  1.00  0.00    -0.174 C  
BRANCH  47  48
HETATM   48  O   UNL     1     -10.552   5.488  72.025  1.00  0.00    -0.215 OA 
BRANCH  48  49
HETATM   49  C   UNL     1     -10.909   4.471  72.854  1.00  0.00    -0.199 C  
HETATM   50  O   UNL     1     -12.009   4.339  73.368  1.00  0.00    -0.093 OA 
BRANCH  49  51
HETATM   51  C   UNL     1      -9.761   3.508  73.014  1.00  0.00    -0.174 C  
BRANCH  51  52
HETATM   52  C   UNL     1      -9.522   2.703  71.739  1.00  0.00    -0.205 C  
BRANCH  52  53
HETATM   53  C   UNL     1      -8.517   3.384  70.807  1.00  0.00    -0.103 C  
HETATM   54  C   UNL     1      -9.189   4.011  69.600  1.00  0.00    -0.217 C  
ENDBRANCH  52  53
ENDBRANCH  51  52
ENDBRANCH  49  51
ENDBRANCH  48  49
ENDBRANCH  47  48
ENDBRANCH  45  47
ENDBRANCH   5  45
BRANCH  15  55
HETATM   55  O   UNL     1      -5.871  14.440  65.192  1.00  0.00    12.014 OA 
HETATM   56  C   UNL     1      -5.134  14.492  66.410  1.00  0.00     3.745 C  
ENDBRANCH  15  55
TORSDOF 11
ENDMDL
MODEL      123
REMARK 921   NORMALIZED FREE ENERGY PREDICTED BY IDOCK:   75.92 KCAL/MOL
REMARK 922        TOTAL FREE ENERGY PREDICTED BY IDOCK:  121.19 KCAL/MOL
REMARK 923 INTER-LIGAND FREE ENERGY PREDICTED BY IDOCK:   85.79 KCAL/MOL
REMARK 924 INTRA-LIGAND FREE ENERGY PREDICTED BY IDOCK:   35.40 KCAL/MOL
REMARK 927      BINDING AFFINITY PREDICTED BY RF-SCORE:    0.00 PKD
ROOT
HETATM    1  C   UNL     1     -10.321  15.564  67.619  1.00  0.00    -0.269 C  
HETATM    2  O   UNL     1      -7.926  10.947  71.565  1.00  0.00     4.189 OA 
HETATM    3  C   UNL     1      -9.159  16.489  67.155  1.00  0.00    -0.227 C  
HETATM    4  C   UNL     1      -8.971  10.999  70.914  1.00  0.00     4.944 C  
HETATM    5  C   UNL     1      -8.218  16.795  68.317  1.00  0.00    -0.204 C  
HETATM    6  O   UNL     1      -9.006  17.441  69.333  1.00  0.00     0.109 OA 
HETATM    7  C   UNL     1      -7.603  15.448  68.811  1.00  0.00    -0.143 C  
HETATM    8  C   UNL     1     -10.045   9.982  71.161  1.00  0.00     0.608 A  
HETATM    9  C   UNL     1      -9.915   9.070  72.221  1.00  0.00     0.016 A  
HETATM   10  C   UNL     1      -8.576  14.277  68.956  1.00  0.00     0.060 A  
HETATM   11  C   UNL     1     -10.921   8.135  72.483  1.00  0.00    -0.439 A  
HETATM   12  C   UNL     1     -12.051   8.076  71.672  1.00  0.00    -0.339 A  
HETATM   13  H   UNL     1     -12.005  13.949  67.035  1.00  0.00     0.000 HD 
HETATM   14  H   UNL     1      -8.420  17.631  70.056  1.00  0.00     0.000 HD 
HETATM   15  C   UNL     1     -12.185   8.954  70.591  1.00  0.00     0.050 A  
HETATM   16  O   UNL     1     -11.811  13.212  67.602  1.00  0.00    -0.354 OA 
HETATM   17  C   UNL     1      -8.287  13.165  69.784  1.00  0.00     2.053 A  
HETATM   18  C   UNL     1     -11.188   9.934  70.354  1.00  0.00    -0.379 A  
HETATM   19  O   UNL     1      -7.098  13.193  70.473  1.00  0.00     0.383 OA 
HETATM   20  C   UNL     1      -9.200  12.087  69.938  1.00  0.00     2.545 A  
HETATM   21  O   UNL     1     -12.214  10.882  68.434  1.00  0.00    -0.540 OA 
HETATM   22  C   UNL     1      -9.797  14.282  68.254  1.00  0.00    -0.235 A  
HETATM   23  C   UNL     1     -10.651  13.162  68.337  1.00  0.00    -0.251 A  
HETATM   24  C   UNL     1     -11.312  10.936  69.269  1.00  0.00    -0.277 C  
HETATM   25  C   UNL     1     -10.364  12.070  69.176  1.00  0.00     0.055 A  
HETATM   26  H   UNL     1      -6.904  12.447  71.029  1.00  0.00     0.000 HD 
ENDROOT
BRANCH   1  27
HETATM   27  O   UNL     1     -11.170  16.052  68.672  1.00  0.00    -0.327 OA 
BRANCH  27  28
HETATM   28  C   UNL     1     -11.961  15.140  69.417  1.00  0.00    -0.307 C  
HETATM   29  O   UNL     1     -12.712  15.861  70.423  1.00  0.00    -0.372 OA 
HETATM   30  C   UNL     1     -12.769  17.150  72.505  1.00  0.00     2.760 C  
HETATM   31  C   UNL     1     -11.254  15.174  72.242  1.00  0.00    -0.060 C  
HETATM   32  O   UNL     1     -12.230  14.217  72.689  1.00  0.00    -0.030 OA 
HETATM   33  H   UNL     1     -12.816  14.618  73.322  1.00  0.00     0.000 HD 
HETATM   34  C   UNL     1     -10.308  14.527  71.221  1.00  0.00     2.080 C  
HETATM   35  C   UNL     1     -11.922  16.346  71.519  1.00  0.00    -0.152 C  
HETATM   36  C   UNL     1     -11.114  14.012  70.027  1.00  0.00     0.026 C  
BRANCH  34  37
HETATM   37  N   UNL     1      -9.477  13.500  71.843  1.00  0.00    10.715 N  
HETATM   38  H   UNL     1      -9.734  12.516  71.769  1.00  0.00     0.000 HD 
HETATM   39  C   UNL     1      -7.565  12.733  73.240  1.00  0.00    12.758 C  
HETATM   40  F   UNL     1      -6.338  12.515  72.697  1.00  0.00     2.074 F  
HETATM   41  O   UNL     1      -7.965  15.053  72.593  1.00  0.00     5.069 OA 
HETATM   42  F   UNL     1      -7.374  12.978  74.566  1.00  0.00     2.280 F  
HETATM   43  F   UNL     1      -8.240  11.549  73.164  1.00  0.00    13.880 F  
HETATM   44  C   UNL     1      -8.326  13.875  72.541  1.00  0.00    10.512 C  
ENDBRANCH  34  37
ENDBRANCH  27  28
ENDBRANCH   1  27
BRANCH   5  45
HETATM   45  C   UNL     1      -7.097  17.853  68.198  1.00  0.00    -0.224 C  
HETATM   46  O   UNL     1      -5.968  17.582  68.640  1.00  0.00    -0.163 OA 
BRANCH  45  47
HETATM   47  C   UNL     1      -7.400  19.311  67.842  1.00  0.00    -0.256 C  
BRANCH  47  48
HETATM   48  O   UNL     1      -8.435  19.578  66.910  1.00  0.00    -0.275 OA 
BRANCH  48  49
HETATM   49  C   UNL     1      -9.657  19.760  67.476  1.00  0.00    -0.353 C  
HETATM   50  O   UNL     1     -10.509  20.536  67.071  1.00  0.00    -0.200 OA 
BRANCH  49  51
HETATM   51  C   UNL     1      -9.826  18.833  68.653  1.00  0.00    -0.441 C  
BRANCH  51  52
HETATM   52  C   UNL     1      -9.536  19.545  69.973  1.00  0.00     0.567 C  
BRANCH  52  53
HETATM   53  C   UNL     1     -10.320  20.853  70.107  1.00  0.00     1.298 C  
HETATM   54  C   UNL     1     -10.864  21.052  71.509  1.00  0.00     7.186 C  
ENDBRANCH  52  53
ENDBRANCH  51  52
ENDBRANCH  49  51
ENDBRANCH  48  49
ENDBRANCH  47  48
ENDBRANCH  45  47
ENDBRANCH   5  45
BRANCH  15  55
HETATM   55  O   UNL     1     -13.301   8.944  69.791  1.00  0.00     2.319 OA 
HETATM   56  C   UNL     1     -13.706  10.183  69.217  1.00  0.00     4.074 C  
ENDBRANCH  15  55
TORSDOF 11
ENDMDL
MODEL      124
REMARK 921   NORMALIZED FREE ENERGY PREDICTED BY IDOCK:   78.37 KCAL/MOL
REMARK 922        TOTAL FREE ENERGY PREDICTED BY IDOCK:  125.22 KCAL/MOL
REMARK 923 INTER-LIGAND FREE ENERGY PREDICTED BY IDOCK:  111.78 KCAL/MOL
REMARK 924 INTRA-LIGAND FREE ENERGY PREDICTED BY IDOCK:   13.44 KCAL/MOL
REMARK 927      BINDING AFFINITY PREDICTED BY RF-SCORE:    0.00 PKD
ROOT
HETATM    1  C   UNL     1     -10.486  12.192  70.553  1.00  0.00     3.213 C  
HETATM    2  O   UNL     1      -5.750   9.624  66.867  1.00  0.00    -0.049 OA 
HETATM    3  C   UNL     1     -10.541  11.435  71.911  1.00  0.00     7.914 C  
HETATM    4  C   UNL     1      -6.317  10.717  66.817  1.00  0.00    -0.088 C  
HETATM    5  C   UNL     1     -10.377   9.933  71.696  1.00  0.00     1.037 C  
HETATM    6  O   UNL     1     -11.453   9.514  70.838  1.00  0.00    -0.283 OA 
HETATM    7  C   UNL     1      -8.976   9.685  71.054  1.00  0.00     0.269 C  
HETATM    8  C   UNL     1      -6.116  11.600  65.621  1.00  0.00     1.134 A  
HETATM    9  C   UNL     1      -5.402  11.120  64.511  1.00  0.00     0.474 A  
HETATM   10  C   UNL     1      -8.581  10.626  69.915  1.00  0.00     0.412 A  
HETATM   11  C   UNL     1      -5.230  11.920  63.376  1.00  0.00     2.473 A  
HETATM   12  C   UNL     1      -5.739  13.216  63.349  1.00  0.00    12.230 A  
HETATM   13  H   UNL     1     -10.056  14.244  69.374  1.00  0.00     0.000 HD 
HETATM   14  H   UNL     1     -11.351   8.579  70.704  1.00  0.00     0.000 HD 
HETATM   15  C   UNL     1      -6.424  13.724  64.457  1.00  0.00    19.539 A  
HETATM   16  O   UNL     1      -9.399  13.998  68.733  1.00  0.00    -0.164 OA 
HETATM   17  C   UNL     1      -7.591  10.275  68.966  1.00  0.00    -0.102 A  
HETATM   18  C   UNL     1      -6.641  12.897  65.590  1.00  0.00     5.791 A  
HETATM   19  O   UNL     1      -7.011   9.035  69.099  1.00  0.00    -0.057 OA 
HETATM   20  C   UNL     1      -7.239  11.139  67.894  1.00  0.00    -0.090 A  
HETATM   21  O   UNL     1      -7.803  14.521  66.874  1.00  0.00    -0.076 OA 
HETATM   22  C   UNL     1      -9.205  11.883  69.790  1.00  0.00     1.954 A  
HETATM   23  C   UNL     1      -8.777  12.772  68.782  1.00  0.00     0.182 A  
HETATM   24  C   UNL     1      -7.421  13.357  66.761  1.00  0.00     0.767 C  
HETATM   25  C   UNL     1      -7.806  12.408  67.833  1.00  0.00    -0.145 A  
HETATM   26  H   UNL     1      -6.347   8.800  68.462  1.00  0.00     0.000 HD 
ENDROOT
BRANCH   1  27
HETATM   27  O   UNL     1     -11.472  11.844  69.565  1.00  0.00    -0.279 OA 
BRANCH  27  28
HETATM   28  C   UNL     1     -11.075  11.633  68.220  1.00  0.00    -0.234 C  
HETATM   29  O   UNL     1     -12.225  11.247  67.431  1.00  0.00    -0.217 OA 
HETATM   30  C   UNL     1     -13.951   9.605  66.866  1.00  0.00    23.638 C  
HETATM   31  C   UNL     1     -11.602   8.899  67.367  1.00  0.00     2.199 C  
HETATM   32  O   UNL     1     -11.146   9.037  66.010  1.00  0.00     0.931 OA 
HETATM   33  H   UNL     1     -11.857   8.855  65.406  1.00  0.00     0.000 HD 
HETATM   34  C   UNL     1     -10.454   9.191  68.343  1.00  0.00    -0.199 C  
HETATM   35  C   UNL     1     -12.700   9.917  67.685  1.00  0.00     7.449 C  
HETATM   36  C   UNL     1      -9.931  10.611  68.113  1.00  0.00    -0.176 C  
BRANCH  34  37
HETATM   37  N   UNL     1      -9.412   8.172  68.259  1.00  0.00    -0.141 N  
HETATM   38  H   UNL     1      -8.454   8.435  68.029  1.00  0.00     0.000 HD 
HETATM   39  C   UNL     1      -8.595   5.822  68.293  1.00  0.00    -0.112 C  
HETATM   40  F   UNL     1      -8.215   5.224  69.454  1.00  0.00    -0.089 F  
HETATM   41  O   UNL     1     -10.876   6.502  68.833  1.00  0.00    -0.249 OA 
HETATM   42  F   UNL     1      -8.935   4.827  67.428  1.00  0.00    -0.107 F  
HETATM   43  F   UNL     1      -7.477   6.411  67.776  1.00  0.00    -0.084 F  
HETATM   44  C   UNL     1      -9.737   6.834  68.496  1.00  0.00    -0.133 C  
ENDBRANCH  34  37
ENDBRANCH  27  28
ENDBRANCH   1  27
BRANCH   5  45
HETATM   45  C   UNL     1     -10.599   8.918  72.843  1.00  0.00     0.935 C  
HETATM   46  O   UNL     1     -11.461   9.166  73.703  1.00  0.00     2.937 OA 
BRANCH  45  47
HETATM   47  C   UNL     1      -9.602   7.792  73.125  1.00  0.00    -0.275 C  
BRANCH  47  48
HETATM   48  O   UNL     1     -10.000   6.456  72.865  1.00  0.00    -0.169 OA 
BRANCH  48  49
HETATM   49  C   UNL     1      -9.122   5.519  73.313  1.00  0.00    -0.129 C  
HETATM   50  O   UNL     1      -9.209   4.319  73.100  1.00  0.00    -0.110 OA 
BRANCH  49  51
HETATM   51  C   UNL     1      -8.003   6.180  74.076  1.00  0.00    -0.099 C  
BRANCH  51  52
HETATM   52  C   UNL     1      -6.946   5.168  74.512  1.00  0.00    -0.078 C  
BRANCH  52  53
HETATM   53  C   UNL     1      -5.525   5.714  74.353  1.00  0.00    -0.032 C  
HETATM   54  C   UNL     1      -5.505   7.071  73.674  1.00  0.00    -0.046 C  
ENDBRANCH  52  53
ENDBRANCH  51  52
ENDBRANCH  49  51
ENDBRANCH  48  49
ENDBRANCH  47  48
ENDBRANCH  45  47
ENDBRANCH   5  45
BRANCH  15  55
HETATM   55  O   UNL     1      -6.966  14.985  64.451  1.00  0.00    14.540 OA 
HETATM   56  C   UNL     1      -6.613  15.854  65.524  1.00  0.00     5.771 C  
ENDBRANCH  15  55
TORSDOF 11
ENDMDL
