MODEL        1
REMARK 921   NORMALIZED FREE ENERGY PREDICTED BY IDOCK:   -8.21 KCAL/MOL
REMARK 922        TOTAL FREE ENERGY PREDICTED BY IDOCK:  -12.57 KCAL/MOL
REMARK 923 INTER-LIGAND FREE ENERGY PREDICTED BY IDOCK:  -12.05 KCAL/MOL
REMARK 924 INTRA-LIGAND FREE ENERGY PREDICTED BY IDOCK:   -0.53 KCAL/MOL
REMARK 927      BINDING AFFINITY PREDICTED BY RF-SCORE:    0.00 PKD
ROOT
HETATM    1  C   UNL     1     -11.482  11.757  63.986  1.00  0.00    -0.444 C  
HETATM    2  C   UNL     1     -12.356  12.611  64.883  1.00  0.00    -0.563 C  
ENDROOT
BRANCH   2   3
HETATM    3  C   UNL     1     -12.325  14.092  64.498  1.00  0.00    -0.409 C  
BRANCH   3   4
HETATM    4  C   UNL     1     -10.886  14.603  64.587  1.00  0.00    -0.332 C  
BRANCH   4   5
HETATM    5  C   UNL     1     -10.768  16.086  64.864  1.00  0.00    -0.316 C  
HETATM    6  N   UNL     1      -9.986  16.505  65.939  1.00  0.00    -0.330 N  
HETATM    7  O   UNL     1     -11.369  16.901  64.158  1.00  0.00    -1.208 OA 
BRANCH   6   8
HETATM    8  C   UNL     1      -9.217  15.550  66.790  1.00  0.00    -0.248 C  
BRANCH   8   9
HETATM    9  C   UNL     1     -10.056  14.468  67.448  1.00  0.00    -0.235 A  
HETATM   10  C   UNL     1     -11.332  14.763  67.928  1.00  0.00    -0.331 A  
HETATM   11  C   UNL     1     -11.981  13.884  68.809  1.00  0.00    -0.393 A  
HETATM   12  C   UNL     1     -11.438  12.642  69.183  1.00  0.00    -0.359 A  
HETATM   13  C   UNL     1      -9.585  13.171  67.671  1.00  0.00    -0.210 A  
HETATM   14  C   UNL     1     -10.275  12.263  68.495  1.00  0.00    -0.213 A  
BRANCH  12  15
HETATM   15  C   UNL     1     -12.080  11.810  70.258  1.00  0.00    -0.426 A  
HETATM   16  C   UNL     1     -11.963  10.395  70.132  1.00  0.00    -0.357 A  
HETATM   17  C   UNL     1     -12.619   9.492  70.970  1.00  0.00    -0.331 A  
HETATM   18  C   UNL     1     -13.392   9.968  72.012  1.00  0.00    -0.513 A  
HETATM   19  C   UNL     1     -13.496  11.343  72.205  1.00  0.00    -0.203 A  
HETATM   20  C   UNL     1     -12.862  12.283  71.348  1.00  0.00    -0.373 A  
BRANCH  20  21
HETATM   21  C   UNL     1     -13.125  13.679  71.690  1.00  0.00    -0.372 A  
HETATM   22  N   UNL     1     -12.162  14.545  72.072  1.00  0.00    -0.294 NA 
HETATM   23  N   UNL     1     -12.893  15.631  72.346  1.00  0.00    -0.400 NA 
HETATM   24  H   UNL     1     -11.153  14.408  72.136  1.00  0.00     0.000 HD 
HETATM   25  N   UNL     1     -14.211  15.514  72.139  1.00  0.00    -0.539 NA 
HETATM   26  N   UNL     1     -14.374  14.254  71.754  1.00  0.00    -0.474 NA 
ENDBRANCH  20  21
ENDBRANCH  12  15
ENDBRANCH   8   9
ENDBRANCH   6   8
BRANCH   6  27
HETATM   27  C   UNL     1      -9.694  17.975  66.130  1.00  0.00    -0.212 C  
HETATM   28  C   UNL     1      -8.238  18.528  66.027  1.00  0.00    -0.055 C  
HETATM   29  O   UNL     1      -8.001  19.647  65.575  1.00  0.00    -0.379 OA 
HETATM   30  C   UNL     1     -10.490  18.616  67.310  1.00  0.00    -0.468 C  
HETATM   31  O   UNL     1      -7.236  17.795  66.541  1.00  0.00    -0.200 OA 
HETATM   32  C   UNL     1     -10.356  17.904  68.651  1.00  0.00    -0.342 C  
HETATM   33  C   UNL     1     -10.278  20.123  67.467  1.00  0.00    -0.520 C  
ENDBRANCH   6  27
ENDBRANCH   4   5
ENDBRANCH   3   4
ENDBRANCH   2   3
TORSDOF 8
ENDMDL
MODEL        2
REMARK 921   NORMALIZED FREE ENERGY PREDICTED BY IDOCK:   -7.75 KCAL/MOL
REMARK 922        TOTAL FREE ENERGY PREDICTED BY IDOCK:  -11.91 KCAL/MOL
REMARK 923 INTER-LIGAND FREE ENERGY PREDICTED BY IDOCK:  -11.55 KCAL/MOL
REMARK 924 INTRA-LIGAND FREE ENERGY PREDICTED BY IDOCK:   -0.36 KCAL/MOL
REMARK 927      BINDING AFFINITY PREDICTED BY RF-SCORE:    0.00 PKD
ROOT
HETATM    1  C   UNL     1     -11.843  11.965  63.630  1.00  0.00    -0.573 C  
HETATM    2  C   UNL     1     -12.443  12.569  64.883  1.00  0.00    -0.524 C  
ENDROOT
BRANCH   2   3
HETATM    3  C   UNL     1     -12.434  14.099  64.861  1.00  0.00    -0.419 C  
BRANCH   3   4
HETATM    4  C   UNL     1     -10.995  14.590  64.694  1.00  0.00    -0.351 C  
BRANCH   4   5
HETATM    5  C   UNL     1     -10.797  16.057  65.007  1.00  0.00    -0.404 C  
HETATM    6  N   UNL     1      -9.942  16.409  66.050  1.00  0.00    -0.330 N  
HETATM    7  O   UNL     1     -11.397  16.919  64.358  1.00  0.00    -1.133 OA 
BRANCH   6   8
HETATM    8  C   UNL     1      -9.173  15.397  66.831  1.00  0.00    -0.233 C  
BRANCH   8   9
HETATM    9  C   UNL     1     -10.010  14.264  67.401  1.00  0.00    -0.242 A  
HETATM   10  C   UNL     1     -11.131  14.542  68.182  1.00  0.00    -0.280 A  
HETATM   11  C   UNL     1     -11.716  13.538  68.969  1.00  0.00    -0.370 A  
HETATM   12  C   UNL     1     -11.277  12.202  68.950  1.00  0.00    -0.320 A  
HETATM   13  C   UNL     1      -9.675  12.916  67.240  1.00  0.00    -0.220 A  
HETATM   14  C   UNL     1     -10.314  11.900  67.975  1.00  0.00    -0.209 A  
BRANCH  12  15
HETATM   15  C   UNL     1     -11.815  11.198  69.930  1.00  0.00    -0.439 A  
HETATM   16  C   UNL     1     -12.779  11.670  70.870  1.00  0.00    -0.351 A  
HETATM   17  C   UNL     1     -13.266  10.897  71.924  1.00  0.00    -0.508 A  
HETATM   18  C   UNL     1     -12.845   9.588  72.061  1.00  0.00    -0.499 A  
HETATM   19  C   UNL     1     -11.942   9.067  71.137  1.00  0.00    -0.356 A  
HETATM   20  C   UNL     1     -11.409   9.843  70.073  1.00  0.00    -0.303 A  
BRANCH  20  21
HETATM   21  C   UNL     1     -10.447   9.130  69.235  1.00  0.00    -0.221 A  
HETATM   22  N   UNL     1     -10.800   8.382  68.167  1.00  0.00    -0.456 NA 
HETATM   23  N   UNL     1      -9.611   7.890  67.801  1.00  0.00    -0.144 NA 
HETATM   24  H   UNL     1     -11.720   8.233  67.755  1.00  0.00     0.000 HD 
HETATM   25  N   UNL     1      -8.563   8.291  68.531  1.00  0.00    -0.133 NA 
HETATM   26  N   UNL     1      -9.093   9.057  69.476  1.00  0.00    -0.147 NA 
ENDBRANCH  20  21
ENDBRANCH  12  15
ENDBRANCH   8   9
ENDBRANCH   6   8
BRANCH   6  27
HETATM   27  C   UNL     1      -9.576  17.859  66.267  1.00  0.00    -0.241 C  
HETATM   28  C   UNL     1      -8.092  18.336  66.190  1.00  0.00    -0.161 C  
HETATM   29  O   UNL     1      -7.792  19.448  65.758  1.00  0.00    -0.426 OA 
HETATM   30  C   UNL     1     -10.351  18.523  67.448  1.00  0.00    -0.432 C  
HETATM   31  O   UNL     1      -7.136  17.544  66.704  1.00  0.00    -0.187 OA 
HETATM   32  C   UNL     1     -10.272  17.786  68.780  1.00  0.00    -0.373 C  
HETATM   33  C   UNL     1     -10.063  20.014  67.631  1.00  0.00    -0.562 C  
ENDBRANCH   6  27
ENDBRANCH   4   5
ENDBRANCH   3   4
ENDBRANCH   2   3
TORSDOF 8
ENDMDL
MODEL        3
REMARK 921   NORMALIZED FREE ENERGY PREDICTED BY IDOCK:   -7.73 KCAL/MOL
REMARK 922        TOTAL FREE ENERGY PREDICTED BY IDOCK:  -11.86 KCAL/MOL
REMARK 923 INTER-LIGAND FREE ENERGY PREDICTED BY IDOCK:  -11.11 KCAL/MOL
REMARK 924 INTRA-LIGAND FREE ENERGY PREDICTED BY IDOCK:   -0.75 KCAL/MOL
REMARK 927      BINDING AFFINITY PREDICTED BY RF-SCORE:    0.00 PKD
ROOT
HETATM    1  C   UNL     1     -13.635  13.218  72.410  1.00  0.00    -0.694 C  
HETATM    2  C   UNL     1     -14.282  14.564  72.159  1.00  0.00    -0.619 C  
ENDROOT
BRANCH   2   3
HETATM    3  C   UNL     1     -13.547  15.380  71.092  1.00  0.00    -0.536 C  
BRANCH   3   4
HETATM    4  C   UNL     1     -12.650  14.448  70.278  1.00  0.00    -0.380 C  
BRANCH   4   5
HETATM    5  C   UNL     1     -11.710  15.160  69.329  1.00  0.00    -0.329 C  
HETATM    6  N   UNL     1     -11.446  14.582  68.089  1.00  0.00    -0.297 N  
HETATM    7  O   UNL     1     -11.179  16.225  69.661  1.00  0.00    -0.329 OA 
BRANCH   6   8
HETATM    8  C   UNL     1     -12.098  13.316  67.641  1.00  0.00    -0.249 C  
BRANCH   8   9
HETATM    9  C   UNL     1     -11.393  12.046  68.085  1.00  0.00    -0.349 A  
HETATM   10  C   UNL     1     -11.133  11.028  67.167  1.00  0.00    -0.333 A  
HETATM   11  C   UNL     1     -10.784   9.743  67.610  1.00  0.00    -0.334 A  
HETATM   12  C   UNL     1     -10.591   9.432  68.968  1.00  0.00    -0.233 A  
HETATM   13  C   UNL     1     -11.037  11.799  69.414  1.00  0.00    -0.245 A  
HETATM   14  C   UNL     1     -10.614  10.527  69.844  1.00  0.00    -0.261 A  
BRANCH  12  15
HETATM   15  C   UNL     1     -10.387   8.011  69.413  1.00  0.00    -0.217 A  
HETATM   16  C   UNL     1      -9.359   7.273  68.756  1.00  0.00    -0.143 A  
HETATM   17  C   UNL     1      -9.141   5.910  68.960  1.00  0.00    -0.123 A  
HETATM   18  C   UNL     1      -9.919   5.225  69.876  1.00  0.00    -0.309 A  
HETATM   19  C   UNL     1     -10.903   5.916  70.578  1.00  0.00    -0.366 A  
HETATM   20  C   UNL     1     -11.164   7.296  70.366  1.00  0.00    -0.302 A  
BRANCH  20  21
HETATM   21  C   UNL     1     -12.262   7.830  71.169  1.00  0.00    -0.268 A  
HETATM   22  N   UNL     1     -13.565   7.609  70.890  1.00  0.00    -0.554 NA 
HETATM   23  N   UNL     1     -14.154   8.350  71.833  1.00  0.00    -0.422 NA 
HETATM   24  H   UNL     1     -13.983   7.034  70.159  1.00  0.00     0.000 HD 
HETATM   25  N   UNL     1     -13.330   8.982  72.680  1.00  0.00    -0.420 NA 
HETATM   26  N   UNL     1     -12.114   8.684  72.239  1.00  0.00    -0.377 NA 
ENDBRANCH  20  21
ENDBRANCH  12  15
ENDBRANCH   8   9
ENDBRANCH   6   8
BRANCH   6  27
HETATM   27  C   UNL     1     -10.668  15.353  67.049  1.00  0.00    -0.321 C  
HETATM   28  C   UNL     1     -10.990  15.206  65.528  1.00  0.00    -0.365 C  
HETATM   29  O   UNL     1     -10.876  16.151  64.749  1.00  0.00    -0.634 OA 
HETATM   30  C   UNL     1      -9.133  15.393  67.328  1.00  0.00    -0.218 C  
HETATM   31  O   UNL     1     -11.301  13.989  65.054  1.00  0.00    -0.318 OA 
HETATM   32  C   UNL     1      -8.470  14.037  67.540  1.00  0.00    -0.201 C  
HETATM   33  C   UNL     1      -8.334  16.242  66.337  1.00  0.00    -0.365 C  
ENDBRANCH   6  27
ENDBRANCH   4   5
ENDBRANCH   3   4
ENDBRANCH   2   3
TORSDOF 8
ENDMDL
MODEL        4
REMARK 921   NORMALIZED FREE ENERGY PREDICTED BY IDOCK:   -7.49 KCAL/MOL
REMARK 922        TOTAL FREE ENERGY PREDICTED BY IDOCK:  -11.51 KCAL/MOL
REMARK 923 INTER-LIGAND FREE ENERGY PREDICTED BY IDOCK:  -10.84 KCAL/MOL
REMARK 924 INTRA-LIGAND FREE ENERGY PREDICTED BY IDOCK:   -0.67 KCAL/MOL
REMARK 927      BINDING AFFINITY PREDICTED BY RF-SCORE:    0.00 PKD
ROOT
HETATM    1  C   UNL     1     -12.225  13.683  69.868  1.00  0.00    -0.367 C  
HETATM    2  C   UNL     1     -12.692  13.744  71.308  1.00  0.00    -0.450 C  
ENDROOT
BRANCH   2   3
HETATM    3  C   UNL     1     -13.164  12.386  71.832  1.00  0.00    -0.486 C  
BRANCH   3   4
HETATM    4  C   UNL     1     -12.566  11.278  70.964  1.00  0.00    -0.495 C  
BRANCH   4   5
HETATM    5  C   UNL     1     -12.533   9.918  71.626  1.00  0.00    -0.415 C  
HETATM    6  N   UNL     1     -11.355   9.174  71.568  1.00  0.00    -0.342 N  
HETATM    7  O   UNL     1     -13.537   9.475  72.191  1.00  0.00    -0.424 OA 
BRANCH   6   8
HETATM    8  C   UNL     1     -10.112   9.693  70.926  1.00  0.00    -0.186 C  
BRANCH   8   9
HETATM    9  C   UNL     1     -10.259  10.060  69.459  1.00  0.00    -0.255 A  
HETATM   10  C   UNL     1     -10.911   9.194  68.580  1.00  0.00    -0.092 A  
HETATM   11  C   UNL     1     -10.777   9.357  67.193  1.00  0.00    -0.234 A  
HETATM   12  C   UNL     1     -10.071  10.428  66.616  1.00  0.00    -0.279 A  
HETATM   13  C   UNL     1      -9.705  11.217  68.905  1.00  0.00    -0.141 A  
HETATM   14  C   UNL     1      -9.639  11.415  67.514  1.00  0.00    -0.176 A  
BRANCH  12  15
HETATM   15  C   UNL     1      -9.807  10.471  65.137  1.00  0.00    -0.359 A  
HETATM   16  C   UNL     1      -8.952   9.461  64.607  1.00  0.00    -0.233 A  
HETATM   17  C   UNL     1      -8.504   9.448  63.285  1.00  0.00    -0.202 A  
HETATM   18  C   UNL     1      -8.935  10.429  62.411  1.00  0.00    -0.297 A  
HETATM   19  C   UNL     1      -9.811  11.408  62.871  1.00  0.00    -0.314 A  
HETATM   20  C   UNL     1     -10.257  11.460  64.219  1.00  0.00    -0.367 A  
BRANCH  20  21
HETATM   21  C   UNL     1     -11.140  12.586  64.516  1.00  0.00    -0.317 A  
HETATM   22  N   UNL     1     -10.758  13.877  64.419  1.00  0.00    -0.589 NA 
HETATM   23  N   UNL     1     -11.856  14.499  64.861  1.00  0.00    -0.398 NA 
HETATM   24  H   UNL     1      -9.874  14.270  64.097  1.00  0.00     0.000 HD 
HETATM   25  N   UNL     1     -12.883  13.705  65.193  1.00  0.00    -0.738 NA 
HETATM   26  N   UNL     1     -12.420  12.475  65.011  1.00  0.00    -0.593 NA 
ENDBRANCH  20  21
ENDBRANCH  12  15
ENDBRANCH   8   9
ENDBRANCH   6   8
BRANCH   6  27
HETATM   27  C   UNL     1     -11.227   7.904  72.374  1.00  0.00    -0.350 C  
HETATM   28  C   UNL     1      -9.942   7.606  73.211  1.00  0.00    -0.320 C  
HETATM   29  O   UNL     1      -9.993   6.998  74.279  1.00  0.00    -0.305 OA 
HETATM   30  C   UNL     1     -11.752   6.639  71.626  1.00  0.00    -0.362 C  
HETATM   31  O   UNL     1      -8.749   7.939  72.693  1.00  0.00    -0.135 OA 
HETATM   32  C   UNL     1     -11.163   6.409  70.238  1.00  0.00    -0.445 C  
HETATM   33  C   UNL     1     -11.714   5.354  72.455  1.00  0.00    -0.176 C  
ENDBRANCH   6  27
ENDBRANCH   4   5
ENDBRANCH   3   4
ENDBRANCH   2   3
TORSDOF 8
ENDMDL
MODEL        5
REMARK 921   NORMALIZED FREE ENERGY PREDICTED BY IDOCK:   -7.39 KCAL/MOL
REMARK 922        TOTAL FREE ENERGY PREDICTED BY IDOCK:  -11.37 KCAL/MOL
REMARK 923 INTER-LIGAND FREE ENERGY PREDICTED BY IDOCK:  -10.25 KCAL/MOL
REMARK 924 INTRA-LIGAND FREE ENERGY PREDICTED BY IDOCK:   -1.12 KCAL/MOL
REMARK 927      BINDING AFFINITY PREDICTED BY RF-SCORE:    0.00 PKD
ROOT
HETATM    1  C   UNL     1      -7.393  11.600  68.980  1.00  0.00    -0.074 C  
HETATM    2  C   UNL     1      -7.963  12.700  68.108  1.00  0.00    -0.158 C  
ENDROOT
BRANCH   2   3
HETATM    3  C   UNL     1      -7.441  14.087  68.494  1.00  0.00    -0.124 C  
BRANCH   3   4
HETATM    4  C   UNL     1      -7.488  15.000  67.268  1.00  0.00    -0.215 C  
BRANCH   4   5
HETATM    5  C   UNL     1      -7.440  16.478  67.590  1.00  0.00    -0.144 C  
HETATM    6  N   UNL     1      -8.514  17.281  67.209  1.00  0.00    -0.195 N  
HETATM    7  O   UNL     1      -6.459  16.958  68.166  1.00  0.00    -0.139 OA 
BRANCH   6   8
HETATM    8  C   UNL     1      -9.732  16.728  66.547  1.00  0.00    -0.283 C  
BRANCH   8   9
HETATM    9  C   UNL     1     -10.581  15.827  67.427  1.00  0.00    -0.313 A  
HETATM   10  C   UNL     1     -10.605  16.016  68.809  1.00  0.00    -0.262 A  
HETATM   11  C   UNL     1     -11.114  15.017  69.654  1.00  0.00    -0.291 A  
HETATM   12  C   UNL     1     -11.699  13.834  69.169  1.00  0.00    -0.379 A  
HETATM   13  C   UNL     1     -11.311  14.745  66.928  1.00  0.00    -0.358 A  
HETATM   14  C   UNL     1     -11.885  13.783  67.779  1.00  0.00    -0.404 A  
BRANCH  12  15
HETATM   15  C   UNL     1     -12.073  12.719  70.104  1.00  0.00    -0.370 A  
HETATM   16  C   UNL     1     -11.775  11.392  69.674  1.00  0.00    -0.415 A  
HETATM   17  C   UNL     1     -12.184  10.250  70.364  1.00  0.00    -0.346 A  
HETATM   18  C   UNL     1     -12.875  10.384  71.554  1.00  0.00    -0.569 A  
HETATM   19  C   UNL     1     -13.145  11.661  72.039  1.00  0.00    -0.433 A  
HETATM   20  C   UNL     1     -12.767  12.839  71.340  1.00  0.00    -0.353 A  
BRANCH  20  21
HETATM   21  C   UNL     1     -13.176  14.081  71.991  1.00  0.00    -0.412 A  
HETATM   22  N   UNL     1     -14.380  14.662  71.796  1.00  0.00    -0.515 NA 
HETATM   23  N   UNL     1     -14.242  15.777  72.522  1.00  0.00    -0.481 NA 
HETATM   24  H   UNL     1     -15.175  14.339  71.247  1.00  0.00     0.000 HD 
HETATM   25  N   UNL     1     -13.074  15.916  73.163  1.00  0.00    -0.536 NA 
HETATM   26  N   UNL     1     -12.369  14.851  72.799  1.00  0.00    -0.334 NA 
ENDBRANCH  20  21
ENDBRANCH  12  15
ENDBRANCH   8   9
ENDBRANCH   6   8
BRANCH   6  27
HETATM   27  C   UNL     1      -8.585  18.714  67.679  1.00  0.00    -0.272 C  
HETATM   28  C   UNL     1      -9.946  19.478  67.735  1.00  0.00    -0.381 C  
HETATM   29  O   UNL     1     -10.182  20.317  68.603  1.00  0.00    -0.343 OA 
HETATM   30  C   UNL     1      -7.429  19.605  67.127  1.00  0.00    -0.260 C  
HETATM   31  O   UNL     1     -10.834  19.278  66.746  1.00  0.00    -0.438 OA 
HETATM   32  C   UNL     1      -7.254  19.586  65.613  1.00  0.00    -0.283 C  
HETATM   33  C   UNL     1      -7.429  21.040  67.659  1.00  0.00    -0.171 C  
ENDBRANCH   6  27
ENDBRANCH   4   5
ENDBRANCH   3   4
ENDBRANCH   2   3
TORSDOF 8
ENDMDL
MODEL        6
REMARK 921   NORMALIZED FREE ENERGY PREDICTED BY IDOCK:   -7.35 KCAL/MOL
REMARK 922        TOTAL FREE ENERGY PREDICTED BY IDOCK:  -11.32 KCAL/MOL
REMARK 923 INTER-LIGAND FREE ENERGY PREDICTED BY IDOCK:   -9.86 KCAL/MOL
REMARK 924 INTRA-LIGAND FREE ENERGY PREDICTED BY IDOCK:   -1.46 KCAL/MOL
REMARK 927      BINDING AFFINITY PREDICTED BY RF-SCORE:    0.00 PKD
ROOT
HETATM    1  C   UNL     1     -13.237  10.918  71.821  1.00  0.00    -0.513 C  
HETATM    2  C   UNL     1     -13.438   9.448  71.511  1.00  0.00    -0.445 C  
ENDROOT
BRANCH   2   3
HETATM    3  C   UNL     1     -12.658   8.535  72.460  1.00  0.00    -0.346 C  
BRANCH   3   4
HETATM    4  C   UNL     1     -11.214   8.418  71.971  1.00  0.00    -0.404 C  
BRANCH   4   5
HETATM    5  C   UNL     1     -10.993   7.334  70.938  1.00  0.00    -0.253 C  
HETATM    6  N   UNL     1      -9.981   7.505  69.995  1.00  0.00    -0.184 N  
HETATM    7  O   UNL     1     -11.710   6.329  70.927  1.00  0.00    -0.333 OA 
BRANCH   6   8
HETATM    8  C   UNL     1      -9.072   8.689  70.001  1.00  0.00    -0.156 C  
BRANCH   8   9
HETATM    9  C   UNL     1      -9.521   9.839  69.116  1.00  0.00    -0.191 A  
HETATM   10  C   UNL     1     -10.838  10.297  69.172  1.00  0.00    -0.270 A  
HETATM   11  C   UNL     1     -11.348  11.121  68.156  1.00  0.00    -0.377 A  
HETATM   12  C   UNL     1     -10.559  11.598  67.095  1.00  0.00    -0.269 A  
HETATM   13  C   UNL     1      -8.687  10.442  68.170  1.00  0.00    -0.125 A  
HETATM   14  C   UNL     1      -9.186  11.327  67.198  1.00  0.00    -0.169 A  
BRANCH  12  15
HETATM   15  C   UNL     1     -11.181  12.333  65.941  1.00  0.00    -0.381 A  
HETATM   16  C   UNL     1     -11.346  11.603  64.727  1.00  0.00    -0.270 A  
HETATM   17  C   UNL     1     -11.779  12.183  63.534  1.00  0.00    -0.579 A  
HETATM   18  C   UNL     1     -12.115  13.524  63.511  1.00  0.00    -0.425 A  
HETATM   19  C   UNL     1     -12.017  14.266  64.685  1.00  0.00    -0.468 A  
HETATM   20  C   UNL     1     -11.551  13.706  65.905  1.00  0.00    -0.346 A  
BRANCH  20  21
HETATM   21  C   UNL     1     -11.481  14.656  67.013  1.00  0.00    -0.368 A  
HETATM   22  N   UNL     1     -12.290  14.600  68.093  1.00  0.00    -0.592 NA 
HETATM   23  N   UNL     1     -11.902  15.695  68.755  1.00  0.00    -0.362 NA 
HETATM   24  H   UNL     1     -13.001  13.911  68.337  1.00  0.00     0.000 HD 
HETATM   25  N   UNL     1     -10.912  16.399  68.191  1.00  0.00    -0.347 NA 
HETATM   26  N   UNL     1     -10.660  15.761  67.054  1.00  0.00    -0.314 NA 
ENDBRANCH  20  21
ENDBRANCH  12  15
ENDBRANCH   8   9
ENDBRANCH   6   8
BRANCH   6  27
HETATM   27  C   UNL     1      -9.611   6.367  69.074  1.00  0.00    -0.131 C  
HETATM   28  C   UNL     1      -8.121   6.078  68.707  1.00  0.00    -0.104 C  
HETATM   29  O   UNL     1      -7.711   4.934  68.519  1.00  0.00    -0.077 OA 
HETATM   30  C   UNL     1     -10.560   6.232  67.842  1.00  0.00    -0.327 C  
HETATM   31  O   UNL     1      -7.299   7.120  68.496  1.00  0.00    -0.094 OA 
HETATM   32  C   UNL     1     -10.744   7.501  67.017  1.00  0.00    -0.367 C  
HETATM   33  C   UNL     1     -10.259   5.033  66.942  1.00  0.00    -0.270 C  
ENDBRANCH   6  27
ENDBRANCH   4   5
ENDBRANCH   3   4
ENDBRANCH   2   3
TORSDOF 8
ENDMDL
MODEL        7
REMARK 921   NORMALIZED FREE ENERGY PREDICTED BY IDOCK:   -7.29 KCAL/MOL
REMARK 922        TOTAL FREE ENERGY PREDICTED BY IDOCK:  -11.23 KCAL/MOL
REMARK 923 INTER-LIGAND FREE ENERGY PREDICTED BY IDOCK:   -9.95 KCAL/MOL
REMARK 924 INTRA-LIGAND FREE ENERGY PREDICTED BY IDOCK:   -1.27 KCAL/MOL
REMARK 927      BINDING AFFINITY PREDICTED BY RF-SCORE:    0.00 PKD
ROOT
HETATM    1  C   UNL     1     -12.889  12.287  71.462  1.00  0.00    -0.384 C  
HETATM    2  C   UNL     1     -13.325  10.993  72.119  1.00  0.00    -0.285 C  
ENDROOT
BRANCH   2   3
HETATM    3  C   UNL     1     -13.125   9.777  71.211  1.00  0.00    -0.465 C  
BRANCH   3   4
HETATM    4  C   UNL     1     -11.940   8.958  71.723  1.00  0.00    -0.429 C  
BRANCH   4   5
HETATM    5  C   UNL     1     -11.532   7.818  70.815  1.00  0.00    -0.272 C  
HETATM    6  N   UNL     1     -10.384   7.959  70.037  1.00  0.00    -0.216 N  
HETATM    7  O   UNL     1     -12.216   6.792  70.758  1.00  0.00    -0.390 OA 
BRANCH   6   8
HETATM    8  C   UNL     1      -9.513   9.169  70.109  1.00  0.00    -0.208 C  
BRANCH   8   9
HETATM    9  C   UNL     1      -9.787  10.214  69.040  1.00  0.00    -0.211 A  
HETATM   10  C   UNL     1      -8.746  10.699  68.248  1.00  0.00    -0.135 A  
HETATM   11  C   UNL     1      -8.914  11.872  67.495  1.00  0.00    -0.171 A  
HETATM   12  C   UNL     1     -10.137  12.561  67.421  1.00  0.00    -0.211 A  
HETATM   13  C   UNL     1     -11.047  10.785  68.841  1.00  0.00    -0.307 A  
HETATM   14  C   UNL     1     -11.227  11.917  68.024  1.00  0.00    -0.317 A  
BRANCH  12  15
HETATM   15  C   UNL     1     -10.228  13.901  66.745  1.00  0.00    -0.268 A  
HETATM   16  C   UNL     1      -9.603  14.999  67.406  1.00  0.00    -0.205 A  
HETATM   17  C   UNL     1      -9.718  16.321  66.977  1.00  0.00    -0.244 A  
HETATM   18  C   UNL     1     -10.431  16.604  65.827  1.00  0.00    -0.324 A  
HETATM   19  C   UNL     1     -11.018  15.558  65.120  1.00  0.00    -0.422 A  
HETATM   20  C   UNL     1     -10.941  14.207  65.553  1.00  0.00    -0.310 A  
BRANCH  20  21
HETATM   21  C   UNL     1     -11.655  13.261  64.698  1.00  0.00    -0.350 A  
HETATM   22  N   UNL     1     -11.163  12.796  63.530  1.00  0.00    -0.567 NA 
HETATM   23  N   UNL     1     -12.190  12.053  63.102  1.00  0.00    -0.380 NA 
HETATM   24  H   UNL     1     -10.257  12.966  63.093  1.00  0.00     0.000 HD 
HETATM   25  N   UNL     1     -13.252  12.001  63.917  1.00  0.00    -0.631 NA 
HETATM   26  N   UNL     1     -12.933  12.802  64.926  1.00  0.00    -0.853 NA 
ENDBRANCH  20  21
ENDBRANCH  12  15
ENDBRANCH   8   9
ENDBRANCH   6   8
BRANCH   6  27
HETATM   27  C   UNL     1      -9.845   6.777  69.267  1.00  0.00    -0.155 C  
HETATM   28  C   UNL     1      -8.311   6.497  69.188  1.00  0.00    -0.119 C  
HETATM   29  O   UNL     1      -7.864   5.351  69.145  1.00  0.00    -0.087 OA 
HETATM   30  C   UNL     1     -10.560   6.552  67.898  1.00  0.00    -0.313 C  
HETATM   31  O   UNL     1      -7.475   7.541  69.062  1.00  0.00    -0.091 OA 
HETATM   32  C   UNL     1     -10.606   7.766  66.977  1.00  0.00    -0.396 C  
HETATM   33  C   UNL     1     -10.093   5.308  67.140  1.00  0.00    -0.239 C  
ENDBRANCH   6  27
ENDBRANCH   4   5
ENDBRANCH   3   4
ENDBRANCH   2   3
TORSDOF 8
ENDMDL
MODEL        8
REMARK 921   NORMALIZED FREE ENERGY PREDICTED BY IDOCK:   -7.25 KCAL/MOL
REMARK 922        TOTAL FREE ENERGY PREDICTED BY IDOCK:  -11.17 KCAL/MOL
REMARK 923 INTER-LIGAND FREE ENERGY PREDICTED BY IDOCK:   -9.74 KCAL/MOL
REMARK 924 INTRA-LIGAND FREE ENERGY PREDICTED BY IDOCK:   -1.42 KCAL/MOL
REMARK 927      BINDING AFFINITY PREDICTED BY RF-SCORE:    0.00 PKD
ROOT
HETATM    1  C   UNL     1     -12.097  14.305  64.532  1.00  0.00    -0.499 C  
HETATM    2  C   UNL     1     -12.105  12.934  63.885  1.00  0.00    -0.553 C  
ENDROOT
BRANCH   2   3
HETATM    3  C   UNL     1     -10.696  12.380  63.664  1.00  0.00    -0.497 C  
BRANCH   3   4
HETATM    4  C   UNL     1     -10.574  11.026  64.364  1.00  0.00    -0.395 C  
BRANCH   4   5
HETATM    5  C   UNL     1      -9.288  10.839  65.139  1.00  0.00    -0.217 C  
HETATM    6  N   UNL     1      -9.350  10.280  66.414  1.00  0.00    -0.161 N  
HETATM    7  O   UNL     1      -8.210  11.191  64.651  1.00  0.00     0.195 OA 
BRANCH   6   8
HETATM    8  C   UNL     1     -10.629   9.808  67.020  1.00  0.00    -0.199 C  
BRANCH   8   9
HETATM    9  C   UNL     1     -11.297  10.806  67.951  1.00  0.00    -0.372 A  
HETATM   10  C   UNL     1     -11.463  12.134  67.556  1.00  0.00    -0.410 A  
HETATM   11  C   UNL     1     -11.775  13.124  68.501  1.00  0.00    -0.387 A  
HETATM   12  C   UNL     1     -12.023  12.833  69.854  1.00  0.00    -0.368 A  
HETATM   13  C   UNL     1     -11.709  10.481  69.246  1.00  0.00    -0.281 A  
HETATM   14  C   UNL     1     -12.094  11.468  70.172  1.00  0.00    -0.432 A  
BRANCH  12  15
HETATM   15  C   UNL     1     -12.183  13.935  70.864  1.00  0.00    -0.436 A  
HETATM   16  C   UNL     1     -13.170  13.742  71.875  1.00  0.00    -0.486 A  
HETATM   17  C   UNL     1     -13.531  14.727  72.795  1.00  0.00    -0.572 A  
HETATM   18  C   UNL     1     -12.880  15.947  72.777  1.00  0.00    -0.572 A  
HETATM   19  C   UNL     1     -11.874  16.163  71.839  1.00  0.00    -0.605 A  
HETATM   20  C   UNL     1     -11.510  15.187  70.873  1.00  0.00    -0.363 A  
BRANCH  20  21
HETATM   21  C   UNL     1     -10.461  15.618  69.951  1.00  0.00    -0.320 A  
HETATM   22  N   UNL     1      -9.195  15.151  69.993  1.00  0.00    -0.391 NA 
HETATM   23  N   UNL     1      -8.622  15.887  69.034  1.00  0.00    -0.225 NA 
HETATM   24  H   UNL     1      -8.787  14.433  70.592  1.00  0.00     0.000 HD 
HETATM   25  N   UNL     1      -9.430  16.742  68.394  1.00  0.00    -0.233 NA 
HETATM   26  N   UNL     1     -10.603  16.603  68.999  1.00  0.00    -0.320 NA 
ENDBRANCH  20  21
ENDBRANCH  12  15
ENDBRANCH   8   9
ENDBRANCH   6   8
BRANCH   6  27
HETATM   27  C   UNL     1      -8.076   9.906  67.135  1.00  0.00    -0.117 C  
HETATM   28  C   UNL     1      -8.016   8.658  68.072  1.00  0.00    -0.107 C  
HETATM   29  O   UNL     1      -6.997   7.977  68.177  1.00  0.00    -0.072 OA 
HETATM   30  C   UNL     1      -7.321  11.133  67.734  1.00  0.00    -0.093 C  
HETATM   31  O   UNL     1      -9.076   8.392  68.853  1.00  0.00    -0.146 OA 
HETATM   32  C   UNL     1      -8.154  12.039  68.634  1.00  0.00    -0.069 C  
HETATM   33  C   UNL     1      -5.983  10.790  68.393  1.00  0.00    -0.043 C  
ENDBRANCH   6  27
ENDBRANCH   4   5
ENDBRANCH   3   4
ENDBRANCH   2   3
TORSDOF 8
ENDMDL
MODEL        9
REMARK 921   NORMALIZED FREE ENERGY PREDICTED BY IDOCK:   -7.21 KCAL/MOL
REMARK 922        TOTAL FREE ENERGY PREDICTED BY IDOCK:  -11.11 KCAL/MOL
REMARK 923 INTER-LIGAND FREE ENERGY PREDICTED BY IDOCK:  -10.56 KCAL/MOL
REMARK 924 INTRA-LIGAND FREE ENERGY PREDICTED BY IDOCK:   -0.55 KCAL/MOL
REMARK 927      BINDING AFFINITY PREDICTED BY RF-SCORE:    0.00 PKD
ROOT
HETATM    1  C   UNL     1     -12.744  15.384  70.476  1.00  0.00    -0.455 C  
HETATM    2  C   UNL     1     -11.391  16.028  70.256  1.00  0.00    -0.391 C  
ENDROOT
BRANCH   2   3
HETATM    3  C   UNL     1     -10.950  15.984  68.791  1.00  0.00    -0.320 C  
BRANCH   3   4
HETATM    4  C   UNL     1     -10.098  14.736  68.560  1.00  0.00    -0.230 C  
BRANCH   4   5
HETATM    5  C   UNL     1      -9.976  14.325  67.108  1.00  0.00    -0.255 C  
HETATM    6  N   UNL     1     -10.887  13.403  66.595  1.00  0.00    -0.281 N  
HETATM    7  O   UNL     1      -9.075  14.789  66.403  1.00  0.00    -0.271 OA 
BRANCH   6   8
HETATM    8  C   UNL     1     -12.010  12.851  67.408  1.00  0.00    -0.300 C  
BRANCH   8   9
HETATM    9  C   UNL     1     -11.588  11.885  68.503  1.00  0.00    -0.375 A  
HETATM   10  C   UNL     1     -10.385  11.186  68.398  1.00  0.00    -0.201 A  
HETATM   11  C   UNL     1     -10.135  10.074  69.217  1.00  0.00    -0.226 A  
HETATM   12  C   UNL     1     -11.018   9.661  70.230  1.00  0.00    -0.337 A  
HETATM   13  C   UNL     1     -12.388  11.595  69.611  1.00  0.00    -0.172 A  
HETATM   14  C   UNL     1     -12.096  10.525  70.477  1.00  0.00    -0.437 A  
BRANCH  12  15
HETATM   15  C   UNL     1     -10.797   8.370  70.967  1.00  0.00    -0.280 A  
HETATM   16  C   UNL     1     -10.813   8.432  72.391  1.00  0.00    -0.416 A  
HETATM   17  C   UNL     1     -10.488   7.351  73.211  1.00  0.00    -0.424 A  
HETATM   18  C   UNL     1     -10.177   6.131  72.639  1.00  0.00    -0.202 A  
HETATM   19  C   UNL     1     -10.198   6.009  71.252  1.00  0.00    -0.253 A  
HETATM   20  C   UNL     1     -10.495   7.103  70.395  1.00  0.00    -0.234 A  
BRANCH  20  21
HETATM   21  C   UNL     1     -10.426   6.785  68.971  1.00  0.00    -0.206 A  
HETATM   22  N   UNL     1     -11.515   6.551  68.207  1.00  0.00    -0.543 NA 
HETATM   23  N   UNL     1     -10.941   6.235  67.041  1.00  0.00    -0.375 NA 
HETATM   24  H   UNL     1     -12.503   6.602  68.452  1.00  0.00     0.000 HD 
HETATM   25  N   UNL     1      -9.603   6.281  67.017  1.00  0.00    -0.135 NA 
HETATM   26  N   UNL     1      -9.262   6.596  68.261  1.00  0.00    -0.123 NA 
ENDBRANCH  20  21
ENDBRANCH  12  15
ENDBRANCH   8   9
ENDBRANCH   6   8
BRANCH   6  27
HETATM   27  C   UNL     1     -10.913  13.115  65.113  1.00  0.00    -0.298 C  
HETATM   28  C   UNL     1     -12.256  13.099  64.317  1.00  0.00    -0.396 C  
HETATM   29  O   UNL     1     -12.320  13.475  63.148  1.00  0.00    -0.712 OA 
HETATM   30  C   UNL     1      -9.961  11.952  64.692  1.00  0.00    -0.257 C  
HETATM   31  O   UNL     1     -13.342  12.567  64.903  1.00  0.00    -0.702 OA 
HETATM   32  C   UNL     1     -10.147  10.646  65.455  1.00  0.00    -0.343 C  
HETATM   33  C   UNL     1      -9.903  11.700  63.184  1.00  0.00    -0.407 C  
ENDBRANCH   6  27
ENDBRANCH   4   5
ENDBRANCH   3   4
ENDBRANCH   2   3
TORSDOF 8
ENDMDL
MODEL       10
REMARK 921   NORMALIZED FREE ENERGY PREDICTED BY IDOCK:   -7.21 KCAL/MOL
REMARK 922        TOTAL FREE ENERGY PREDICTED BY IDOCK:  -11.10 KCAL/MOL
REMARK 923 INTER-LIGAND FREE ENERGY PREDICTED BY IDOCK:  -10.38 KCAL/MOL
REMARK 924 INTRA-LIGAND FREE ENERGY PREDICTED BY IDOCK:   -0.72 KCAL/MOL
REMARK 927      BINDING AFFINITY PREDICTED BY RF-SCORE:    0.00 PKD
ROOT
HETATM    1  C   UNL     1      -9.956  10.575  63.846  1.00  0.00    -0.348 C  
HETATM    2  C   UNL     1     -10.559  11.836  63.261  1.00  0.00    -0.427 C  
ENDROOT
BRANCH   2   3
HETATM    3  C   UNL     1     -12.047  11.982  63.585  1.00  0.00    -0.627 C  
BRANCH   3   4
HETATM    4  C   UNL     1     -12.213  12.226  65.085  1.00  0.00    -0.345 C  
BRANCH   4   5
HETATM    5  C   UNL     1     -12.018  13.666  65.507  1.00  0.00    -0.384 C  
HETATM    6  N   UNL     1     -10.889  13.997  66.255  1.00  0.00    -0.290 N  
HETATM    7  O   UNL     1     -12.854  14.522  65.204  1.00  0.00    -0.519 OA 
BRANCH   6   8
HETATM    8  C   UNL     1      -9.840  12.996  66.607  1.00  0.00    -0.252 C  
BRANCH   8   9
HETATM    9  C   UNL     1     -10.193  12.088  67.774  1.00  0.00    -0.211 A  
HETATM   10  C   UNL     1      -9.199  11.348  68.414  1.00  0.00    -0.183 A  
HETATM   11  C   UNL     1      -9.541  10.283  69.261  1.00  0.00    -0.239 A  
HETATM   12  C   UNL     1     -10.872   9.961  69.581  1.00  0.00    -0.281 A  
HETATM   13  C   UNL     1     -11.505  11.893  68.215  1.00  0.00    -0.372 A  
HETATM   14  C   UNL     1     -11.837  10.871  69.124  1.00  0.00    -0.389 A  
BRANCH  12  15
HETATM   15  C   UNL     1     -11.201   8.713  70.351  1.00  0.00    -0.236 A  
HETATM   16  C   UNL     1     -11.667   8.885  71.687  1.00  0.00    -0.411 A  
HETATM   17  C   UNL     1     -11.880   7.826  72.570  1.00  0.00    -0.354 A  
HETATM   18  C   UNL     1     -11.682   6.528  72.137  1.00  0.00    -0.353 A  
HETATM   19  C   UNL     1     -11.276   6.307  70.823  1.00  0.00    -0.387 A  
HETATM   20  C   UNL     1     -11.023   7.370  69.915  1.00  0.00    -0.239 A  
BRANCH  20  21
HETATM   21  C   UNL     1     -10.566   6.937  68.596  1.00  0.00    -0.223 A  
HETATM   22  N   UNL     1     -11.396   6.728  67.553  1.00  0.00    -0.707 NA 
HETATM   23  N   UNL     1     -10.536   6.278  66.632  1.00  0.00    -0.209 NA 
HETATM   24  H   UNL     1     -12.403   6.873  67.485  1.00  0.00     0.000 HD 
HETATM   25  N   UNL     1      -9.253   6.220  67.012  1.00  0.00    -0.121 NA 
HETATM   26  N   UNL     1      -9.267   6.605  68.282  1.00  0.00    -0.123 NA 
ENDBRANCH  20  21
ENDBRANCH  12  15
ENDBRANCH   8   9
ENDBRANCH   6   8
BRANCH   6  27
HETATM   27  C   UNL     1     -10.567  15.447  66.530  1.00  0.00    -0.306 C  
HETATM   28  C   UNL     1      -9.148  16.028  66.233  1.00  0.00    -0.344 C  
HETATM   29  O   UNL     1      -8.991  17.187  65.854  1.00  0.00    -0.519 OA 
HETATM   30  C   UNL     1     -11.147  15.964  67.883  1.00  0.00    -0.317 C  
HETATM   31  O   UNL     1      -8.075  15.265  66.498  1.00  0.00    -0.140 OA 
HETATM   32  C   UNL     1     -10.788  15.134  69.110  1.00  0.00    -0.251 C  
HETATM   33  C   UNL     1     -10.910  17.453  68.143  1.00  0.00    -0.273 C  
ENDBRANCH   6  27
ENDBRANCH   4   5
ENDBRANCH   3   4
ENDBRANCH   2   3
TORSDOF 8
ENDMDL
MODEL       11
REMARK 921   NORMALIZED FREE ENERGY PREDICTED BY IDOCK:   -7.14 KCAL/MOL
REMARK 922        TOTAL FREE ENERGY PREDICTED BY IDOCK:  -11.01 KCAL/MOL
REMARK 923 INTER-LIGAND FREE ENERGY PREDICTED BY IDOCK:  -10.19 KCAL/MOL
REMARK 924 INTRA-LIGAND FREE ENERGY PREDICTED BY IDOCK:   -0.82 KCAL/MOL
REMARK 927      BINDING AFFINITY PREDICTED BY RF-SCORE:    0.00 PKD
ROOT
HETATM    1  C   UNL     1      -9.575   9.418  66.020  1.00  0.00    -0.328 C  
HETATM    2  C   UNL     1     -10.517   8.625  66.904  1.00  0.00    -0.329 C  
ENDROOT
BRANCH   2   3
HETATM    3  C   UNL     1     -10.188   7.130  66.921  1.00  0.00    -0.330 C  
BRANCH   3   4
HETATM    4  C   UNL     1     -11.021   6.446  68.005  1.00  0.00    -0.400 C  
BRANCH   4   5
HETATM    5  C   UNL     1     -10.213   5.925  69.175  1.00  0.00    -0.215 C  
HETATM    6  N   UNL     1     -10.719   6.090  70.463  1.00  0.00    -0.263 N  
HETATM    7  O   UNL     1      -9.122   5.381  68.985  1.00  0.00    -0.112 OA 
BRANCH   6   8
HETATM    8  C   UNL     1     -12.051   6.709  70.727  1.00  0.00    -0.304 C  
BRANCH   8   9
HETATM    9  C   UNL     1     -12.009   8.196  71.041  1.00  0.00    -0.257 A  
HETATM   10  C   UNL     1     -12.972   8.765  71.875  1.00  0.00    -0.421 A  
HETATM   11  C   UNL     1     -13.142  10.157  71.918  1.00  0.00    -0.571 A  
HETATM   12  C   UNL     1     -12.314  11.047  71.210  1.00  0.00    -0.426 A  
HETATM   13  C   UNL     1     -11.076   9.067  70.473  1.00  0.00    -0.297 A  
HETATM   14  C   UNL     1     -11.205  10.464  70.580  1.00  0.00    -0.395 A  
BRANCH  12  15
HETATM   15  C   UNL     1     -12.636  12.514  71.146  1.00  0.00    -0.349 A  
HETATM   16  C   UNL     1     -13.449  13.041  72.193  1.00  0.00    -0.638 A  
HETATM   17  C   UNL     1     -13.944  14.345  72.199  1.00  0.00    -0.607 A  
HETATM   18  C   UNL     1     -13.605  15.207  71.173  1.00  0.00    -0.525 A  
HETATM   19  C   UNL     1     -12.772  14.753  70.154  1.00  0.00    -0.264 A  
HETATM   20  C   UNL     1     -12.280  13.421  70.110  1.00  0.00    -0.385 A  
BRANCH  20  21
HETATM   21  C   UNL     1     -11.454  13.125  68.940  1.00  0.00    -0.298 A  
HETATM   22  N   UNL     1     -10.146  13.449  68.852  1.00  0.00    -0.431 NA 
HETATM   23  N   UNL     1      -9.874  13.056  67.602  1.00  0.00    -0.207 NA 
HETATM   24  H   UNL     1      -9.534  13.875  69.547  1.00  0.00     0.000 HD 
HETATM   25  N   UNL     1     -10.890  12.499  66.931  1.00  0.00    -0.243 NA 
HETATM   26  N   UNL     1     -11.918  12.572  67.768  1.00  0.00    -0.429 NA 
ENDBRANCH  20  21
ENDBRANCH  12  15
ENDBRANCH   8   9
ENDBRANCH   6   8
BRANCH   6  27
HETATM   27  C   UNL     1     -10.036   5.420  71.632  1.00  0.00    -0.186 C  
HETATM   28  C   UNL     1     -10.862   4.710  72.750  1.00  0.00    -0.185 C  
HETATM   29  O   UNL     1     -10.445   3.704  73.323  1.00  0.00    -0.155 OA 
HETATM   30  C   UNL     1      -8.844   6.246  72.209  1.00  0.00    -0.136 C  
HETATM   31  O   UNL     1     -12.009   5.279  73.159  1.00  0.00    -0.176 OA 
HETATM   32  C   UNL     1      -9.169   7.688  72.584  1.00  0.00    -0.217 C  
HETATM   33  C   UNL     1      -8.081   5.548  73.336  1.00  0.00    -0.114 C  
ENDBRANCH   6  27
ENDBRANCH   4   5
ENDBRANCH   3   4
ENDBRANCH   2   3
TORSDOF 8
ENDMDL
MODEL       12
REMARK 921   NORMALIZED FREE ENERGY PREDICTED BY IDOCK:   -7.13 KCAL/MOL
REMARK 922        TOTAL FREE ENERGY PREDICTED BY IDOCK:  -10.99 KCAL/MOL
REMARK 923 INTER-LIGAND FREE ENERGY PREDICTED BY IDOCK:   -9.79 KCAL/MOL
REMARK 924 INTRA-LIGAND FREE ENERGY PREDICTED BY IDOCK:   -1.19 KCAL/MOL
REMARK 927      BINDING AFFINITY PREDICTED BY RF-SCORE:    0.00 PKD
ROOT
HETATM    1  C   UNL     1     -12.652  13.819  65.400  1.00  0.00    -0.534 C  
HETATM    2  C   UNL     1     -12.540  12.510  64.645  1.00  0.00    -0.507 C  
ENDROOT
BRANCH   2   3
HETATM    3  C   UNL     1     -11.578  12.596  63.458  1.00  0.00    -0.584 C  
BRANCH   3   4
HETATM    4  C   UNL     1     -10.153  12.337  63.947  1.00  0.00    -0.374 C  
BRANCH   4   5
HETATM    5  C   UNL     1      -9.676  10.914  63.752  1.00  0.00    -0.307 C  
HETATM    6  N   UNL     1      -8.828  10.356  64.707  1.00  0.00    -0.183 N  
HETATM    7  O   UNL     1     -10.022  10.273  62.756  1.00  0.00    -0.145 OA 
BRANCH   6   8
HETATM    8  C   UNL     1      -8.418  11.089  65.940  1.00  0.00    -0.140 C  
BRANCH   8   9
HETATM    9  C   UNL     1      -9.571  11.610  66.781  1.00  0.00    -0.207 A  
HETATM   10  C   UNL     1      -9.555  12.920  67.262  1.00  0.00    -0.220 A  
HETATM   11  C   UNL     1     -10.430  13.312  68.286  1.00  0.00    -0.257 A  
HETATM   12  C   UNL     1     -11.415  12.459  68.815  1.00  0.00    -0.350 A  
HETATM   13  C   UNL     1     -10.650  10.812  67.172  1.00  0.00    -0.306 A  
HETATM   14  C   UNL     1     -11.573  11.236  68.145  1.00  0.00    -0.359 A  
BRANCH  12  15
HETATM   15  C   UNL     1     -12.215  12.859  70.023  1.00  0.00    -0.292 A  
HETATM   16  C   UNL     1     -12.492  14.248  70.180  1.00  0.00    -0.393 A  
HETATM   17  C   UNL     1     -13.100  14.788  71.314  1.00  0.00    -0.433 A  
HETATM   18  C   UNL     1     -13.508  13.948  72.333  1.00  0.00    -0.661 A  
HETATM   19  C   UNL     1     -13.303  12.577  72.203  1.00  0.00    -0.540 A  
HETATM   20  C   UNL     1     -12.659  12.006  71.072  1.00  0.00    -0.370 A  
BRANCH  20  21
HETATM   21  C   UNL     1     -12.502  10.555  71.140  1.00  0.00    -0.412 A  
HETATM   22  N   UNL     1     -13.529   9.688  71.016  1.00  0.00    -0.560 NA 
HETATM   23  N   UNL     1     -12.905   8.525  71.226  1.00  0.00    -0.238 NA 
HETATM   24  H   UNL     1     -14.513   9.871  70.816  1.00  0.00     0.000 HD 
HETATM   25  N   UNL     1     -11.585   8.601  71.441  1.00  0.00    -0.277 NA 
HETATM   26  N   UNL     1     -11.323   9.902  71.424  1.00  0.00    -0.340 NA 
ENDBRANCH  20  21
ENDBRANCH  12  15
ENDBRANCH   8   9
ENDBRANCH   6   8
BRANCH   6  27
HETATM   27  C   UNL     1      -8.486   8.886  64.642  1.00  0.00    -0.168 C  
HETATM   28  C   UNL     1      -8.493   7.999  65.928  1.00  0.00    -0.143 C  
HETATM   29  O   UNL     1      -8.827   6.816  65.895  1.00  0.00    -0.156 OA 
HETATM   30  C   UNL     1      -7.272   8.572  63.713  1.00  0.00    -0.098 C  
HETATM   31  O   UNL     1      -8.025   8.526  67.072  1.00  0.00    -0.098 OA 
HETATM   32  C   UNL     1      -6.003   9.365  64.004  1.00  0.00    -0.082 C  
HETATM   33  C   UNL     1      -6.963   7.082  63.562  1.00  0.00    -0.061 C  
ENDBRANCH   6  27
ENDBRANCH   4   5
ENDBRANCH   3   4
ENDBRANCH   2   3
TORSDOF 8
ENDMDL
MODEL       13
REMARK 921   NORMALIZED FREE ENERGY PREDICTED BY IDOCK:   -7.12 KCAL/MOL
REMARK 922        TOTAL FREE ENERGY PREDICTED BY IDOCK:  -10.97 KCAL/MOL
REMARK 923 INTER-LIGAND FREE ENERGY PREDICTED BY IDOCK:  -10.14 KCAL/MOL
REMARK 924 INTRA-LIGAND FREE ENERGY PREDICTED BY IDOCK:   -0.83 KCAL/MOL
REMARK 927      BINDING AFFINITY PREDICTED BY RF-SCORE:    0.00 PKD
ROOT
HETATM    1  C   UNL     1     -14.197  15.363  72.319  1.00  0.00    -0.639 C  
HETATM    2  C   UNL     1     -12.695  15.553  72.379  1.00  0.00    -0.488 C  
ENDROOT
BRANCH   2   3
HETATM    3  C   UNL     1     -11.951  14.688  71.358  1.00  0.00    -0.405 C  
BRANCH   3   4
HETATM    4  C   UNL     1     -12.530  14.946  69.966  1.00  0.00    -0.320 C  
BRANCH   4   5
HETATM    5  C   UNL     1     -11.584  15.652  69.019  1.00  0.00    -0.386 C  
HETATM    6  N   UNL     1     -11.362  15.098  67.759  1.00  0.00    -0.324 N  
HETATM    7  O   UNL     1     -11.012  16.689  69.369  1.00  0.00    -0.301 OA 
BRANCH   6   8
HETATM    8  C   UNL     1     -12.064  13.868  67.290  1.00  0.00    -0.368 C  
BRANCH   8   9
HETATM    9  C   UNL     1     -11.367  12.565  67.644  1.00  0.00    -0.362 A  
HETATM   10  C   UNL     1     -10.556  11.924  66.707  1.00  0.00    -0.264 A  
HETATM   11  C   UNL     1     -10.173  10.587  66.894  1.00  0.00    -0.280 A  
HETATM   12  C   UNL     1     -10.497   9.857  68.051  1.00  0.00    -0.266 A  
HETATM   13  C   UNL     1     -11.548  11.913  68.868  1.00  0.00    -0.370 A  
HETATM   14  C   UNL     1     -11.096  10.598  69.081  1.00  0.00    -0.309 A  
BRANCH  12  15
HETATM   15  C   UNL     1     -10.217   8.383  68.138  1.00  0.00    -0.253 A  
HETATM   16  C   UNL     1     -10.796   7.558  67.129  1.00  0.00    -0.298 A  
HETATM   17  C   UNL     1     -10.742   6.164  67.151  1.00  0.00    -0.422 A  
HETATM   18  C   UNL     1     -10.057   5.525  68.168  1.00  0.00    -0.221 A  
HETATM   19  C   UNL     1      -9.432   6.291  69.149  1.00  0.00    -0.139 A  
HETATM   20  C   UNL     1      -9.498   7.710  69.165  1.00  0.00    -0.154 A  
BRANCH  20  21
HETATM   21  C   UNL     1      -8.813   8.330  70.297  1.00  0.00    -0.141 A  
HETATM   22  N   UNL     1      -7.892   9.309  70.164  1.00  0.00    -0.107 NA 
HETATM   23  N   UNL     1      -7.515   9.473  71.437  1.00  0.00    -0.280 NA 
HETATM   24  H   UNL     1      -7.572   9.790  69.324  1.00  0.00     0.000 HD 
HETATM   25  N   UNL     1      -8.141   8.703  72.336  1.00  0.00    -0.367 NA 
HETATM   26  N   UNL     1      -8.949   7.940  71.610  1.00  0.00    -0.131 NA 
ENDBRANCH  20  21
ENDBRANCH  12  15
ENDBRANCH   8   9
ENDBRANCH   6   8
BRANCH   6  27
HETATM   27  C   UNL     1     -10.577  15.871  66.726  1.00  0.00    -0.309 C  
HETATM   28  C   UNL     1     -10.945  15.794  65.210  1.00  0.00    -0.344 C  
HETATM   29  O   UNL     1     -10.809  16.761  64.462  1.00  0.00    -0.886 OA 
HETATM   30  C   UNL     1      -9.035  15.833  66.963  1.00  0.00    -0.247 C  
HETATM   31  O   UNL     1     -11.324  14.610  64.702  1.00  0.00    -0.387 OA 
HETATM   32  C   UNL     1      -8.430  14.441  67.109  1.00  0.00    -0.229 C  
HETATM   33  C   UNL     1      -8.225  16.681  65.981  1.00  0.00    -0.146 C  
ENDBRANCH   6  27
ENDBRANCH   4   5
ENDBRANCH   3   4
ENDBRANCH   2   3
TORSDOF 8
ENDMDL
MODEL       14
REMARK 921   NORMALIZED FREE ENERGY PREDICTED BY IDOCK:   -7.10 KCAL/MOL
REMARK 922        TOTAL FREE ENERGY PREDICTED BY IDOCK:  -10.95 KCAL/MOL
REMARK 923 INTER-LIGAND FREE ENERGY PREDICTED BY IDOCK:  -10.07 KCAL/MOL
REMARK 924 INTRA-LIGAND FREE ENERGY PREDICTED BY IDOCK:   -0.87 KCAL/MOL
REMARK 927      BINDING AFFINITY PREDICTED BY RF-SCORE:    0.00 PKD
ROOT
HETATM    1  C   UNL     1      -6.489  12.272  69.213  1.00  0.00    -0.109 C  
HETATM    2  C   UNL     1      -6.375  13.773  69.042  1.00  0.00    -0.100 C  
ENDROOT
BRANCH   2   3
HETATM    3  C   UNL     1      -7.690  14.415  68.591  1.00  0.00    -0.138 C  
BRANCH   3   4
HETATM    4  C   UNL     1      -7.468  15.130  67.258  1.00  0.00    -0.228 C  
BRANCH   4   5
HETATM    5  C   UNL     1      -7.275  16.626  67.379  1.00  0.00    -0.155 C  
HETATM    6  N   UNL     1      -8.216  17.471  66.792  1.00  0.00    -0.231 N  
HETATM    7  O   UNL     1      -6.294  17.081  67.973  1.00  0.00    -0.135 OA 
BRANCH   6   8
HETATM    8  C   UNL     1      -9.433  16.956  66.099  1.00  0.00    -0.245 C  
BRANCH   8   9
HETATM    9  C   UNL     1     -10.449  16.289  67.010  1.00  0.00    -0.306 A  
HETATM   10  C   UNL     1     -10.705  16.811  68.279  1.00  0.00    -0.364 A  
HETATM   11  C   UNL     1     -11.382  16.044  69.239  1.00  0.00    -0.356 A  
HETATM   12  C   UNL     1     -11.911  14.771  68.963  1.00  0.00    -0.337 A  
HETATM   13  C   UNL     1     -11.115  15.108  66.671  1.00  0.00    -0.308 A  
HETATM   14  C   UNL     1     -11.857  14.377  67.617  1.00  0.00    -0.412 A  
BRANCH  12  15
HETATM   15  C   UNL     1     -12.475  13.915  70.061  1.00  0.00    -0.325 A  
HETATM   16  C   UNL     1     -13.266  14.573  71.048  1.00  0.00    -0.414 A  
HETATM   17  C   UNL     1     -13.742  13.943  72.198  1.00  0.00    -0.619 A  
HETATM   18  C   UNL     1     -13.487  12.598  72.393  1.00  0.00    -0.450 A  
HETATM   19  C   UNL     1     -12.761  11.901  71.431  1.00  0.00    -0.395 A  
HETATM   20  C   UNL     1     -12.240  12.527  70.267  1.00  0.00    -0.345 A  
BRANCH  20  21
HETATM   21  C   UNL     1     -11.472  11.636  69.400  1.00  0.00    -0.307 A  
HETATM   22  N   UNL     1     -10.127  11.526  69.449  1.00  0.00    -0.408 NA 
HETATM   23  N   UNL     1      -9.906  10.679  68.438  1.00  0.00    -0.156 NA 
HETATM   24  H   UNL     1      -9.463  11.968  70.084  1.00  0.00     0.000 HD 
HETATM   25  N   UNL     1     -10.995  10.242  67.794  1.00  0.00    -0.297 NA 
HETATM   26  N   UNL     1     -12.002  10.879  68.379  1.00  0.00    -0.537 NA 
ENDBRANCH  20  21
ENDBRANCH  12  15
ENDBRANCH   8   9
ENDBRANCH   6   8
BRANCH   6  27
HETATM   27  C   UNL     1      -8.158  18.958  67.052  1.00  0.00    -0.261 C  
HETATM   28  C   UNL     1      -9.379  19.880  66.742  1.00  0.00    -0.384 C  
HETATM   29  O   UNL     1      -9.639  20.863  67.432  1.00  0.00    -0.433 OA 
HETATM   30  C   UNL     1      -6.803  19.608  66.631  1.00  0.00    -0.210 C  
HETATM   31  O   UNL     1     -10.096  19.640  65.631  1.00  0.00    -0.407 OA 
HETATM   32  C   UNL     1      -6.366  19.338  65.196  1.00  0.00    -0.313 C  
HETATM   33  C   UNL     1      -6.687  21.096  66.966  1.00  0.00    -0.388 C  
ENDBRANCH   6  27
ENDBRANCH   4   5
ENDBRANCH   3   4
ENDBRANCH   2   3
TORSDOF 8
ENDMDL
MODEL       15
REMARK 921   NORMALIZED FREE ENERGY PREDICTED BY IDOCK:   -7.06 KCAL/MOL
REMARK 922        TOTAL FREE ENERGY PREDICTED BY IDOCK:  -10.89 KCAL/MOL
REMARK 923 INTER-LIGAND FREE ENERGY PREDICTED BY IDOCK:   -9.41 KCAL/MOL
REMARK 924 INTRA-LIGAND FREE ENERGY PREDICTED BY IDOCK:   -1.48 KCAL/MOL
REMARK 927      BINDING AFFINITY PREDICTED BY RF-SCORE:    0.00 PKD
ROOT
HETATM    1  C   UNL     1      -7.477  13.816  67.686  1.00  0.00    -0.187 C  
HETATM    2  C   UNL     1      -7.487  12.324  67.422  1.00  0.00    -0.160 C  
ENDROOT
BRANCH   2   3
HETATM    3  C   UNL     1      -7.476  11.499  68.711  1.00  0.00    -0.119 C  
BRANCH   3   4
HETATM    4  C   UNL     1      -7.864  10.056  68.387  1.00  0.00    -0.089 C  
BRANCH   4   5
HETATM    5  C   UNL     1      -8.307   9.246  69.586  1.00  0.00    -0.140 C  
HETATM    6  N   UNL     1      -9.599   8.724  69.601  1.00  0.00    -0.169 N  
HETATM    7  O   UNL     1      -7.537   9.067  70.535  1.00  0.00    -0.082 OA 
BRANCH   6   8
HETATM    8  C   UNL     1     -10.542   8.889  68.456  1.00  0.00    -0.141 C  
BRANCH   8   9
HETATM    9  C   UNL     1     -10.956  10.323  68.174  1.00  0.00    -0.328 A  
HETATM   10  C   UNL     1     -10.980  10.803  66.865  1.00  0.00    -0.255 A  
HETATM   11  C   UNL     1     -11.043  12.183  66.615  1.00  0.00    -0.353 A  
HETATM   12  C   UNL     1     -11.174  13.138  67.639  1.00  0.00    -0.313 A  
HETATM   13  C   UNL     1     -11.259  11.240  69.185  1.00  0.00    -0.337 A  
HETATM   14  C   UNL     1     -11.397  12.615  68.922  1.00  0.00    -0.345 A  
BRANCH  12  15
HETATM   15  C   UNL     1     -11.065  14.607  67.343  1.00  0.00    -0.331 A  
HETATM   16  C   UNL     1     -10.615  14.969  66.040  1.00  0.00    -0.329 A  
HETATM   17  C   UNL     1     -10.333  16.282  65.661  1.00  0.00    -0.385 A  
HETATM   18  C   UNL     1     -10.536  17.310  66.563  1.00  0.00    -0.260 A  
HETATM   19  C   UNL     1     -11.022  17.010  67.833  1.00  0.00    -0.226 A  
HETATM   20  C   UNL     1     -11.289  15.679  68.252  1.00  0.00    -0.357 A  
BRANCH  20  21
HETATM   21  C   UNL     1     -11.755  15.566  69.632  1.00  0.00    -0.357 A  
HETATM   22  N   UNL     1     -13.058  15.598  69.983  1.00  0.00    -0.616 NA 
HETATM   23  N   UNL     1     -12.962  15.545  71.316  1.00  0.00    -0.477 NA 
HETATM   24  H   UNL     1     -13.888  15.648  69.393  1.00  0.00     0.000 HD 
HETATM   25  N   UNL     1     -11.720  15.456  71.809  1.00  0.00    -0.378 NA 
HETATM   26  N   UNL     1     -10.936  15.507  70.738  1.00  0.00    -0.340 NA 
ENDBRANCH  20  21
ENDBRANCH  12  15
ENDBRANCH   8   9
ENDBRANCH   6   8
BRANCH   6  27
HETATM   27  C   UNL     1     -10.009   7.759  70.688  1.00  0.00    -0.186 C  
HETATM   28  C   UNL     1     -10.704   6.404  70.343  1.00  0.00    -0.262 C  
HETATM   29  O   UNL     1     -10.511   5.389  71.012  1.00  0.00    -0.234 OA 
HETATM   30  C   UNL     1     -10.654   8.457  71.926  1.00  0.00    -0.370 C  
HETATM   31  O   UNL     1     -11.609   6.382  69.350  1.00  0.00    -0.382 OA 
HETATM   32  C   UNL     1     -11.824   9.384  71.618  1.00  0.00    -0.464 C  
HETATM   33  C   UNL     1     -10.996   7.509  73.077  1.00  0.00    -0.443 C  
ENDBRANCH   6  27
ENDBRANCH   4   5
ENDBRANCH   3   4
ENDBRANCH   2   3
TORSDOF 8
ENDMDL
MODEL       16
REMARK 921   NORMALIZED FREE ENERGY PREDICTED BY IDOCK:   -7.03 KCAL/MOL
REMARK 922        TOTAL FREE ENERGY PREDICTED BY IDOCK:  -10.85 KCAL/MOL
REMARK 923 INTER-LIGAND FREE ENERGY PREDICTED BY IDOCK:   -9.36 KCAL/MOL
REMARK 924 INTRA-LIGAND FREE ENERGY PREDICTED BY IDOCK:   -1.49 KCAL/MOL
REMARK 927      BINDING AFFINITY PREDICTED BY RF-SCORE:    0.00 PKD
ROOT
HETATM    1  C   UNL     1     -10.116  12.118  64.300  1.00  0.00    -0.317 C  
HETATM    2  C   UNL     1     -11.464  12.238  64.981  1.00  0.00    -0.386 C  
ENDROOT
BRANCH   2   3
HETATM    3  C   UNL     1     -12.163  13.564  64.673  1.00  0.00    -0.450 C  
BRANCH   3   4
HETATM    4  C   UNL     1     -12.072  14.475  65.898  1.00  0.00    -0.288 C  
BRANCH   4   5
HETATM    5  C   UNL     1     -11.032  15.568  65.786  1.00  0.00    -0.283 C  
HETATM    6  N   UNL     1     -10.482  16.091  66.955  1.00  0.00    -0.304 N  
HETATM    7  O   UNL     1     -10.693  15.994  64.677  1.00  0.00    -0.601 OA 
BRANCH   6   8
HETATM    8  C   UNL     1     -10.840  15.575  68.308  1.00  0.00    -0.292 C  
BRANCH   8   9
HETATM    9  C   UNL     1     -10.592  14.090  68.508  1.00  0.00    -0.260 A  
HETATM   10  C   UNL     1      -9.364  13.528  68.154  1.00  0.00    -0.213 A  
HETATM   11  C   UNL     1      -9.229  12.137  68.029  1.00  0.00    -0.194 A  
HETATM   12  C   UNL     1     -10.269  11.240  68.333  1.00  0.00    -0.205 A  
HETATM   13  C   UNL     1     -11.572  13.211  68.977  1.00  0.00    -0.360 A  
HETATM   14  C   UNL     1     -11.405  11.815  68.921  1.00  0.00    -0.326 A  
BRANCH  12  15
HETATM   15  C   UNL     1     -10.139   9.775  68.023  1.00  0.00    -0.204 A  
HETATM   16  C   UNL     1      -9.817   9.428  66.678  1.00  0.00    -0.309 A  
HETATM   17  C   UNL     1      -9.799   8.116  66.206  1.00  0.00    -0.193 A  
HETATM   18  C   UNL     1     -10.056   7.074  67.078  1.00  0.00    -0.298 A  
HETATM   19  C   UNL     1     -10.327   7.362  68.413  1.00  0.00    -0.224 A  
HETATM   20  C   UNL     1     -10.381   8.691  68.911  1.00  0.00    -0.228 A  
BRANCH  20  21
HETATM   21  C   UNL     1     -10.720   8.787  70.330  1.00  0.00    -0.227 A  
HETATM   22  N   UNL     1      -9.797   8.807  71.315  1.00  0.00    -0.239 NA 
HETATM   23  N   UNL     1     -10.584   8.819  72.397  1.00  0.00    -0.248 NA 
HETATM   24  H   UNL     1      -8.779   8.811  71.252  1.00  0.00     0.000 HD 
HETATM   25  N   UNL     1     -11.901   8.836  72.160  1.00  0.00    -0.369 NA 
HETATM   26  N   UNL     1     -12.000   8.778  70.838  1.00  0.00    -0.249 NA 
ENDBRANCH  20  21
ENDBRANCH  12  15
ENDBRANCH   8   9
ENDBRANCH   6   8
BRANCH   6  27
HETATM   27  C   UNL     1      -9.312  17.043  66.876  1.00  0.00    -0.251 C  
HETATM   28  C   UNL     1      -8.131  16.956  67.895  1.00  0.00    -0.188 C  
HETATM   29  O   UNL     1      -6.974  17.217  67.568  1.00  0.00    -0.143 OA 
HETATM   30  C   UNL     1      -9.731  18.517  66.580  1.00  0.00    -0.353 C  
HETATM   31  O   UNL     1      -8.413  16.686  69.180  1.00  0.00    -0.216 OA 
HETATM   32  C   UNL     1     -10.783  19.099  67.518  1.00  0.00    -0.555 C  
HETATM   33  C   UNL     1      -8.558  19.484  66.408  1.00  0.00    -0.384 C  
ENDBRANCH   6  27
ENDBRANCH   4   5
ENDBRANCH   3   4
ENDBRANCH   2   3
TORSDOF 8
ENDMDL
MODEL       17
REMARK 921   NORMALIZED FREE ENERGY PREDICTED BY IDOCK:   -7.03 KCAL/MOL
REMARK 922        TOTAL FREE ENERGY PREDICTED BY IDOCK:  -10.84 KCAL/MOL
REMARK 923 INTER-LIGAND FREE ENERGY PREDICTED BY IDOCK:  -10.43 KCAL/MOL
REMARK 924 INTRA-LIGAND FREE ENERGY PREDICTED BY IDOCK:   -0.41 KCAL/MOL
REMARK 927      BINDING AFFINITY PREDICTED BY RF-SCORE:    0.00 PKD
ROOT
HETATM    1  C   UNL     1     -10.924  11.410  63.635  1.00  0.00    -0.443 C  
HETATM    2  C   UNL     1     -12.302  12.039  63.574  1.00  0.00    -0.661 C  
ENDROOT
BRANCH   2   3
HETATM    3  C   UNL     1     -12.251  13.568  63.585  1.00  0.00    -0.438 C  
BRANCH   3   4
HETATM    4  C   UNL     1     -12.189  14.058  65.033  1.00  0.00    -0.448 C  
BRANCH   4   5
HETATM    5  C   UNL     1     -10.847  14.623  65.442  1.00  0.00    -0.356 C  
HETATM    6  N   UNL     1     -10.694  15.113  66.739  1.00  0.00    -0.307 N  
HETATM    7  O   UNL     1      -9.914  14.661  64.634  1.00  0.00    -0.174 OA 
BRANCH   6   8
HETATM    8  C   UNL     1     -11.787  15.049  67.752  1.00  0.00    -0.204 C  
BRANCH   8   9
HETATM    9  C   UNL     1     -11.940  13.701  68.438  1.00  0.00    -0.391 A  
HETATM   10  C   UNL     1     -12.276  13.635  69.790  1.00  0.00    -0.350 A  
HETATM   11  C   UNL     1     -12.107  12.440  70.507  1.00  0.00    -0.363 A  
HETATM   12  C   UNL     1     -11.687  11.242  69.901  1.00  0.00    -0.430 A  
HETATM   13  C   UNL     1     -11.691  12.487  67.792  1.00  0.00    -0.419 A  
HETATM   14  C   UNL     1     -11.596  11.275  68.502  1.00  0.00    -0.384 A  
BRANCH  12  15
HETATM   15  C   UNL     1     -11.355  10.033  70.731  1.00  0.00    -0.439 A  
HETATM   16  C   UNL     1     -12.360   9.577  71.633  1.00  0.00    -0.480 A  
HETATM   17  C   UNL     1     -12.153   8.558  72.564  1.00  0.00    -0.395 A  
HETATM   18  C   UNL     1     -10.934   7.908  72.602  1.00  0.00    -0.440 A  
HETATM   19  C   UNL     1      -9.937   8.286  71.705  1.00  0.00    -0.284 A  
HETATM   20  C   UNL     1     -10.114   9.340  70.769  1.00  0.00    -0.358 A  
BRANCH  20  21
HETATM   21  C   UNL     1      -8.939   9.612  69.944  1.00  0.00    -0.221 A  
HETATM   22  N   UNL     1      -7.941  10.441  70.319  1.00  0.00    -0.404 NA 
HETATM   23  N   UNL     1      -7.171  10.420  69.225  1.00  0.00    -0.087 NA 
HETATM   24  H   UNL     1      -7.811  10.944  71.196  1.00  0.00     0.000 HD 
HETATM   25  N   UNL     1      -7.595   9.633  68.228  1.00  0.00    -0.078 NA 
HETATM   26  N   UNL     1      -8.748   9.139  68.665  1.00  0.00    -0.128 NA 
ENDBRANCH  20  21
ENDBRANCH  12  15
ENDBRANCH   8   9
ENDBRANCH   6   8
BRANCH   6  27
HETATM   27  C   UNL     1      -9.324  15.507  67.238  1.00  0.00    -0.212 C  
HETATM   28  C   UNL     1      -9.012  15.579  68.766  1.00  0.00    -0.204 C  
HETATM   29  O   UNL     1      -7.904  15.289  69.214  1.00  0.00    -0.189 OA 
HETATM   30  C   UNL     1      -8.698  16.699  66.449  1.00  0.00    -0.345 C  
HETATM   31  O   UNL     1      -9.955  16.066  69.590  1.00  0.00    -0.263 OA 
HETATM   32  C   UNL     1      -9.568  17.947  66.348  1.00  0.00    -0.294 C  
HETATM   33  C   UNL     1      -7.274  17.060  66.878  1.00  0.00    -0.244 C  
ENDBRANCH   6  27
ENDBRANCH   4   5
ENDBRANCH   3   4
ENDBRANCH   2   3
TORSDOF 8
ENDMDL
MODEL       18
REMARK 921   NORMALIZED FREE ENERGY PREDICTED BY IDOCK:   -6.97 KCAL/MOL
REMARK 922        TOTAL FREE ENERGY PREDICTED BY IDOCK:  -10.76 KCAL/MOL
REMARK 923 INTER-LIGAND FREE ENERGY PREDICTED BY IDOCK:   -9.80 KCAL/MOL
REMARK 924 INTRA-LIGAND FREE ENERGY PREDICTED BY IDOCK:   -0.96 KCAL/MOL
REMARK 927      BINDING AFFINITY PREDICTED BY RF-SCORE:    0.00 PKD
ROOT
HETATM    1  C   UNL     1     -12.048  13.460  69.862  1.00  0.00    -0.389 C  
HETATM    2  C   UNL     1     -12.886  13.606  71.116  1.00  0.00    -0.399 C  
ENDROOT
BRANCH   2   3
HETATM    3  C   UNL     1     -13.125  12.269  71.822  1.00  0.00    -0.449 C  
BRANCH   3   4
HETATM    4  C   UNL     1     -12.392  11.162  71.064  1.00  0.00    -0.487 C  
BRANCH   4   5
HETATM    5  C   UNL     1     -12.482   9.798  71.713  1.00  0.00    -0.398 C  
HETATM    6  N   UNL     1     -11.339   9.001  71.758  1.00  0.00    -0.357 N  
HETATM    7  O   UNL     1     -13.555   9.399  72.177  1.00  0.00    -0.425 OA 
BRANCH   6   8
HETATM    8  C   UNL     1     -10.019   9.466  71.240  1.00  0.00    -0.204 C  
BRANCH   8   9
HETATM    9  C   UNL     1     -10.000   9.805  69.759  1.00  0.00    -0.265 A  
HETATM   10  C   UNL     1      -9.304  10.924  69.303  1.00  0.00    -0.027 A  
HETATM   11  C   UNL     1      -9.536  11.429  68.014  1.00  0.00    -0.181 A  
HETATM   12  C   UNL     1     -10.394  10.801  67.093  1.00  0.00    -0.269 A  
HETATM   13  C   UNL     1     -10.717   9.079  68.804  1.00  0.00    -0.140 A  
HETATM   14  C   UNL     1     -10.887   9.549  67.489  1.00  0.00    -0.239 A  
BRANCH  12  15
HETATM   15  C   UNL     1     -10.746  11.464  65.791  1.00  0.00    -0.309 A  
HETATM   16  C   UNL     1     -11.905  12.296  65.785  1.00  0.00    -0.417 A  
HETATM   17  C   UNL     1     -12.436  12.866  64.628  1.00  0.00    -0.499 A  
HETATM   18  C   UNL     1     -11.799  12.669  63.417  1.00  0.00    -0.594 A  
HETATM   19  C   UNL     1     -10.635  11.904  63.381  1.00  0.00    -0.485 A  
HETATM   20  C   UNL     1     -10.092  11.289  64.541  1.00  0.00    -0.348 A  
BRANCH  20  21
HETATM   21  C   UNL     1      -8.890  10.495  64.291  1.00  0.00    -0.197 A  
HETATM   22  N   UNL     1      -7.665  10.837  64.744  1.00  0.00    -0.351 NA 
HETATM   23  N   UNL     1      -6.917   9.871  64.201  1.00  0.00    -0.125 NA 
HETATM   24  H   UNL     1      -7.387  11.618  65.338  1.00  0.00     0.000 HD 
HETATM   25  N   UNL     1      -7.578   8.956  63.480  1.00  0.00    -0.113 NA 
HETATM   26  N   UNL     1      -8.839   9.369  63.501  1.00  0.00    -0.208 NA 
ENDBRANCH  20  21
ENDBRANCH  12  15
ENDBRANCH   8   9
ENDBRANCH   6   8
BRANCH   6  27
HETATM   27  C   UNL     1     -11.344   7.722  72.560  1.00  0.00    -0.374 C  
HETATM   28  C   UNL     1     -10.141   7.341  73.478  1.00  0.00    -0.340 C  
HETATM   29  O   UNL     1     -10.301   6.732  74.535  1.00  0.00    -0.283 OA 
HETATM   30  C   UNL     1     -11.896   6.496  71.767  1.00  0.00    -0.384 C  
HETATM   31  O   UNL     1      -8.896   7.601  73.044  1.00  0.00    -0.138 OA 
HETATM   32  C   UNL     1     -11.230   6.236  70.420  1.00  0.00    -0.439 C  
HETATM   33  C   UNL     1     -11.993   5.207  72.586  1.00  0.00     0.033 C  
ENDBRANCH   6  27
ENDBRANCH   4   5
ENDBRANCH   3   4
ENDBRANCH   2   3
TORSDOF 8
ENDMDL
MODEL       19
REMARK 921   NORMALIZED FREE ENERGY PREDICTED BY IDOCK:   -6.97 KCAL/MOL
REMARK 922        TOTAL FREE ENERGY PREDICTED BY IDOCK:  -10.76 KCAL/MOL
REMARK 923 INTER-LIGAND FREE ENERGY PREDICTED BY IDOCK:   -9.25 KCAL/MOL
REMARK 924 INTRA-LIGAND FREE ENERGY PREDICTED BY IDOCK:   -1.51 KCAL/MOL
REMARK 927      BINDING AFFINITY PREDICTED BY RF-SCORE:    0.00 PKD
ROOT
HETATM    1  C   UNL     1     -13.368  15.752  73.149  1.00  0.00    -0.685 C  
HETATM    2  C   UNL     1     -13.742  14.554  72.301  1.00  0.00    -0.559 C  
ENDROOT
BRANCH   2   3
HETATM    3  C   UNL     1     -12.584  14.068  71.426  1.00  0.00    -0.451 C  
BRANCH   3   4
HETATM    4  C   UNL     1     -12.767  14.605  70.007  1.00  0.00    -0.197 C  
BRANCH   4   5
HETATM    5  C   UNL     1     -11.537  15.272  69.430  1.00  0.00    -0.330 C  
HETATM    6  N   UNL     1     -11.247  15.087  68.079  1.00  0.00    -0.303 N  
HETATM    7  O   UNL     1     -10.802  15.953  70.151  1.00  0.00    -0.309 OA 
BRANCH   6   8
HETATM    8  C   UNL     1     -12.133  14.302  67.170  1.00  0.00    -0.377 C  
BRANCH   8   9
HETATM    9  C   UNL     1     -11.745  12.842  67.009  1.00  0.00    -0.447 A  
HETATM   10  C   UNL     1     -11.722  11.994  68.117  1.00  0.00    -0.398 A  
HETATM   11  C   UNL     1     -11.069  10.754  68.049  1.00  0.00    -0.359 A  
HETATM   12  C   UNL     1     -10.491  10.261  66.866  1.00  0.00    -0.291 A  
HETATM   13  C   UNL     1     -11.330  12.295  65.791  1.00  0.00    -0.400 A  
HETATM   14  C   UNL     1     -10.743  11.019  65.713  1.00  0.00    -0.216 A  
BRANCH  12  15
HETATM   15  C   UNL     1      -9.655   9.012  66.878  1.00  0.00    -0.242 A  
HETATM   16  C   UNL     1     -10.355   7.770  66.890  1.00  0.00    -0.396 A  
HETATM   17  C   UNL     1      -9.726   6.534  67.040  1.00  0.00    -0.188 A  
HETATM   18  C   UNL     1      -8.348   6.478  67.137  1.00  0.00    -0.113 A  
HETATM   19  C   UNL     1      -7.617   7.663  67.079  1.00  0.00    -0.103 A  
HETATM   20  C   UNL     1      -8.237   8.935  66.958  1.00  0.00    -0.106 A  
BRANCH  20  21
HETATM   21  C   UNL     1      -7.303  10.059  66.956  1.00  0.00    -0.091 A  
HETATM   22  N   UNL     1      -7.019  10.789  65.856  1.00  0.00    -0.262 NA 
HETATM   23  N   UNL     1      -6.082  11.615  66.336  1.00  0.00    -0.117 NA 
HETATM   24  H   UNL     1      -7.411  10.728  64.917  1.00  0.00     0.000 HD 
HETATM   25  N   UNL     1      -5.789  11.472  67.635  1.00  0.00    -0.049 NA 
HETATM   26  N   UNL     1      -6.540  10.452  68.033  1.00  0.00    -0.060 NA 
ENDBRANCH  20  21
ENDBRANCH  12  15
ENDBRANCH   8   9
ENDBRANCH   6   8
BRANCH   6  27
HETATM   27  C   UNL     1     -10.141  15.886  67.430  1.00  0.00    -0.252 C  
HETATM   28  C   UNL     1     -10.297  16.451  65.983  1.00  0.00    -0.352 C  
HETATM   29  O   UNL     1      -9.795  17.523  65.650  1.00  0.00    -0.543 OA 
HETATM   30  C   UNL     1      -8.719  15.296  67.686  1.00  0.00    -0.179 C  
HETATM   31  O   UNL     1     -10.910  15.690  65.061  1.00  0.00    -0.412 OA 
HETATM   32  C   UNL     1      -8.547  13.824  67.326  1.00  0.00    -0.221 C  
HETATM   33  C   UNL     1      -7.576  16.136  67.114  1.00  0.00    -0.237 C  
ENDBRANCH   6  27
ENDBRANCH   4   5
ENDBRANCH   3   4
ENDBRANCH   2   3
TORSDOF 8
ENDMDL
MODEL       20
REMARK 921   NORMALIZED FREE ENERGY PREDICTED BY IDOCK:   -6.96 KCAL/MOL
REMARK 922        TOTAL FREE ENERGY PREDICTED BY IDOCK:  -10.74 KCAL/MOL
REMARK 923 INTER-LIGAND FREE ENERGY PREDICTED BY IDOCK:   -9.49 KCAL/MOL
REMARK 924 INTRA-LIGAND FREE ENERGY PREDICTED BY IDOCK:   -1.25 KCAL/MOL
REMARK 927      BINDING AFFINITY PREDICTED BY RF-SCORE:    0.00 PKD
ROOT
HETATM    1  C   UNL     1     -12.141  11.802  70.385  1.00  0.00    -0.440 C  
HETATM    2  C   UNL     1     -12.960  11.050  71.415  1.00  0.00    -0.517 C  
ENDROOT
BRANCH   2   3
HETATM    3  C   UNL     1     -12.907   9.534  71.216  1.00  0.00    -0.414 C  
BRANCH   3   4
HETATM    4  C   UNL     1     -11.814   8.948  72.110  1.00  0.00    -0.417 C  
BRANCH   4   5
HETATM    5  C   UNL     1     -11.273   7.615  71.640  1.00  0.00    -0.247 C  
HETATM    6  N   UNL     1     -10.058   7.589  70.957  1.00  0.00    -0.187 N  
HETATM    7  O   UNL     1     -11.909   6.577  71.848  1.00  0.00    -0.309 OA 
BRANCH   6   8
HETATM    8  C   UNL     1      -9.246   8.818  70.721  1.00  0.00    -0.198 C  
BRANCH   8   9
HETATM    9  C   UNL     1      -9.500   9.502  69.388  1.00  0.00    -0.182 A  
HETATM   10  C   UNL     1      -8.761  10.627  69.023  1.00  0.00    -0.152 A  
HETATM   11  C   UNL     1      -9.191  11.448  67.969  1.00  0.00    -0.171 A  
HETATM   12  C   UNL     1     -10.312  11.146  67.176  1.00  0.00    -0.249 A  
HETATM   13  C   UNL     1     -10.507   9.099  68.506  1.00  0.00    -0.238 A  
HETATM   14  C   UNL     1     -10.887   9.887  67.404  1.00  0.00    -0.293 A  
BRANCH  12  15
HETATM   15  C   UNL     1     -10.837  12.134  66.173  1.00  0.00    -0.317 A  
HETATM   16  C   UNL     1     -11.692  13.161  66.669  1.00  0.00    -0.427 A  
HETATM   17  C   UNL     1     -12.365  14.065  65.846  1.00  0.00    -0.515 A  
HETATM   18  C   UNL     1     -12.174  14.014  64.478  1.00  0.00    -0.463 A  
HETATM   19  C   UNL     1     -11.308  13.059  63.951  1.00  0.00    -0.460 A  
HETATM   20  C   UNL     1     -10.635  12.109  64.765  1.00  0.00    -0.335 A  
BRANCH  20  21
HETATM   21  C   UNL     1      -9.803  11.165  64.022  1.00  0.00    -0.302 A  
HETATM   22  N   UNL     1     -10.166  10.621  62.841  1.00  0.00    -0.723 NA 
HETATM   23  N   UNL     1      -9.141   9.791  62.619  1.00  0.00    -0.275 NA 
HETATM   24  H   UNL     1     -10.996  10.795  62.274  1.00  0.00     0.000 HD 
HETATM   25  N   UNL     1      -8.173   9.799  63.544  1.00  0.00    -0.144 NA 
HETATM   26  N   UNL     1      -8.605  10.650  64.467  1.00  0.00    -0.150 NA 
ENDBRANCH  20  21
ENDBRANCH  12  15
ENDBRANCH   8   9
ENDBRANCH   6   8
BRANCH   6  27
HETATM   27  C   UNL     1      -9.400   6.266  70.642  1.00  0.00    -0.162 C  
HETATM   28  C   UNL     1      -7.870   6.178  70.344  1.00  0.00    -0.106 C  
HETATM   29  O   UNL     1      -7.202   5.200  70.677  1.00  0.00    -0.063 OA 
HETATM   30  C   UNL     1     -10.243   5.368  69.683  1.00  0.00    -0.345 C  
HETATM   31  O   UNL     1      -7.301   7.154  69.617  1.00  0.00    -0.080 OA 
HETATM   32  C   UNL     1     -10.678   6.029  68.381  1.00  0.00    -0.351 C  
HETATM   33  C   UNL     1      -9.638   3.987  69.420  1.00  0.00    -0.257 C  
ENDBRANCH   6  27
ENDBRANCH   4   5
ENDBRANCH   3   4
ENDBRANCH   2   3
TORSDOF 8
ENDMDL
MODEL       21
REMARK 921   NORMALIZED FREE ENERGY PREDICTED BY IDOCK:   -6.96 KCAL/MOL
REMARK 922        TOTAL FREE ENERGY PREDICTED BY IDOCK:  -10.73 KCAL/MOL
REMARK 923 INTER-LIGAND FREE ENERGY PREDICTED BY IDOCK:   -9.60 KCAL/MOL
REMARK 924 INTRA-LIGAND FREE ENERGY PREDICTED BY IDOCK:   -1.14 KCAL/MOL
REMARK 927      BINDING AFFINITY PREDICTED BY RF-SCORE:    0.00 PKD
ROOT
HETATM    1  C   UNL     1     -12.421  12.333  63.946  1.00  0.00    -0.586 C  
HETATM    2  C   UNL     1     -11.056  12.951  63.720  1.00  0.00    -0.424 C  
ENDROOT
BRANCH   2   3
HETATM    3  C   UNL     1      -9.952  11.901  63.573  1.00  0.00    -0.422 C  
BRANCH   3   4
HETATM    4  C   UNL     1     -10.396  10.607  64.254  1.00  0.00    -0.325 C  
BRANCH   4   5
HETATM    5  C   UNL     1      -9.261   9.773  64.809  1.00  0.00    -0.261 C  
HETATM    6  N   UNL     1      -9.447   9.110  66.021  1.00  0.00    -0.236 N  
HETATM    7  O   UNL     1      -8.188   9.700  64.202  1.00  0.00    -0.136 OA 
BRANCH   6   8
HETATM    8  C   UNL     1     -10.742   9.146  66.762  1.00  0.00    -0.038 C  
BRANCH   8   9
HETATM    9  C   UNL     1     -10.868  10.280  67.766  1.00  0.00    -0.346 A  
HETATM   10  C   UNL     1     -10.915  10.006  69.133  1.00  0.00    -0.256 A  
HETATM   11  C   UNL     1     -11.348  10.986  70.040  1.00  0.00    -0.358 A  
HETATM   12  C   UNL     1     -11.666  12.299  69.648  1.00  0.00    -0.386 A  
HETATM   13  C   UNL     1     -11.012  11.618  67.388  1.00  0.00    -0.313 A  
HETATM   14  C   UNL     1     -11.373  12.615  68.313  1.00  0.00    -0.337 A  
BRANCH  12  15
HETATM   15  C   UNL     1     -12.287  13.264  70.618  1.00  0.00    -0.416 A  
HETATM   16  C   UNL     1     -13.238  12.731  71.536  1.00  0.00    -0.330 A  
HETATM   17  C   UNL     1     -13.998  13.519  72.401  1.00  0.00    -0.638 A  
HETATM   18  C   UNL     1     -13.805  14.888  72.422  1.00  0.00    -0.587 A  
HETATM   19  C   UNL     1     -12.850  15.450  71.578  1.00  0.00    -0.499 A  
HETATM   20  C   UNL     1     -12.086  14.671  70.667  1.00  0.00    -0.385 A  
BRANCH  20  21
HETATM   21  C   UNL     1     -11.166  15.449  69.839  1.00  0.00    -0.299 A  
HETATM   22  N   UNL     1      -9.828  15.463  70.025  1.00  0.00    -0.445 NA 
HETATM   23  N   UNL     1      -9.455  16.356  69.102  1.00  0.00    -0.257 NA 
HETATM   24  H   UNL     1      -9.259  14.937  70.687  1.00  0.00     0.000 HD 
HETATM   25  N   UNL     1     -10.441  16.867  68.352  1.00  0.00    -0.334 NA 
HETATM   26  N   UNL     1     -11.546  16.319  68.842  1.00  0.00    -0.296 NA 
ENDBRANCH  20  21
ENDBRANCH  12  15
ENDBRANCH   8   9
ENDBRANCH   6   8
BRANCH   6  27
HETATM   27  C   UNL     1      -8.411   8.125  66.506  1.00  0.00    -0.130 C  
HETATM   28  C   UNL     1      -8.827   6.829  67.272  1.00  0.00    -0.118 C  
HETATM   29  O   UNL     1      -8.201   5.777  67.152  1.00  0.00    -0.102 OA 
HETATM   30  C   UNL     1      -7.155   8.805  67.133  1.00  0.00    -0.075 C  
HETATM   31  O   UNL     1      -9.835   6.904  68.158  1.00  0.00    -0.133 OA 
HETATM   32  C   UNL     1      -7.440   9.812  68.241  1.00  0.00    -0.080 C  
HETATM   33  C   UNL     1      -6.053   7.830  67.552  1.00  0.00    -0.049 C  
ENDBRANCH   6  27
ENDBRANCH   4   5
ENDBRANCH   3   4
ENDBRANCH   2   3
TORSDOF 8
ENDMDL
MODEL       22
REMARK 921   NORMALIZED FREE ENERGY PREDICTED BY IDOCK:   -6.93 KCAL/MOL
REMARK 922        TOTAL FREE ENERGY PREDICTED BY IDOCK:  -10.70 KCAL/MOL
REMARK 923 INTER-LIGAND FREE ENERGY PREDICTED BY IDOCK:   -9.92 KCAL/MOL
REMARK 924 INTRA-LIGAND FREE ENERGY PREDICTED BY IDOCK:   -0.78 KCAL/MOL
REMARK 927      BINDING AFFINITY PREDICTED BY RF-SCORE:    0.00 PKD
ROOT
HETATM    1  C   UNL     1     -14.396  14.175  72.258  1.00  0.00    -0.533 C  
HETATM    2  C   UNL     1     -13.208  14.798  72.963  1.00  0.00    -0.592 C  
ENDROOT
BRANCH   2   3
HETATM    3  C   UNL     1     -12.069  15.145  72.001  1.00  0.00    -0.453 C  
BRANCH   3   4
HETATM    4  C   UNL     1     -12.595  15.107  70.566  1.00  0.00    -0.429 C  
BRANCH   4   5
HETATM    5  C   UNL     1     -11.567  15.470  69.516  1.00  0.00    -0.350 C  
HETATM    6  N   UNL     1     -11.294  14.553  68.502  1.00  0.00    -0.271 N  
HETATM    7  O   UNL     1     -10.976  16.552  69.571  1.00  0.00    -0.318 OA 
BRANCH   6   8
HETATM    8  C   UNL     1     -12.016  13.253  68.383  1.00  0.00    -0.301 C  
BRANCH   8   9
HETATM    9  C   UNL     1     -11.511  12.158  69.307  1.00  0.00    -0.363 A  
HETATM   10  C   UNL     1     -10.409  11.383  68.943  1.00  0.00    -0.203 A  
HETATM   11  C   UNL     1     -10.132  10.183  69.615  1.00  0.00    -0.265 A  
HETATM   12  C   UNL     1     -10.873   9.742  70.726  1.00  0.00    -0.403 A  
HETATM   13  C   UNL     1     -12.144  11.825  70.508  1.00  0.00    -0.439 A  
HETATM   14  C   UNL     1     -11.813  10.658  71.222  1.00  0.00    -0.257 A  
BRANCH  12  15
HETATM   15  C   UNL     1     -10.653   8.374  71.307  1.00  0.00    -0.279 A  
HETATM   16  C   UNL     1     -10.638   8.274  72.729  1.00  0.00    -0.321 A  
HETATM   17  C   UNL     1     -10.310   7.103  73.414  1.00  0.00    -0.391 A  
HETATM   18  C   UNL     1     -10.027   5.953  72.701  1.00  0.00    -0.195 A  
HETATM   19  C   UNL     1     -10.079   5.990  71.310  1.00  0.00    -0.237 A  
HETATM   20  C   UNL     1     -10.380   7.176  70.589  1.00  0.00    -0.217 A  
BRANCH  20  21
HETATM   21  C   UNL     1     -10.345   7.021  69.136  1.00  0.00    -0.201 A  
HETATM   22  N   UNL     1     -11.438   6.750  68.390  1.00  0.00    -0.524 NA 
HETATM   23  N   UNL     1     -10.890   6.626  67.177  1.00  0.00    -0.364 NA 
HETATM   24  H   UNL     1     -12.413   6.663  68.675  1.00  0.00     0.000 HD 
HETATM   25  N   UNL     1      -9.567   6.823  67.111  1.00  0.00    -0.138 NA 
HETATM   26  N   UNL     1      -9.203   7.041  68.368  1.00  0.00    -0.130 NA 
ENDBRANCH  20  21
ENDBRANCH  12  15
ENDBRANCH   8   9
ENDBRANCH   6   8
BRANCH   6  27
HETATM   27  C   UNL     1     -10.419  14.956  67.339  1.00  0.00    -0.255 C  
HETATM   28  C   UNL     1     -10.596  14.302  65.932  1.00  0.00    -0.302 C  
HETATM   29  O   UNL     1     -10.406  14.936  64.895  1.00  0.00    -0.400 OA 
HETATM   30  C   UNL     1      -8.917  15.132  67.725  1.00  0.00    -0.178 C  
HETATM   31  O   UNL     1     -10.864  12.987  65.866  1.00  0.00    -0.270 OA 
HETATM   32  C   UNL     1      -8.281  13.944  68.437  1.00  0.00    -0.153 C  
HETATM   33  C   UNL     1      -8.026  15.626  66.583  1.00  0.00    -0.185 C  
ENDBRANCH   6  27
ENDBRANCH   4   5
ENDBRANCH   3   4
ENDBRANCH   2   3
TORSDOF 8
ENDMDL
MODEL       23
REMARK 921   NORMALIZED FREE ENERGY PREDICTED BY IDOCK:   -6.91 KCAL/MOL
REMARK 922        TOTAL FREE ENERGY PREDICTED BY IDOCK:  -10.67 KCAL/MOL
REMARK 923 INTER-LIGAND FREE ENERGY PREDICTED BY IDOCK:   -9.29 KCAL/MOL
REMARK 924 INTRA-LIGAND FREE ENERGY PREDICTED BY IDOCK:   -1.38 KCAL/MOL
REMARK 927      BINDING AFFINITY PREDICTED BY RF-SCORE:    0.00 PKD
ROOT
HETATM    1  C   UNL     1      -7.377   9.949  64.844  1.00  0.00    -0.136 C  
HETATM    2  C   UNL     1      -8.716  10.656  64.791  1.00  0.00    -0.170 C  
ENDROOT
BRANCH   2   3
HETATM    3  C   UNL     1      -9.850   9.816  65.383  1.00  0.00    -0.365 C  
BRANCH   3   4
HETATM    4  C   UNL     1      -9.253   8.715  66.261  1.00  0.00    -0.257 C  
BRANCH   4   5
HETATM    5  C   UNL     1     -10.157   8.255  67.383  1.00  0.00    -0.233 C  
HETATM    6  N   UNL     1      -9.915   8.723  68.673  1.00  0.00    -0.177 N  
HETATM    7  O   UNL     1     -11.080   7.466  67.155  1.00  0.00    -0.263 OA 
BRANCH   6   8
HETATM    8  C   UNL     1      -8.834   9.705  68.979  1.00  0.00    -0.147 C  
BRANCH   8   9
HETATM    9  C   UNL     1      -9.125  11.129  68.537  1.00  0.00    -0.175 A  
HETATM   10  C   UNL     1     -10.440  11.592  68.478  1.00  0.00    -0.236 A  
HETATM   11  C   UNL     1     -10.748  12.770  67.779  1.00  0.00    -0.237 A  
HETATM   12  C   UNL     1      -9.766  13.583  67.187  1.00  0.00    -0.244 A  
HETATM   13  C   UNL     1      -8.129  12.011  68.107  1.00  0.00    -0.160 A  
HETATM   14  C   UNL     1      -8.439  13.228  67.473  1.00  0.00    -0.202 A  
BRANCH  12  15
HETATM   15  C   UNL     1     -10.150  14.738  66.305  1.00  0.00    -0.299 A  
HETATM   16  C   UNL     1      -9.642  16.021  66.668  1.00  0.00    -0.258 A  
HETATM   17  C   UNL     1     -10.019  17.204  66.032  1.00  0.00    -0.270 A  
HETATM   18  C   UNL     1     -10.893  17.155  64.962  1.00  0.00     0.063 A  
HETATM   19  C   UNL     1     -11.376  15.919  64.540  1.00  0.00    -0.316 A  
HETATM   20  C   UNL     1     -11.031  14.703  65.189  1.00  0.00    -0.395 A  
BRANCH  20  21
HETATM   21  C   UNL     1     -11.672  13.518  64.624  1.00  0.00    -0.381 A  
HETATM   22  N   UNL     1     -11.186  12.846  63.558  1.00  0.00    -0.594 NA 
HETATM   23  N   UNL     1     -12.141  11.925  63.384  1.00  0.00    -0.492 NA 
HETATM   24  H   UNL     1     -10.328  13.000  63.030  1.00  0.00     0.000 HD 
HETATM   25  N   UNL     1     -13.150  11.958  64.264  1.00  0.00    -0.544 NA 
HETATM   26  N   UNL     1     -12.877  12.999  65.040  1.00  0.00    -0.753 NA 
ENDBRANCH  20  21
ENDBRANCH  12  15
ENDBRANCH   8   9
ENDBRANCH   6   8
BRANCH   6  27
HETATM   27  C   UNL     1     -10.906   8.436  69.777  1.00  0.00    -0.183 C  
HETATM   28  C   UNL     1     -10.837   9.194  71.140  1.00  0.00    -0.311 C  
HETATM   29  O   UNL     1     -11.851   9.473  71.777  1.00  0.00    -0.377 OA 
HETATM   30  C   UNL     1     -11.206   6.916  69.959  1.00  0.00    -0.347 C  
HETATM   31  O   UNL     1      -9.629   9.453  71.669  1.00  0.00    -0.260 OA 
HETATM   32  C   UNL     1      -9.983   6.025  70.145  1.00  0.00    -0.228 C  
HETATM   33  C   UNL     1     -12.273   6.605  71.011  1.00  0.00    -0.344 C  
ENDBRANCH   6  27
ENDBRANCH   4   5
ENDBRANCH   3   4
ENDBRANCH   2   3
TORSDOF 8
ENDMDL
MODEL       24
REMARK 921   NORMALIZED FREE ENERGY PREDICTED BY IDOCK:   -6.86 KCAL/MOL
REMARK 922        TOTAL FREE ENERGY PREDICTED BY IDOCK:  -10.60 KCAL/MOL
REMARK 923 INTER-LIGAND FREE ENERGY PREDICTED BY IDOCK:   -9.03 KCAL/MOL
REMARK 924 INTRA-LIGAND FREE ENERGY PREDICTED BY IDOCK:   -1.57 KCAL/MOL
REMARK 927      BINDING AFFINITY PREDICTED BY RF-SCORE:    0.00 PKD
ROOT
HETATM    1  C   UNL     1      -7.509   8.907  65.890  1.00  0.00    -0.093 C  
HETATM    2  C   UNL     1      -8.993   8.908  65.585  1.00  0.00    -0.249 C  
ENDROOT
BRANCH   2   3
HETATM    3  C   UNL     1      -9.749   7.806  66.332  1.00  0.00    -0.219 C  
BRANCH   3   4
HETATM    4  C   UNL     1      -9.022   7.498  67.641  1.00  0.00    -0.127 C  
BRANCH   4   5
HETATM    5  C   UNL     1      -9.891   6.855  68.700  1.00  0.00    -0.145 C  
HETATM    6  N   UNL     1     -10.036   7.498  69.928  1.00  0.00    -0.190 N  
HETATM    7  O   UNL     1     -10.445   5.774  68.478  1.00  0.00    -0.197 OA 
BRANCH   6   8
HETATM    8  C   UNL     1      -9.412   8.822  70.216  1.00  0.00    -0.174 C  
BRANCH   8   9
HETATM    9  C   UNL     1      -9.920   9.966  69.354  1.00  0.00    -0.227 A  
HETATM   10  C   UNL     1     -11.284  10.093  69.087  1.00  0.00    -0.234 A  
HETATM   11  C   UNL     1     -11.731  10.930  68.054  1.00  0.00    -0.205 A  
HETATM   12  C   UNL     1     -10.863  11.741  67.301  1.00  0.00    -0.300 A  
HETATM   13  C   UNL     1      -9.071  10.889  68.737  1.00  0.00    -0.174 A  
HETATM   14  C   UNL     1      -9.535  11.781  67.753  1.00  0.00    -0.181 A  
BRANCH  12  15
HETATM   15  C   UNL     1     -11.357  12.489  66.095  1.00  0.00    -0.388 A  
HETATM   16  C   UNL     1     -11.529  11.736  64.897  1.00  0.00    -0.269 A  
HETATM   17  C   UNL     1     -11.847  12.312  63.666  1.00  0.00    -0.610 A  
HETATM   18  C   UNL     1     -12.058  13.676  63.586  1.00  0.00    -0.397 A  
HETATM   19  C   UNL     1     -11.950  14.446  64.741  1.00  0.00    -0.455 A  
HETATM   20  C   UNL     1     -11.598  13.888  65.999  1.00  0.00    -0.359 A  
BRANCH  20  21
HETATM   21  C   UNL     1     -11.497  14.865  67.082  1.00  0.00    -0.335 A  
HETATM   22  N   UNL     1     -12.205  14.781  68.228  1.00  0.00    -0.591 NA 
HETATM   23  N   UNL     1     -11.835  15.914  68.836  1.00  0.00    -0.377 NA 
HETATM   24  H   UNL     1     -12.846  14.054  68.544  1.00  0.00     0.000 HD 
HETATM   25  N   UNL     1     -10.945  16.666  68.176  1.00  0.00    -0.351 NA 
HETATM   26  N   UNL     1     -10.750  16.021  67.033  1.00  0.00    -0.308 NA 
ENDBRANCH  20  21
ENDBRANCH  12  15
ENDBRANCH   8   9
ENDBRANCH   6   8
BRANCH   6  27
HETATM   27  C   UNL     1     -11.040   6.985  70.932  1.00  0.00    -0.267 C  
HETATM   28  C   UNL     1     -11.936   7.967  71.752  1.00  0.00    -0.298 C  
HETATM   29  O   UNL     1     -13.087   7.678  72.073  1.00  0.00    -0.273 OA 
HETATM   30  C   UNL     1     -10.498   5.809  71.804  1.00  0.00    -0.281 C  
HETATM   31  O   UNL     1     -11.390   9.111  72.197  1.00  0.00    -0.330 OA 
HETATM   32  C   UNL     1      -9.177   6.078  72.515  1.00  0.00    -0.141 C  
HETATM   33  C   UNL     1     -11.526   5.214  72.769  1.00  0.00    -0.284 C  
ENDBRANCH   6  27
ENDBRANCH   4   5
ENDBRANCH   3   4
ENDBRANCH   2   3
TORSDOF 8
ENDMDL
MODEL       25
REMARK 921   NORMALIZED FREE ENERGY PREDICTED BY IDOCK:   -6.82 KCAL/MOL
REMARK 922        TOTAL FREE ENERGY PREDICTED BY IDOCK:  -10.54 KCAL/MOL
REMARK 923 INTER-LIGAND FREE ENERGY PREDICTED BY IDOCK:   -9.67 KCAL/MOL
REMARK 924 INTRA-LIGAND FREE ENERGY PREDICTED BY IDOCK:   -0.87 KCAL/MOL
REMARK 927      BINDING AFFINITY PREDICTED BY RF-SCORE:    0.00 PKD
ROOT
HETATM    1  C   UNL     1     -12.141  13.649  63.965  1.00  0.00    -0.474 C  
HETATM    2  C   UNL     1     -12.408  12.211  63.566  1.00  0.00    -0.682 C  
ENDROOT
BRANCH   2   3
HETATM    3  C   UNL     1     -11.146  11.346  63.606  1.00  0.00    -0.411 C  
BRANCH   3   4
HETATM    4  C   UNL     1     -10.259  11.805  64.763  1.00  0.00    -0.324 C  
BRANCH   4   5
HETATM    5  C   UNL     1     -10.270  10.880  65.961  1.00  0.00    -0.254 C  
HETATM    6  N   UNL     1     -10.656  11.393  67.199  1.00  0.00    -0.230 N  
HETATM    7  O   UNL     1      -9.928   9.700  65.840  1.00  0.00    -0.285 OA 
BRANCH   6   8
HETATM    8  C   UNL     1     -11.111  12.803  67.374  1.00  0.00    -0.275 C  
BRANCH   8   9
HETATM    9  C   UNL     1     -10.040  13.760  67.871  1.00  0.00    -0.246 A  
HETATM   10  C   UNL     1     -10.297  14.605  68.950  1.00  0.00    -0.245 A  
HETATM   11  C   UNL     1      -9.458  15.698  69.213  1.00  0.00    -0.264 A  
HETATM   12  C   UNL     1      -8.285  15.951  68.480  1.00  0.00    -0.169 A  
HETATM   13  C   UNL     1      -8.795  13.896  67.249  1.00  0.00    -0.227 A  
HETATM   14  C   UNL     1      -7.920  14.951  67.566  1.00  0.00    -0.198 A  
BRANCH  12  15
HETATM   15  C   UNL     1      -7.509  17.223  68.680  1.00  0.00    -0.251 A  
HETATM   16  C   UNL     1      -6.326  17.137  69.470  1.00  0.00    -0.230 A  
HETATM   17  C   UNL     1      -5.578  18.249  69.858  1.00  0.00    -0.234 A  
HETATM   18  C   UNL     1      -5.955  19.507  69.429  1.00  0.00    -0.300 A  
HETATM   19  C   UNL     1      -7.076  19.636  68.613  1.00  0.00    -0.369 A  
HETATM   20  C   UNL     1      -7.871  18.523  68.229  1.00  0.00    -0.323 A  
BRANCH  20  21
HETATM   21  C   UNL     1      -9.028  18.867  67.405  1.00  0.00    -0.276 A  
HETATM   22  N   UNL     1     -10.068  19.603  67.852  1.00  0.00    -0.396 NA 
HETATM   23  N   UNL     1     -10.877  19.570  66.788  1.00  0.00    -0.443 NA 
HETATM   24  H   UNL     1     -10.200  20.059  68.755  1.00  0.00     0.000 HD 
HETATM   25  N   UNL     1     -10.413  18.904  65.723  1.00  0.00    -0.587 NA 
HETATM   26  N   UNL     1      -9.244  18.418  66.122  1.00  0.00    -0.499 NA 
ENDBRANCH  20  21
ENDBRANCH  12  15
ENDBRANCH   8   9
ENDBRANCH   6   8
BRANCH   6  27
HETATM   27  C   UNL     1     -10.860  10.460  68.369  1.00  0.00    -0.245 C  
HETATM   28  C   UNL     1     -11.799  10.848  69.555  1.00  0.00    -0.332 C  
HETATM   29  O   UNL     1     -12.460  10.005  70.159  1.00  0.00    -0.110 OA 
HETATM   30  C   UNL     1      -9.543   9.779  68.855  1.00  0.00    -0.167 C  
HETATM   31  O   UNL     1     -11.798  12.122  69.982  1.00  0.00    -0.328 OA 
HETATM   32  C   UNL     1      -8.393  10.729  69.170  1.00  0.00    -0.111 C  
HETATM   33  C   UNL     1      -9.737   8.763  69.982  1.00  0.00    -0.182 C  
ENDBRANCH   6  27
ENDBRANCH   4   5
ENDBRANCH   3   4
ENDBRANCH   2   3
TORSDOF 8
ENDMDL
MODEL       26
REMARK 921   NORMALIZED FREE ENERGY PREDICTED BY IDOCK:   -6.80 KCAL/MOL
REMARK 922        TOTAL FREE ENERGY PREDICTED BY IDOCK:  -10.51 KCAL/MOL
REMARK 923 INTER-LIGAND FREE ENERGY PREDICTED BY IDOCK:   -9.89 KCAL/MOL
REMARK 924 INTRA-LIGAND FREE ENERGY PREDICTED BY IDOCK:   -0.62 KCAL/MOL
REMARK 927      BINDING AFFINITY PREDICTED BY RF-SCORE:    0.00 PKD
ROOT
HETATM    1  C   UNL     1     -12.445  15.116  70.562  1.00  0.00    -0.429 C  
HETATM    2  C   UNL     1     -11.065  15.727  70.437  1.00  0.00    -0.380 C  
ENDROOT
BRANCH   2   3
HETATM    3  C   UNL     1     -10.554  15.736  68.994  1.00  0.00    -0.232 C  
BRANCH   3   4
HETATM    4  C   UNL     1      -9.867  14.404  68.696  1.00  0.00    -0.231 C  
BRANCH   4   5
HETATM    5  C   UNL     1      -9.791  14.057  67.225  1.00  0.00    -0.242 C  
HETATM    6  N   UNL     1     -10.823  13.311  66.659  1.00  0.00    -0.279 N  
HETATM    7  O   UNL     1      -8.823  14.419  66.549  1.00  0.00    -0.202 OA 
BRANCH   6   8
HETATM    8  C   UNL     1     -12.025  12.889  67.436  1.00  0.00    -0.300 C  
BRANCH   8   9
HETATM    9  C   UNL     1     -11.804  11.697  68.352  1.00  0.00    -0.346 A  
HETATM   10  C   UNL     1     -12.167  11.767  69.698  1.00  0.00    -0.248 A  
HETATM   11  C   UNL     1     -11.686  10.820  70.614  1.00  0.00    -0.442 A  
HETATM   12  C   UNL     1     -10.903   9.717  70.229  1.00  0.00    -0.339 A  
HETATM   13  C   UNL     1     -11.178  10.521  67.931  1.00  0.00    -0.358 A  
HETATM   14  C   UNL     1     -10.762   9.534  68.845  1.00  0.00    -0.220 A  
BRANCH  12  15
HETATM   15  C   UNL     1     -10.267   8.825  71.257  1.00  0.00    -0.332 A  
HETATM   16  C   UNL     1     -11.133   8.246  72.230  1.00  0.00    -0.429 A  
HETATM   17  C   UNL     1     -10.678   7.511  73.325  1.00  0.00    -0.437 A  
HETATM   18  C   UNL     1      -9.323   7.277  73.473  1.00  0.00    -0.253 A  
HETATM   19  C   UNL     1      -8.442   7.781  72.520  1.00  0.00    -0.175 A  
HETATM   20  C   UNL     1      -8.878   8.557  71.413  1.00  0.00    -0.253 A  
BRANCH  20  21
HETATM   21  C   UNL     1      -7.799   9.028  70.547  1.00  0.00    -0.130 A  
HETATM   22  N   UNL     1      -7.316   8.316  69.506  1.00  0.00    -0.072 NA 
HETATM   23  N   UNL     1      -6.320   9.111  69.099  1.00  0.00    -0.042 NA 
HETATM   24  H   UNL     1      -7.626   7.420  69.133  1.00  0.00     0.000 HD 
HETATM   25  N   UNL     1      -6.169  10.254  69.780  1.00  0.00    -0.052 NA 
HETATM   26  N   UNL     1      -7.089  10.193  70.735  1.00  0.00    -0.305 NA 
ENDBRANCH  20  21
ENDBRANCH  12  15
ENDBRANCH   8   9
ENDBRANCH   6   8
BRANCH   6  27
HETATM   27  C   UNL     1     -10.875  13.110  65.163  1.00  0.00    -0.304 C  
HETATM   28  C   UNL     1     -12.226  13.185  64.385  1.00  0.00    -0.398 C  
HETATM   29  O   UNL     1     -12.289  13.629  63.240  1.00  0.00    -0.743 OA 
HETATM   30  C   UNL     1      -9.968  11.941  64.664  1.00  0.00    -0.257 C  
HETATM   31  O   UNL     1     -13.323  12.656  64.953  1.00  0.00    -0.741 OA 
HETATM   32  C   UNL     1     -10.191  10.600  65.354  1.00  0.00    -0.341 C  
HETATM   33  C   UNL     1      -9.935  11.775  63.144  1.00  0.00    -0.373 C  
ENDBRANCH   6  27
ENDBRANCH   4   5
ENDBRANCH   3   4
ENDBRANCH   2   3
TORSDOF 8
ENDMDL
MODEL       27
REMARK 921   NORMALIZED FREE ENERGY PREDICTED BY IDOCK:   -6.79 KCAL/MOL
REMARK 922        TOTAL FREE ENERGY PREDICTED BY IDOCK:  -10.50 KCAL/MOL
REMARK 923 INTER-LIGAND FREE ENERGY PREDICTED BY IDOCK:   -9.60 KCAL/MOL
REMARK 924 INTRA-LIGAND FREE ENERGY PREDICTED BY IDOCK:   -0.90 KCAL/MOL
REMARK 927      BINDING AFFINITY PREDICTED BY RF-SCORE:    0.00 PKD
ROOT
HETATM    1  C   UNL     1      -8.760  11.195  62.518  1.00  0.00    -0.304 C  
HETATM    2  C   UNL     1     -10.118  10.938  63.139  1.00  0.00    -0.317 C  
ENDROOT
BRANCH   2   3
HETATM    3  C   UNL     1     -10.978  12.202  63.216  1.00  0.00    -0.398 C  
BRANCH   3   4
HETATM    4  C   UNL     1     -11.922  12.095  64.414  1.00  0.00    -0.443 C  
BRANCH   4   5
HETATM    5  C   UNL     1     -11.924  13.310  65.316  1.00  0.00    -0.388 C  
HETATM    6  N   UNL     1     -10.938  13.417  66.295  1.00  0.00    -0.287 N  
HETATM    7  O   UNL     1     -12.794  14.177  65.191  1.00  0.00    -0.686 OA 
BRANCH   6   8
HETATM    8  C   UNL     1      -9.850  12.408  66.450  1.00  0.00    -0.240 C  
BRANCH   8   9
HETATM    9  C   UNL     1     -10.198  11.231  67.347  1.00  0.00    -0.217 A  
HETATM   10  C   UNL     1     -10.002  11.317  68.726  1.00  0.00    -0.203 A  
HETATM   11  C   UNL     1     -10.009  10.159  69.518  1.00  0.00    -0.257 A  
HETATM   12  C   UNL     1     -10.296   8.884  69.000  1.00  0.00    -0.226 A  
HETATM   13  C   UNL     1     -10.652  10.006  66.853  1.00  0.00    -0.261 A  
HETATM   14  C   UNL     1     -10.731   8.861  67.667  1.00  0.00    -0.221 A  
BRANCH  12  15
HETATM   15  C   UNL     1     -10.125   7.652  69.844  1.00  0.00    -0.198 A  
HETATM   16  C   UNL     1      -9.021   6.805  69.531  1.00  0.00    -0.139 A  
HETATM   17  C   UNL     1      -8.811   5.563  70.130  1.00  0.00    -0.147 A  
HETATM   18  C   UNL     1      -9.676   5.126  71.115  1.00  0.00    -0.235 A  
HETATM   19  C   UNL     1     -10.741   5.942  71.490  1.00  0.00    -0.313 A  
HETATM   20  C   UNL     1     -10.994   7.197  70.875  1.00  0.00    -0.276 A  
BRANCH  20  21
HETATM   21  C   UNL     1     -12.181   7.884  71.378  1.00  0.00    -0.313 A  
HETATM   22  N   UNL     1     -13.442   7.534  71.044  1.00  0.00    -0.609 NA 
HETATM   23  N   UNL     1     -14.142   8.483  71.674  1.00  0.00    -0.415 NA 
HETATM   24  H   UNL     1     -13.769   6.758  70.469  1.00  0.00     0.000 HD 
HETATM   25  N   UNL     1     -13.425   9.364  72.384  1.00  0.00    -0.462 NA 
HETATM   26  N   UNL     1     -12.163   9.010  72.170  1.00  0.00    -0.369 NA 
ENDBRANCH  20  21
ENDBRANCH  12  15
ENDBRANCH   8   9
ENDBRANCH   6   8
BRANCH   6  27
HETATM   27  C   UNL     1     -10.796  14.698  67.083  1.00  0.00    -0.303 C  
HETATM   28  C   UNL     1      -9.398  15.198  67.565  1.00  0.00    -0.198 C  
HETATM   29  O   UNL     1      -9.128  16.396  67.635  1.00  0.00    -0.197 OA 
HETATM   30  C   UNL     1     -11.898  14.879  68.173  1.00  0.00    -0.307 C  
HETATM   31  O   UNL     1      -8.511  14.290  68.007  1.00  0.00    -0.147 OA 
HETATM   32  C   UNL     1     -12.057  13.714  69.143  1.00  0.00    -0.361 C  
HETATM   33  C   UNL     1     -11.828  16.210  68.925  1.00  0.00    -0.159 C  
ENDBRANCH   6  27
ENDBRANCH   4   5
ENDBRANCH   3   4
ENDBRANCH   2   3
TORSDOF 8
ENDMDL
MODEL       28
REMARK 921   NORMALIZED FREE ENERGY PREDICTED BY IDOCK:   -6.76 KCAL/MOL
REMARK 922        TOTAL FREE ENERGY PREDICTED BY IDOCK:  -10.45 KCAL/MOL
REMARK 923 INTER-LIGAND FREE ENERGY PREDICTED BY IDOCK:   -9.61 KCAL/MOL
REMARK 924 INTRA-LIGAND FREE ENERGY PREDICTED BY IDOCK:   -0.84 KCAL/MOL
REMARK 927      BINDING AFFINITY PREDICTED BY RF-SCORE:    0.00 PKD
ROOT
HETATM    1  C   UNL     1     -12.456  13.503  65.363  1.00  0.00    -0.540 C  
HETATM    2  C   UNL     1     -12.343  12.236  64.539  1.00  0.00    -0.468 C  
ENDROOT
BRANCH   2   3
HETATM    3  C   UNL     1     -11.392  12.391  63.350  1.00  0.00    -0.507 C  
BRANCH   3   4
HETATM    4  C   UNL     1      -9.966  12.081  63.804  1.00  0.00    -0.368 C  
BRANCH   4   5
HETATM    5  C   UNL     1      -9.506  10.672  63.496  1.00  0.00    -0.308 C  
HETATM    6  N   UNL     1      -8.645  10.039  64.390  1.00  0.00    -0.175 N  
HETATM    7  O   UNL     1      -9.879  10.108  62.463  1.00  0.00    -0.157 OA 
BRANCH   6   8
HETATM    8  C   UNL     1      -8.205  10.676  65.665  1.00  0.00    -0.154 C  
BRANCH   8   9
HETATM    9  C   UNL     1      -9.336  11.137  66.569  1.00  0.00    -0.199 A  
HETATM   10  C   UNL     1      -9.363  12.446  67.050  1.00  0.00    -0.204 A  
HETATM   11  C   UNL     1     -10.201  12.792  68.122  1.00  0.00    -0.241 A  
HETATM   12  C   UNL     1     -11.108  11.888  68.703  1.00  0.00    -0.295 A  
HETATM   13  C   UNL     1     -10.347  10.282  67.017  1.00  0.00    -0.299 A  
HETATM   14  C   UNL     1     -11.236  10.658  68.041  1.00  0.00    -0.373 A  
BRANCH  12  15
HETATM   15  C   UNL     1     -11.860  12.246  69.954  1.00  0.00    -0.383 A  
HETATM   16  C   UNL     1     -12.397  11.165  70.713  1.00  0.00    -0.504 A  
HETATM   17  C   UNL     1     -13.232  11.341  71.817  1.00  0.00    -0.480 A  
HETATM   18  C   UNL     1     -13.532  12.620  72.247  1.00  0.00    -0.541 A  
HETATM   19  C   UNL     1     -12.989  13.708  71.567  1.00  0.00    -0.443 A  
HETATM   20  C   UNL     1     -12.161  13.555  70.423  1.00  0.00    -0.426 A  
BRANCH  20  21
HETATM   21  C   UNL     1     -11.724  14.815  69.826  1.00  0.00    -0.310 A  
HETATM   22  N   UNL     1     -12.247  15.322  68.690  1.00  0.00    -0.583 NA 
HETATM   23  N   UNL     1     -11.482  16.406  68.521  1.00  0.00    -0.298 NA 
HETATM   24  H   UNL     1     -13.016  14.974  68.117  1.00  0.00     0.000 HD 
HETATM   25  N   UNL     1     -10.557  16.620  69.466  1.00  0.00    -0.323 NA 
HETATM   26  N   UNL     1     -10.679  15.585  70.288  1.00  0.00    -0.326 NA 
ENDBRANCH  20  21
ENDBRANCH  12  15
ENDBRANCH   8   9
ENDBRANCH   6   8
BRANCH   6  27
HETATM   27  C   UNL     1      -8.320   8.575  64.212  1.00  0.00    -0.105 C  
HETATM   28  C   UNL     1      -8.225   7.615  65.440  1.00  0.00    -0.136 C  
HETATM   29  O   UNL     1      -8.568   6.436  65.367  1.00  0.00    -0.146 OA 
HETATM   30  C   UNL     1      -7.190   8.314  63.168  1.00  0.00    -0.094 C  
HETATM   31  O   UNL     1      -7.659   8.073  66.570  1.00  0.00    -0.089 OA 
HETATM   32  C   UNL     1      -5.896   9.086  63.398  1.00  0.00    -0.084 C  
HETATM   33  C   UNL     1      -6.903   6.834  62.906  1.00  0.00    -0.050 C  
ENDBRANCH   6  27
ENDBRANCH   4   5
ENDBRANCH   3   4
ENDBRANCH   2   3
TORSDOF 8
ENDMDL
MODEL       29
REMARK 921   NORMALIZED FREE ENERGY PREDICTED BY IDOCK:   -6.75 KCAL/MOL
REMARK 922        TOTAL FREE ENERGY PREDICTED BY IDOCK:  -10.44 KCAL/MOL
REMARK 923 INTER-LIGAND FREE ENERGY PREDICTED BY IDOCK:   -9.28 KCAL/MOL
REMARK 924 INTRA-LIGAND FREE ENERGY PREDICTED BY IDOCK:   -1.15 KCAL/MOL
REMARK 927      BINDING AFFINITY PREDICTED BY RF-SCORE:    0.00 PKD
ROOT
HETATM    1  C   UNL     1     -10.349   6.084  73.795  1.00  0.00    -0.277 C  
HETATM    2  C   UNL     1     -10.349   7.512  73.288  1.00  0.00    -0.412 C  
ENDROOT
BRANCH   2   3
HETATM    3  C   UNL     1     -11.733   7.972  72.825  1.00  0.00    -0.352 C  
BRANCH   3   4
HETATM    4  C   UNL     1     -11.627   8.529  71.405  1.00  0.00    -0.344 C  
BRANCH   4   5
HETATM    5  C   UNL     1     -11.120   7.536  70.382  1.00  0.00    -0.261 C  
HETATM    6  N   UNL     1      -9.984   7.858  69.642  1.00  0.00    -0.187 N  
HETATM    7  O   UNL     1     -11.716   6.469  70.201  1.00  0.00    -0.418 OA 
BRANCH   6   8
HETATM    8  C   UNL     1      -9.218   9.120  69.859  1.00  0.00    -0.183 C  
BRANCH   8   9
HETATM    9  C   UNL     1      -9.545  10.238  68.884  1.00  0.00    -0.193 A  
HETATM   10  C   UNL     1      -8.573  10.706  68.000  1.00  0.00    -0.122 A  
HETATM   11  C   UNL     1      -8.749  11.927  67.331  1.00  0.00    -0.166 A  
HETATM   12  C   UNL     1      -9.925  12.691  67.437  1.00  0.00    -0.204 A  
HETATM   13  C   UNL     1     -10.779  10.893  68.864  1.00  0.00    -0.252 A  
HETATM   14  C   UNL     1     -10.978  12.078  68.132  1.00  0.00    -0.273 A  
BRANCH  12  15
HETATM   15  C   UNL     1     -10.006  14.069  66.844  1.00  0.00    -0.263 A  
HETATM   16  C   UNL     1      -9.287  15.102  67.516  1.00  0.00    -0.198 A  
HETATM   17  C   UNL     1      -9.375  16.450  67.169  1.00  0.00    -0.228 A  
HETATM   18  C   UNL     1     -10.156  16.828  66.092  1.00  0.00    -0.360 A  
HETATM   19  C   UNL     1     -10.838  15.848  65.375  1.00  0.00    -0.361 A  
HETATM   20  C   UNL     1     -10.788  14.472  65.726  1.00  0.00    -0.317 A  
BRANCH  20  21
HETATM   21  C   UNL     1     -11.603  13.606  64.877  1.00  0.00    -0.344 A  
HETATM   22  N   UNL     1     -11.287  13.307  63.598  1.00  0.00    -0.605 NA 
HETATM   23  N   UNL     1     -12.349  12.577  63.240  1.00  0.00    -0.600 NA 
HETATM   24  H   UNL     1     -10.464  13.567  63.055  1.00  0.00     0.000 HD 
HETATM   25  N   UNL     1     -13.270  12.382  64.192  1.00  0.00    -0.661 NA 
HETATM   26  N   UNL     1     -12.819  13.069  65.234  1.00  0.00    -0.713 NA 
ENDBRANCH  20  21
ENDBRANCH  12  15
ENDBRANCH   8   9
ENDBRANCH   6   8
BRANCH   6  27
HETATM   27  C   UNL     1      -9.344   6.817  68.753  1.00  0.00    -0.132 C  
HETATM   28  C   UNL     1      -7.791   6.686  68.654  1.00  0.00    -0.114 C  
HETATM   29  O   UNL     1      -7.243   5.597  68.492  1.00  0.00    -0.071 OA 
HETATM   30  C   UNL     1     -10.040   6.677  67.364  1.00  0.00    -0.211 C  
HETATM   31  O   UNL     1      -7.053   7.808  68.645  1.00  0.00    -0.072 OA 
HETATM   32  C   UNL     1     -10.198   7.973  66.577  1.00  0.00    -0.228 C  
HETATM   33  C   UNL     1      -9.466   5.568  66.480  1.00  0.00    -0.161 C  
ENDBRANCH   6  27
ENDBRANCH   4   5
ENDBRANCH   3   4
ENDBRANCH   2   3
TORSDOF 8
ENDMDL
MODEL       30
REMARK 921   NORMALIZED FREE ENERGY PREDICTED BY IDOCK:   -6.69 KCAL/MOL
REMARK 922        TOTAL FREE ENERGY PREDICTED BY IDOCK:  -10.35 KCAL/MOL
REMARK 923 INTER-LIGAND FREE ENERGY PREDICTED BY IDOCK:   -8.98 KCAL/MOL
REMARK 924 INTRA-LIGAND FREE ENERGY PREDICTED BY IDOCK:   -1.37 KCAL/MOL
REMARK 927      BINDING AFFINITY PREDICTED BY RF-SCORE:    0.00 PKD
ROOT
HETATM    1  C   UNL     1      -9.391   7.979  66.728  1.00  0.00    -0.229 C  
HETATM    2  C   UNL     1     -10.707   7.941  67.478  1.00  0.00    -0.252 C  
ENDROOT
BRANCH   2   3
HETATM    3  C   UNL     1     -11.146   6.516  67.823  1.00  0.00    -0.366 C  
BRANCH   3   4
HETATM    4  C   UNL     1     -11.427   6.427  69.324  1.00  0.00    -0.318 C  
BRANCH   4   5
HETATM    5  C   UNL     1     -10.223   6.056  70.161  1.00  0.00    -0.208 C  
HETATM    6  N   UNL     1     -10.072   6.647  71.415  1.00  0.00    -0.190 N  
HETATM    7  O   UNL     1      -9.386   5.257  69.730  1.00  0.00    -0.123 OA 
BRANCH   6   8
HETATM    8  C   UNL     1     -11.081   7.588  71.983  1.00  0.00    -0.247 C  
BRANCH   8   9
HETATM    9  C   UNL     1     -11.168   8.930  71.275  1.00  0.00    -0.368 A  
HETATM   10  C   UNL     1     -12.397   9.576  71.143  1.00  0.00    -0.410 A  
HETATM   11  C   UNL     1     -12.550  10.632  70.232  1.00  0.00    -0.333 A  
HETATM   12  C   UNL     1     -11.481  11.152  69.481  1.00  0.00    -0.374 A  
HETATM   13  C   UNL     1     -10.068   9.543  70.671  1.00  0.00    -0.353 A  
HETATM   14  C   UNL     1     -10.213  10.651  69.815  1.00  0.00    -0.098 A  
BRANCH  12  15
HETATM   15  C   UNL     1     -11.719  12.164  68.396  1.00  0.00    -0.388 A  
HETATM   16  C   UNL     1     -11.632  11.697  67.051  1.00  0.00    -0.268 A  
HETATM   17  C   UNL     1     -11.691  12.539  65.940  1.00  0.00    -0.480 A  
HETATM   18  C   UNL     1     -11.891  13.895  66.123  1.00  0.00    -0.422 A  
HETATM   19  C   UNL     1     -12.032  14.390  67.416  1.00  0.00    -0.407 A  
HETATM   20  C   UNL     1     -11.945  13.558  68.565  1.00  0.00    -0.379 A  
BRANCH  20  21
HETATM   21  C   UNL     1     -12.079  14.271  69.834  1.00  0.00    -0.347 A  
HETATM   22  N   UNL     1     -13.221  14.868  70.235  1.00  0.00    -0.608 NA 
HETATM   23  N   UNL     1     -12.822  15.433  71.380  1.00  0.00    -0.404 NA 
HETATM   24  H   UNL     1     -14.137  14.885  69.787  1.00  0.00     0.000 HD 
HETATM   25  N   UNL     1     -11.547  15.211  71.726  1.00  0.00    -0.401 NA 
HETATM   26  N   UNL     1     -11.052  14.497  70.722  1.00  0.00     0.039 NA 
ENDBRANCH  20  21
ENDBRANCH  12  15
ENDBRANCH   8   9
ENDBRANCH   6   8
BRANCH   6  27
HETATM   27  C   UNL     1      -8.990   6.162  72.351  1.00  0.00    -0.136 C  
HETATM   28  C   UNL     1      -9.301   5.846  73.848  1.00  0.00    -0.133 C  
HETATM   29  O   UNL     1      -8.724   4.943  74.452  1.00  0.00    -0.112 OA 
HETATM   30  C   UNL     1      -7.634   6.913  72.173  1.00  0.00    -0.092 C  
HETATM   31  O   UNL     1     -10.148   6.652  74.510  1.00  0.00    -0.352 OA 
HETATM   32  C   UNL     1      -7.714   8.434  72.252  1.00  0.00    -0.153 C  
HETATM   33  C   UNL     1      -6.498   6.380  73.048  1.00  0.00    -0.068 C  
ENDBRANCH   6  27
ENDBRANCH   4   5
ENDBRANCH   3   4
ENDBRANCH   2   3
TORSDOF 8
ENDMDL
MODEL       31
REMARK 921   NORMALIZED FREE ENERGY PREDICTED BY IDOCK:   -6.69 KCAL/MOL
REMARK 922        TOTAL FREE ENERGY PREDICTED BY IDOCK:  -10.34 KCAL/MOL
REMARK 923 INTER-LIGAND FREE ENERGY PREDICTED BY IDOCK:   -9.96 KCAL/MOL
REMARK 924 INTRA-LIGAND FREE ENERGY PREDICTED BY IDOCK:   -0.39 KCAL/MOL
REMARK 927      BINDING AFFINITY PREDICTED BY RF-SCORE:    0.00 PKD
ROOT
HETATM    1  C   UNL     1     -14.218   6.980  71.543  1.00  0.00    -0.413 C  
HETATM    2  C   UNL     1     -14.402   8.471  71.345  1.00  0.00    -0.387 C  
ENDROOT
BRANCH   2   3
HETATM    3  C   UNL     1     -13.515   9.302  72.275  1.00  0.00    -0.548 C  
BRANCH   3   4
HETATM    4  C   UNL     1     -12.309   9.818  71.490  1.00  0.00    -0.495 C  
BRANCH   4   5
HETATM    5  C   UNL     1     -11.108   8.897  71.516  1.00  0.00    -0.326 C  
HETATM    6  N   UNL     1     -10.483   8.578  70.311  1.00  0.00    -0.215 N  
HETATM    7  O   UNL     1     -10.706   8.428  72.585  1.00  0.00    -0.339 OA 
BRANCH   6   8
HETATM    8  C   UNL     1     -10.919   9.155  69.006  1.00  0.00    -0.008 C  
BRANCH   8   9
HETATM    9  C   UNL     1     -10.624  10.636  68.836  1.00  0.00    -0.241 A  
HETATM   10  C   UNL     1     -11.662  11.568  68.868  1.00  0.00    -0.403 A  
HETATM   11  C   UNL     1     -11.458  12.875  68.400  1.00  0.00    -0.347 A  
HETATM   12  C   UNL     1     -10.204  13.342  67.966  1.00  0.00    -0.243 A  
HETATM   13  C   UNL     1      -9.343  11.131  68.574  1.00  0.00    -0.190 A  
HETATM   14  C   UNL     1      -9.130  12.464  68.177  1.00  0.00    -0.200 A  
BRANCH  12  15
HETATM   15  C   UNL     1     -10.066  14.689  67.314  1.00  0.00    -0.236 A  
HETATM   16  C   UNL     1      -9.545  15.743  68.121  1.00  0.00    -0.199 A  
HETATM   17  C   UNL     1      -9.486  17.073  67.703  1.00  0.00    -0.236 A  
HETATM   18  C   UNL     1      -9.905  17.407  66.429  1.00  0.00    -0.311 A  
HETATM   19  C   UNL     1     -10.376  16.402  65.587  1.00  0.00    -0.371 A  
HETATM   20  C   UNL     1     -10.473  15.046  65.999  1.00  0.00    -0.326 A  
BRANCH  20  21
HETATM   21  C   UNL     1     -11.029  14.150  64.987  1.00  0.00    -0.384 A  
HETATM   22  N   UNL     1     -10.271  13.367  64.189  1.00  0.00    -0.757 NA 
HETATM   23  N   UNL     1     -11.209  12.820  63.408  1.00  0.00    -0.381 NA 
HETATM   24  H   UNL     1      -9.260  13.231  64.184  1.00  0.00     0.000 HD 
HETATM   25  N   UNL     1     -12.472  13.178  63.674  1.00  0.00    -0.735 NA 
HETATM   26  N   UNL     1     -12.364  14.059  64.661  1.00  0.00    -0.573 NA 
ENDBRANCH  20  21
ENDBRANCH  12  15
ENDBRANCH   8   9
ENDBRANCH   6   8
BRANCH   6  27
HETATM   27  C   UNL     1      -9.177   7.819  70.319  1.00  0.00    -0.156 C  
HETATM   28  C   UNL     1      -8.222   7.845  69.084  1.00  0.00    -0.132 C  
HETATM   29  O   UNL     1      -6.999   7.806  69.211  1.00  0.00    -0.057 OA 
HETATM   30  C   UNL     1      -9.292   6.396  70.949  1.00  0.00    -0.168 C  
HETATM   31  O   UNL     1      -8.763   7.808  67.855  1.00  0.00    -0.125 OA 
HETATM   32  C   UNL     1     -10.381   5.506  70.361  1.00  0.00    -0.346 C  
HETATM   33  C   UNL     1      -7.964   5.642  71.048  1.00  0.00    -0.111 C  
ENDBRANCH   6  27
ENDBRANCH   4   5
ENDBRANCH   3   4
ENDBRANCH   2   3
TORSDOF 8
ENDMDL
MODEL       32
REMARK 921   NORMALIZED FREE ENERGY PREDICTED BY IDOCK:   -6.67 KCAL/MOL
REMARK 922        TOTAL FREE ENERGY PREDICTED BY IDOCK:  -10.31 KCAL/MOL
REMARK 923 INTER-LIGAND FREE ENERGY PREDICTED BY IDOCK:   -9.55 KCAL/MOL
REMARK 924 INTRA-LIGAND FREE ENERGY PREDICTED BY IDOCK:   -0.77 KCAL/MOL
REMARK 927      BINDING AFFINITY PREDICTED BY RF-SCORE:    0.00 PKD
ROOT
HETATM    1  C   UNL     1     -12.349   9.010  71.823  1.00  0.00    -0.438 C  
HETATM    2  C   UNL     1     -13.092  10.301  71.544  1.00  0.00    -0.534 C  
ENDROOT
BRANCH   2   3
HETATM    3  C   UNL     1     -12.198  11.368  70.908  1.00  0.00    -0.447 C  
BRANCH   3   4
HETATM    4  C   UNL     1     -12.353  11.313  69.388  1.00  0.00    -0.216 C  
BRANCH   4   5
HETATM    5  C   UNL     1     -11.117  10.840  68.653  1.00  0.00    -0.259 C  
HETATM    6  N   UNL     1     -10.942  11.223  67.324  1.00  0.00    -0.270 N  
HETATM    7  O   UNL     1     -10.293  10.118  69.221  1.00  0.00    -0.195 OA 
BRANCH   6   8
HETATM    8  C   UNL     1     -11.899  12.125  66.618  1.00  0.00    -0.237 C  
BRANCH   8   9
HETATM    9  C   UNL     1     -11.662  13.608  66.848  1.00  0.00    -0.423 A  
HETATM   10  C   UNL     1     -11.425  14.458  65.768  1.00  0.00    -0.335 A  
HETATM   11  C   UNL     1     -10.894  15.740  65.976  1.00  0.00    -0.256 A  
HETATM   12  C   UNL     1     -10.658  16.269  67.258  1.00  0.00    -0.298 A  
HETATM   13  C   UNL     1     -11.598  14.179  68.123  1.00  0.00    -0.365 A  
HETATM   14  C   UNL     1     -11.135  15.492  68.324  1.00  0.00    -0.322 A  
BRANCH  12  15
HETATM   15  C   UNL     1      -9.932  17.573  67.433  1.00  0.00    -0.315 A  
HETATM   16  C   UNL     1     -10.705  18.763  67.297  1.00  0.00    -0.490 A  
HETATM   17  C   UNL     1     -10.151  20.043  67.295  1.00  0.00    -0.577 A  
HETATM   18  C   UNL     1      -8.790  20.197  67.481  1.00  0.00    -0.431 A  
HETATM   19  C   UNL     1      -8.000  19.065  67.669  1.00  0.00    -0.285 A  
HETATM   20  C   UNL     1      -8.536  17.750  67.644  1.00  0.00    -0.230 A  
BRANCH  20  21
HETATM   21  C   UNL     1      -7.542  16.693  67.820  1.00  0.00    -0.159 A  
HETATM   22  N   UNL     1      -6.983  16.018  66.793  1.00  0.00    -0.234 NA 
HETATM   23  N   UNL     1      -6.229  15.133  67.454  1.00  0.00    -0.326 NA 
HETATM   24  H   UNL     1      -7.104  16.148  65.789  1.00  0.00     0.000 HD 
HETATM   25  N   UNL     1      -6.256  15.225  68.789  1.00  0.00    -0.089 NA 
HETATM   26  N   UNL     1      -7.124  16.199  69.036  1.00  0.00    -0.175 NA 
ENDBRANCH  20  21
ENDBRANCH  12  15
ENDBRANCH   8   9
ENDBRANCH   6   8
BRANCH   6  27
HETATM   27  C   UNL     1      -9.638  10.930  66.622  1.00  0.00    -0.185 C  
HETATM   28  C   UNL     1      -8.400  11.865  66.796  1.00  0.00    -0.153 C  
HETATM   29  O   UNL     1      -7.251  11.425  66.796  1.00  0.00    -0.138 OA 
HETATM   30  C   UNL     1      -9.821  10.459  65.145  1.00  0.00    -0.378 C  
HETATM   31  O   UNL     1      -8.602  13.193  66.845  1.00  0.00    -0.191 OA 
HETATM   32  C   UNL     1     -10.663  11.376  64.266  1.00  0.00    -0.420 C  
HETATM   33  C   UNL     1      -8.520  10.071  64.441  1.00  0.00    -0.178 C  
ENDBRANCH   6  27
ENDBRANCH   4   5
ENDBRANCH   3   4
ENDBRANCH   2   3
TORSDOF 8
ENDMDL
MODEL       33
REMARK 921   NORMALIZED FREE ENERGY PREDICTED BY IDOCK:   -6.66 KCAL/MOL
REMARK 922        TOTAL FREE ENERGY PREDICTED BY IDOCK:  -10.30 KCAL/MOL
REMARK 923 INTER-LIGAND FREE ENERGY PREDICTED BY IDOCK:   -9.90 KCAL/MOL
REMARK 924 INTRA-LIGAND FREE ENERGY PREDICTED BY IDOCK:   -0.40 KCAL/MOL
REMARK 927      BINDING AFFINITY PREDICTED BY RF-SCORE:    0.00 PKD
ROOT
HETATM    1  C   UNL     1      -9.211  11.180  64.739  1.00  0.00    -0.157 C  
HETATM    2  C   UNL     1     -10.277  10.215  65.217  1.00  0.00    -0.261 C  
ENDROOT
BRANCH   2   3
HETATM    3  C   UNL     1      -9.687   8.981  65.904  1.00  0.00    -0.306 C  
BRANCH   3   4
HETATM    4  C   UNL     1     -10.630   8.529  67.020  1.00  0.00    -0.305 C  
BRANCH   4   5
HETATM    5  C   UNL     1      -9.929   7.980  68.244  1.00  0.00    -0.185 C  
HETATM    6  N   UNL     1     -10.302   8.458  69.499  1.00  0.00    -0.216 N  
HETATM    7  O   UNL     1      -9.035   7.138  68.123  1.00  0.00    -0.129 OA 
BRANCH   6   8
HETATM    8  C   UNL     1     -11.404   9.447  69.685  1.00  0.00     0.008 C  
BRANCH   8   9
HETATM    9  C   UNL     1     -11.074  10.858  69.227  1.00  0.00    -0.305 A  
HETATM   10  C   UNL     1     -12.069  11.835  69.190  1.00  0.00    -0.290 A  
HETATM   11  C   UNL     1     -11.867  13.029  68.481  1.00  0.00    -0.360 A  
HETATM   12  C   UNL     1     -10.648  13.346  67.855  1.00  0.00    -0.253 A  
HETATM   13  C   UNL     1      -9.810  11.231  68.763  1.00  0.00    -0.194 A  
HETATM   14  C   UNL     1      -9.590  12.462  68.117  1.00  0.00    -0.218 A  
BRANCH  12  15
HETATM   15  C   UNL     1     -10.528  14.551  66.964  1.00  0.00    -0.268 A  
HETATM   16  C   UNL     1      -9.866  15.690  67.509  1.00  0.00    -0.228 A  
HETATM   17  C   UNL     1      -9.797  16.923  66.860  1.00  0.00    -0.278 A  
HETATM   18  C   UNL     1     -10.351  17.061  65.601  1.00  0.00    -0.226 A  
HETATM   19  C   UNL     1     -10.965  15.961  65.007  1.00  0.00    -0.426 A  
HETATM   20  C   UNL     1     -11.074  14.704  65.660  1.00  0.00    -0.338 A  
BRANCH  20  21
HETATM   21  C   UNL     1     -11.787  13.688  64.889  1.00  0.00    -0.375 A  
HETATM   22  N   UNL     1     -11.494  13.385  63.607  1.00  0.00    -0.625 NA 
HETATM   23  N   UNL     1     -12.448  12.486  63.336  1.00  0.00    -0.703 NA 
HETATM   24  H   UNL     1     -10.751  13.743  63.008  1.00  0.00     0.000 HD 
HETATM   25  N   UNL     1     -13.277  12.194  64.346  1.00  0.00    -0.681 NA 
HETATM   26  N   UNL     1     -12.885  12.987  65.335  1.00  0.00    -0.643 NA 
ENDBRANCH  20  21
ENDBRANCH  12  15
ENDBRANCH   8   9
ENDBRANCH   6   8
BRANCH   6  27
HETATM   27  C   UNL     1      -9.761   7.800  70.746  1.00  0.00    -0.173 C  
HETATM   28  C   UNL     1      -9.596   6.249  70.834  1.00  0.00    -0.176 C  
HETATM   29  O   UNL     1      -8.678   5.731  71.466  1.00  0.00    -0.131 OA 
HETATM   30  C   UNL     1     -10.328   8.410  72.065  1.00  0.00    -0.374 C  
HETATM   31  O   UNL     1     -10.545   5.473  70.284  1.00  0.00    -0.279 OA 
HETATM   32  C   UNL     1     -11.849   8.472  72.156  1.00  0.00    -0.448 C  
HETATM   33  C   UNL     1      -9.728   7.820  73.343  1.00  0.00    -0.353 C  
ENDBRANCH   6  27
ENDBRANCH   4   5
ENDBRANCH   3   4
ENDBRANCH   2   3
TORSDOF 8
ENDMDL
MODEL       34
REMARK 921   NORMALIZED FREE ENERGY PREDICTED BY IDOCK:   -6.64 KCAL/MOL
REMARK 922        TOTAL FREE ENERGY PREDICTED BY IDOCK:  -10.27 KCAL/MOL
REMARK 923 INTER-LIGAND FREE ENERGY PREDICTED BY IDOCK:   -8.90 KCAL/MOL
REMARK 924 INTRA-LIGAND FREE ENERGY PREDICTED BY IDOCK:   -1.37 KCAL/MOL
REMARK 927      BINDING AFFINITY PREDICTED BY RF-SCORE:    0.00 PKD
ROOT
HETATM    1  C   UNL     1     -11.104  11.777  63.981  1.00  0.00    -0.461 C  
HETATM    2  C   UNL     1     -12.360  12.382  64.574  1.00  0.00    -0.519 C  
ENDROOT
BRANCH   2   3
HETATM    3  C   UNL     1     -12.358  13.911  64.523  1.00  0.00    -0.408 C  
BRANCH   3   4
HETATM    4  C   UNL     1     -11.933  14.458  65.887  1.00  0.00    -0.367 C  
BRANCH   4   5
HETATM    5  C   UNL     1     -10.635  15.236  65.868  1.00  0.00    -0.335 C  
HETATM    6  N   UNL     1      -9.796  15.165  66.980  1.00  0.00    -0.228 N  
HETATM    7  O   UNL     1     -10.339  15.930  64.891  1.00  0.00    -0.517 OA 
BRANCH   6   8
HETATM    8  C   UNL     1     -10.104  14.307  68.161  1.00  0.00    -0.232 C  
BRANCH   8   9
HETATM    9  C   UNL     1     -10.234  12.825  67.854  1.00  0.00    -0.229 A  
HETATM   10  C   UNL     1     -11.333  12.104  68.322  1.00  0.00    -0.343 A  
HETATM   11  C   UNL     1     -11.312  10.700  68.328  1.00  0.00    -0.357 A  
HETATM   12  C   UNL     1     -10.248   9.952  67.793  1.00  0.00    -0.241 A  
HETATM   13  C   UNL     1      -9.255  12.102  67.167  1.00  0.00    -0.193 A  
HETATM   14  C   UNL     1      -9.274  10.696  67.109  1.00  0.00    -0.161 A  
BRANCH  12  15
HETATM   15  C   UNL     1     -10.185   8.461  67.973  1.00  0.00    -0.263 A  
HETATM   16  C   UNL     1     -10.764   7.664  66.942  1.00  0.00    -0.271 A  
HETATM   17  C   UNL     1     -10.906   6.279  67.030  1.00  0.00    -0.458 A  
HETATM   18  C   UNL     1     -10.427   5.614  68.143  1.00  0.00    -0.260 A  
HETATM   19  C   UNL     1      -9.809   6.346  69.154  1.00  0.00    -0.158 A  
HETATM   20  C   UNL     1      -9.679   7.759  69.102  1.00  0.00    -0.161 A  
BRANCH  20  21
HETATM   21  C   UNL     1      -9.038   8.347  70.277  1.00  0.00    -0.148 A  
HETATM   22  N   UNL     1      -7.788   8.856  70.265  1.00  0.00    -0.092 NA 
HETATM   23  N   UNL     1      -7.637   9.182  71.554  1.00  0.00    -0.341 NA 
HETATM   24  H   UNL     1      -7.137   8.963  69.488  1.00  0.00     0.000 HD 
HETATM   25  N   UNL     1      -8.691   8.942  72.344  1.00  0.00    -0.358 NA 
HETATM   26  N   UNL     1      -9.582   8.372  71.542  1.00  0.00    -0.187 NA 
ENDBRANCH  20  21
ENDBRANCH  12  15
ENDBRANCH   8   9
ENDBRANCH   6   8
BRANCH   6  27
HETATM   27  C   UNL     1      -8.415  15.772  66.920  1.00  0.00    -0.246 C  
HETATM   28  C   UNL     1      -7.217  15.130  67.690  1.00  0.00    -0.185 C  
HETATM   29  O   UNL     1      -6.071  15.159  67.245  1.00  0.00    -0.323 OA 
HETATM   30  C   UNL     1      -8.418  17.329  67.022  1.00  0.00    -0.240 C  
HETATM   31  O   UNL     1      -7.441  14.626  68.916  1.00  0.00    -0.120 OA 
HETATM   32  C   UNL     1      -9.163  17.905  68.221  1.00  0.00    -0.283 C  
HETATM   33  C   UNL     1      -7.038  17.974  66.875  1.00  0.00    -0.216 C  
ENDBRANCH   6  27
ENDBRANCH   4   5
ENDBRANCH   3   4
ENDBRANCH   2   3
TORSDOF 8
ENDMDL
MODEL       35
REMARK 921   NORMALIZED FREE ENERGY PREDICTED BY IDOCK:   -6.62 KCAL/MOL
REMARK 922        TOTAL FREE ENERGY PREDICTED BY IDOCK:  -10.25 KCAL/MOL
REMARK 923 INTER-LIGAND FREE ENERGY PREDICTED BY IDOCK:   -9.42 KCAL/MOL
REMARK 924 INTRA-LIGAND FREE ENERGY PREDICTED BY IDOCK:   -0.83 KCAL/MOL
REMARK 927      BINDING AFFINITY PREDICTED BY RF-SCORE:    0.00 PKD
ROOT
HETATM    1  C   UNL     1     -10.753  11.515  63.225  1.00  0.00    -0.374 C  
HETATM    2  C   UNL     1     -12.064  12.018  63.794  1.00  0.00    -0.599 C  
ENDROOT
BRANCH   2   3
HETATM    3  C   UNL     1     -12.314  13.495  63.479  1.00  0.00    -0.343 C  
BRANCH   3   4
HETATM    4  C   UNL     1     -12.410  14.278  64.789  1.00  0.00    -0.440 C  
BRANCH   4   5
HETATM    5  C   UNL     1     -11.542  15.516  64.839  1.00  0.00    -0.201 C  
HETATM    6  N   UNL     1     -10.897  15.834  66.033  1.00  0.00    -0.294 N  
HETATM    7  O   UNL     1     -11.426  16.236  63.842  1.00  0.00    -0.940 OA 
BRANCH   6   8
HETATM    8  C   UNL     1     -10.985  14.968  67.245  1.00  0.00    -0.326 C  
BRANCH   8   9
HETATM    9  C   UNL     1     -10.726  13.492  66.992  1.00  0.00    -0.278 A  
HETATM   10  C   UNL     1     -11.662  12.536  67.387  1.00  0.00    -0.432 A  
HETATM   11  C   UNL     1     -11.307  11.180  67.456  1.00  0.00    -0.351 A  
HETATM   12  C   UNL     1     -10.047  10.701  67.057  1.00  0.00    -0.255 A  
HETATM   13  C   UNL     1      -9.538  13.014  66.432  1.00  0.00    -0.258 A  
HETATM   14  C   UNL     1      -9.215  11.645  66.434  1.00  0.00    -0.219 A  
BRANCH  12  15
HETATM   15  C   UNL     1      -9.649   9.274  67.307  1.00  0.00    -0.200 A  
HETATM   16  C   UNL     1     -10.460   8.266  66.708  1.00  0.00    -0.313 A  
HETATM   17  C   UNL     1     -10.302   6.902  66.959  1.00  0.00    -0.348 A  
HETATM   18  C   UNL     1      -9.284   6.476  67.791  1.00  0.00    -0.113 A  
HETATM   19  C   UNL     1      -8.434   7.422  68.360  1.00  0.00    -0.125 A  
HETATM   20  C   UNL     1      -8.593   8.817  68.144  1.00  0.00    -0.134 A  
BRANCH  20  21
HETATM   21  C   UNL     1      -7.628   9.649  68.859  1.00  0.00    -0.076 A  
HETATM   22  N   UNL     1      -7.885  10.230  70.051  1.00  0.00    -0.328 NA 
HETATM   23  N   UNL     1      -6.759  10.927  70.239  1.00  0.00    -0.258 NA 
HETATM   24  H   UNL     1      -8.711  10.158  70.644  1.00  0.00     0.000 HD 
HETATM   25  N   UNL     1      -5.828  10.801  69.284  1.00  0.00    -0.041 NA 
HETATM   26  N   UNL     1      -6.391  10.013  68.377  1.00  0.00    -0.049 NA 
ENDBRANCH  20  21
ENDBRANCH  12  15
ENDBRANCH   8   9
ENDBRANCH   6   8
BRANCH   6  27
HETATM   27  C   UNL     1      -9.879  16.949  66.065  1.00  0.00    -0.258 C  
HETATM   28  C   UNL     1      -8.350  16.644  66.149  1.00  0.00    -0.270 C  
HETATM   29  O   UNL     1      -7.517  17.359  65.594  1.00  0.00    -0.408 OA 
HETATM   30  C   UNL     1     -10.297  18.142  66.982  1.00  0.00    -0.391 C  
HETATM   31  O   UNL     1      -7.941  15.632  66.932  1.00  0.00    -0.220 OA 
HETATM   32  C   UNL     1     -10.670  17.768  68.412  1.00  0.00    -0.205 C  
HETATM   33  C   UNL     1      -9.324  19.322  66.962  1.00  0.00    -0.373 C  
ENDBRANCH   6  27
ENDBRANCH   4   5
ENDBRANCH   3   4
ENDBRANCH   2   3
TORSDOF 8
ENDMDL
MODEL       36
REMARK 921   NORMALIZED FREE ENERGY PREDICTED BY IDOCK:   -6.60 KCAL/MOL
REMARK 922        TOTAL FREE ENERGY PREDICTED BY IDOCK:  -10.21 KCAL/MOL
REMARK 923 INTER-LIGAND FREE ENERGY PREDICTED BY IDOCK:  -10.39 KCAL/MOL
REMARK 924 INTRA-LIGAND FREE ENERGY PREDICTED BY IDOCK:    0.18 KCAL/MOL
REMARK 927      BINDING AFFINITY PREDICTED BY RF-SCORE:    0.00 PKD
ROOT
HETATM    1  C   UNL     1     -13.213   9.407  72.092  1.00  0.00    -0.541 C  
HETATM    2  C   UNL     1     -13.120  10.410  70.960  1.00  0.00    -0.450 C  
ENDROOT
BRANCH   2   3
HETATM    3  C   UNL     1     -11.678  10.827  70.661  1.00  0.00    -0.442 C  
BRANCH   3   4
HETATM    4  C   UNL     1     -11.683  11.926  69.598  1.00  0.00    -0.413 C  
BRANCH   4   5
HETATM    5  C   UNL     1     -11.674  11.414  68.174  1.00  0.00    -0.284 C  
HETATM    6  N   UNL     1     -11.915  12.315  67.138  1.00  0.00    -0.246 N  
HETATM    7  O   UNL     1     -11.473  10.218  67.943  1.00  0.00    -0.346 OA 
BRANCH   6   8
HETATM    8  C   UNL     1     -12.125  13.773  67.377  1.00  0.00    -0.343 C  
BRANCH   8   9
HETATM    9  C   UNL     1     -10.913  14.508  67.926  1.00  0.00    -0.277 A  
HETATM   10  C   UNL     1     -11.065  15.459  68.935  1.00  0.00    -0.275 A  
HETATM   11  C   UNL     1     -10.030  16.362  69.223  1.00  0.00    -0.259 A  
HETATM   12  C   UNL     1      -8.775  16.308  68.591  1.00  0.00    -0.226 A  
HETATM   13  C   UNL     1      -9.623  14.333  67.417  1.00  0.00    -0.214 A  
HETATM   14  C   UNL     1      -8.566  15.194  67.764  1.00  0.00    -0.157 A  
BRANCH  12  15
HETATM   15  C   UNL     1      -7.758  17.394  68.802  1.00  0.00    -0.258 A  
HETATM   16  C   UNL     1      -6.608  17.057  69.576  1.00  0.00    -0.194 A  
HETATM   17  C   UNL     1      -5.649  17.989  69.973  1.00  0.00    -0.242 A  
HETATM   18  C   UNL     1      -5.769  19.305  69.569  1.00  0.00    -0.258 A  
HETATM   19  C   UNL     1      -6.849  19.672  68.770  1.00  0.00    -0.362 A  
HETATM   20  C   UNL     1      -7.855  18.748  68.378  1.00  0.00    -0.351 A  
BRANCH  20  21
HETATM   21  C   UNL     1      -8.927  19.333  67.575  1.00  0.00    -0.298 A  
HETATM   22  N   UNL     1     -10.071  19.820  68.101  1.00  0.00    -0.432 NA 
HETATM   23  N   UNL     1     -10.738  20.153  66.991  1.00  0.00    -0.222 NA 
HETATM   24  H   UNL     1     -10.351  19.908  69.078  1.00  0.00     0.000 HD 
HETATM   25  N   UNL     1     -10.093  19.940  65.836  1.00  0.00    -0.453 NA 
HETATM   26  N   UNL     1      -8.945  19.380  66.199  1.00  0.00    -0.423 NA 
ENDBRANCH  20  21
ENDBRANCH  12  15
ENDBRANCH   8   9
ENDBRANCH   6   8
BRANCH   6  27
HETATM   27  C   UNL     1     -11.727  11.881  65.704  1.00  0.00    -0.145 C  
HETATM   28  C   UNL     1     -10.338  11.391  65.184  1.00  0.00    -0.290 C  
HETATM   29  O   UNL     1     -10.241  10.513  64.328  1.00  0.00    -0.344 OA 
HETATM   30  C   UNL     1     -12.451  12.806  64.676  1.00  0.00    -0.525 C  
HETATM   31  O   UNL     1      -9.234  12.022  65.617  1.00  0.00    -0.142 OA 
HETATM   32  C   UNL     1     -12.127  14.291  64.792  1.00  0.00    -0.457 C  
HETATM   33  C   UNL     1     -12.349  12.337  63.224  1.00  0.00    -0.518 C  
ENDBRANCH   6  27
ENDBRANCH   4   5
ENDBRANCH   3   4
ENDBRANCH   2   3
TORSDOF 8
ENDMDL
MODEL       37
REMARK 921   NORMALIZED FREE ENERGY PREDICTED BY IDOCK:   -6.59 KCAL/MOL
REMARK 922        TOTAL FREE ENERGY PREDICTED BY IDOCK:  -10.20 KCAL/MOL
REMARK 923 INTER-LIGAND FREE ENERGY PREDICTED BY IDOCK:  -10.30 KCAL/MOL
REMARK 924 INTRA-LIGAND FREE ENERGY PREDICTED BY IDOCK:    0.10 KCAL/MOL
REMARK 927      BINDING AFFINITY PREDICTED BY RF-SCORE:    0.00 PKD
ROOT
HETATM    1  C   UNL     1     -12.920  10.057  71.172  1.00  0.00    -0.478 C  
HETATM    2  C   UNL     1     -12.039  11.130  70.563  1.00  0.00    -0.474 C  
ENDROOT
BRANCH   2   3
HETATM    3  C   UNL     1     -10.806  10.552  69.866  1.00  0.00    -0.334 C  
BRANCH   3   4
HETATM    4  C   UNL     1     -10.002  11.693  69.241  1.00  0.00     0.222 C  
BRANCH   4   5
HETATM    5  C   UNL     1     -10.645  12.312  68.019  1.00  0.00    -0.216 C  
HETATM    6  N   UNL     1     -11.197  13.587  68.127  1.00  0.00    -0.259 N  
HETATM    7  O   UNL     1     -10.690  11.687  66.955  1.00  0.00    -0.229 OA 
BRANCH   6   8
HETATM    8  C   UNL     1     -11.127  14.385  69.386  1.00  0.00    -0.261 C  
BRANCH   8   9
HETATM    9  C   UNL     1     -10.186  15.577  69.331  1.00  0.00    -0.262 A  
HETATM   10  C   UNL     1     -10.692  16.865  69.157  1.00  0.00    -0.298 A  
HETATM   11  C   UNL     1      -9.843  17.919  68.787  1.00  0.00    -0.354 A  
HETATM   12  C   UNL     1      -8.450  17.766  68.660  1.00  0.00    -0.271 A  
HETATM   13  C   UNL     1      -8.795  15.450  69.379  1.00  0.00    -0.251 A  
HETATM   14  C   UNL     1      -7.941  16.528  69.080  1.00  0.00    -0.182 A  
BRANCH  12  15
HETATM   15  C   UNL     1      -7.601  18.870  68.097  1.00  0.00    -0.305 A  
HETATM   16  C   UNL     1      -7.824  19.222  66.733  1.00  0.00    -0.276 A  
HETATM   17  C   UNL     1      -7.026  20.127  66.032  1.00  0.00    -0.291 A  
HETATM   18  C   UNL     1      -5.987  20.765  66.683  1.00  0.00    -0.272 A  
HETATM   19  C   UNL     1      -5.761  20.491  68.030  1.00  0.00    -0.290 A  
HETATM   20  C   UNL     1      -6.541  19.551  68.757  1.00  0.00    -0.330 A  
BRANCH  20  21
HETATM   21  C   UNL     1      -6.123  19.373  70.146  1.00  0.00    -0.230 A  
HETATM   22  N   UNL     1      -6.354  20.284  71.116  1.00  0.00    -0.491 NA 
HETATM   23  N   UNL     1      -5.728  19.715  72.151  1.00  0.00    -0.332 NA 
HETATM   24  H   UNL     1      -6.865  21.166  71.070  1.00  0.00     0.000 HD 
HETATM   25  N   UNL     1      -5.160  18.527  71.908  1.00  0.00    -0.744 NA 
HETATM   26  N   UNL     1      -5.376  18.316  70.615  1.00  0.00    -0.259 NA 
ENDBRANCH  20  21
ENDBRANCH  12  15
ENDBRANCH   8   9
ENDBRANCH   6   8
BRANCH   6  27
HETATM   27  C   UNL     1     -11.675  14.307  66.889  1.00  0.00    -0.408 C  
HETATM   28  C   UNL     1     -12.636  13.614  65.872  1.00  0.00    -0.425 C  
HETATM   29  O   UNL     1     -13.492  14.246  65.257  1.00  0.00    -0.564 OA 
HETATM   30  C   UNL     1     -10.554  15.129  66.179  1.00  0.00    -0.318 C  
HETATM   31  O   UNL     1     -12.445  12.312  65.597  1.00  0.00    -0.591 OA 
HETATM   32  C   UNL     1      -9.286  14.351  65.843  1.00  0.00    -0.100 C  
HETATM   33  C   UNL     1     -11.033  15.938  64.972  1.00  0.00    -0.426 C  
ENDBRANCH   6  27
ENDBRANCH   4   5
ENDBRANCH   3   4
ENDBRANCH   2   3
TORSDOF 8
ENDMDL
MODEL       38
REMARK 921   NORMALIZED FREE ENERGY PREDICTED BY IDOCK:   -6.58 KCAL/MOL
REMARK 922        TOTAL FREE ENERGY PREDICTED BY IDOCK:  -10.19 KCAL/MOL
REMARK 923 INTER-LIGAND FREE ENERGY PREDICTED BY IDOCK:   -9.38 KCAL/MOL
REMARK 924 INTRA-LIGAND FREE ENERGY PREDICTED BY IDOCK:   -0.81 KCAL/MOL
REMARK 927      BINDING AFFINITY PREDICTED BY RF-SCORE:    0.00 PKD
ROOT
HETATM    1  C   UNL     1     -13.646  13.872  72.456  1.00  0.00    -0.680 C  
HETATM    2  C   UNL     1     -13.240  15.286  72.817  1.00  0.00    -0.583 C  
ENDROOT
BRANCH   2   3
HETATM    3  C   UNL     1     -12.310  15.914  71.776  1.00  0.00    -0.533 C  
BRANCH   3   4
HETATM    4  C   UNL     1     -11.539  14.806  71.058  1.00  0.00    -0.313 C  
BRANCH   4   5
HETATM    5  C   UNL     1     -11.253  15.091  69.599  1.00  0.00    -0.275 C  
HETATM    6  N   UNL     1     -11.732  14.203  68.638  1.00  0.00    -0.329 N  
HETATM    7  O   UNL     1     -10.593  16.083  69.277  1.00  0.00    -0.226 OA 
BRANCH   6   8
HETATM    8  C   UNL     1     -12.564  13.015  68.989  1.00  0.00     0.610 C  
BRANCH   8   9
HETATM    9  C   UNL     1     -11.784  11.835  69.544  1.00  0.00    -0.408 A  
HETATM   10  C   UNL     1     -10.697  11.317  68.840  1.00  0.00    -0.246 A  
HETATM   11  C   UNL     1     -10.177  10.055  69.165  1.00  0.00    -0.224 A  
HETATM   12  C   UNL     1     -10.646   9.294  70.251  1.00  0.00    -0.278 A  
HETATM   13  C   UNL     1     -12.142  11.175  70.723  1.00  0.00    -0.458 A  
HETATM   14  C   UNL     1     -11.565   9.944  71.088  1.00  0.00    -0.468 A  
BRANCH  12  15
HETATM   15  C   UNL     1     -10.182   7.880  70.460  1.00  0.00    -0.198 A  
HETATM   16  C   UNL     1     -11.137   6.848  70.226  1.00  0.00    -0.342 A  
HETATM   17  C   UNL     1     -10.900   5.502  70.508  1.00  0.00    -0.266 A  
HETATM   18  C   UNL     1      -9.666   5.116  70.997  1.00  0.00    -0.245 A  
HETATM   19  C   UNL     1      -8.684   6.083  71.195  1.00  0.00    -0.132 A  
HETATM   20  C   UNL     1      -8.911   7.462  70.944  1.00  0.00    -0.148 A  
BRANCH  20  21
HETATM   21  C   UNL     1      -7.771   8.324  71.251  1.00  0.00    -0.099 A  
HETATM   22  N   UNL     1      -6.863   8.713  70.330  1.00  0.00    -0.040 NA 
HETATM   23  N   UNL     1      -6.004   9.395  71.096  1.00  0.00    -0.067 NA 
HETATM   24  H   UNL     1      -6.838   8.534  69.327  1.00  0.00     0.000 HD 
HETATM   25  N   UNL     1      -6.321   9.480  72.395  1.00  0.00    -0.233 NA 
HETATM   26  N   UNL     1      -7.433   8.765  72.511  1.00  0.00    -0.350 NA 
ENDBRANCH  20  21
ENDBRANCH  12  15
ENDBRANCH   8   9
ENDBRANCH   6   8
BRANCH   6  27
HETATM   27  C   UNL     1     -11.629  14.554  67.172  1.00  0.00    -0.388 C  
HETATM   28  C   UNL     1     -12.404  13.737  66.091  1.00  0.00    -0.452 C  
HETATM   29  O   UNL     1     -12.852  14.268  65.076  1.00  0.00    -0.674 OA 
HETATM   30  C   UNL     1     -10.177  14.906  66.720  1.00  0.00    -0.259 C  
HETATM   31  O   UNL     1     -12.491  12.404  66.235  1.00  0.00    -0.462 OA 
HETATM   32  C   UNL     1      -9.116  13.865  67.058  1.00  0.00    -0.259 C  
HETATM   33  C   UNL     1     -10.061  15.350  65.261  1.00  0.00    -0.354 C  
ENDBRANCH   6  27
ENDBRANCH   4   5
ENDBRANCH   3   4
ENDBRANCH   2   3
TORSDOF 8
ENDMDL
MODEL       39
REMARK 921   NORMALIZED FREE ENERGY PREDICTED BY IDOCK:   -6.58 KCAL/MOL
REMARK 922        TOTAL FREE ENERGY PREDICTED BY IDOCK:  -10.18 KCAL/MOL
REMARK 923 INTER-LIGAND FREE ENERGY PREDICTED BY IDOCK:   -8.61 KCAL/MOL
REMARK 924 INTRA-LIGAND FREE ENERGY PREDICTED BY IDOCK:   -1.56 KCAL/MOL
REMARK 927      BINDING AFFINITY PREDICTED BY RF-SCORE:    0.00 PKD
ROOT
HETATM    1  C   UNL     1      -9.690  11.318  63.253  1.00  0.00    -0.405 C  
HETATM    2  C   UNL     1     -11.205  11.357  63.264  1.00  0.00    -0.152 C  
ENDROOT
BRANCH   2   3
HETATM    3  C   UNL     1     -11.756  12.608  63.951  1.00  0.00    -0.532 C  
BRANCH   3   4
HETATM    4  C   UNL     1     -10.592  13.436  64.497  1.00  0.00    -0.441 C  
BRANCH   4   5
HETATM    5  C   UNL     1     -10.944  14.291  65.695  1.00  0.00    -0.309 C  
HETATM    6  N   UNL     1     -10.179  14.167  66.854  1.00  0.00    -0.264 N  
HETATM    7  O   UNL     1     -11.901  15.069  65.645  1.00  0.00    -0.212 OA 
BRANCH   6   8
HETATM    8  C   UNL     1      -8.993  13.264  66.937  1.00  0.00    -0.207 C  
BRANCH   8   9
HETATM    9  C   UNL     1      -9.269  11.911  67.571  1.00  0.00    -0.177 A  
HETATM   10  C   UNL     1     -10.337  11.131  67.127  1.00  0.00    -0.249 A  
HETATM   11  C   UNL     1     -10.796  10.051  67.896  1.00  0.00    -0.323 A  
HETATM   12  C   UNL     1     -10.169   9.642  69.087  1.00  0.00    -0.212 A  
HETATM   13  C   UNL     1      -8.534  11.413  68.651  1.00  0.00    -0.131 A  
HETATM   14  C   UNL     1      -8.956  10.284  69.377  1.00  0.00    -0.190 A  
BRANCH  12  15
HETATM   15  C   UNL     1     -10.791   8.594  69.967  1.00  0.00    -0.226 A  
HETATM   16  C   UNL     1     -11.390   9.046  71.179  1.00  0.00    -0.375 A  
HETATM   17  C   UNL     1     -11.883   8.185  72.160  1.00  0.00    -0.417 A  
HETATM   18  C   UNL     1     -11.844   6.819  71.950  1.00  0.00    -0.366 A  
HETATM   19  C   UNL     1     -11.313   6.333  70.758  1.00  0.00    -0.397 A  
HETATM   20  C   UNL     1     -10.777   7.187  69.758  1.00  0.00    -0.257 A  
BRANCH  20  21
HETATM   21  C   UNL     1     -10.231   6.485  68.598  1.00  0.00    -0.172 A  
HETATM   22  N   UNL     1      -8.997   5.938  68.573  1.00  0.00    -0.114 NA 
HETATM   23  N   UNL     1      -8.940   5.502  67.310  1.00  0.00    -0.112 NA 
HETATM   24  H   UNL     1      -8.299   5.874  69.315  1.00  0.00     0.000 HD 
HETATM   25  N   UNL     1     -10.037   5.710  66.571  1.00  0.00    -0.181 NA 
HETATM   26  N   UNL     1     -10.857   6.373  67.377  1.00  0.00    -0.334 NA 
ENDBRANCH  20  21
ENDBRANCH  12  15
ENDBRANCH   8   9
ENDBRANCH   6   8
BRANCH   6  27
HETATM   27  C   UNL     1     -10.381  15.133  67.996  1.00  0.00    -0.240 C  
HETATM   28  C   UNL     1      -9.168  15.688  68.808  1.00  0.00    -0.211 C  
HETATM   29  O   UNL     1      -9.164  16.829  69.268  1.00  0.00    -0.188 OA 
HETATM   30  C   UNL     1     -11.588  14.764  68.914  1.00  0.00    -0.340 C  
HETATM   31  O   UNL     1      -8.151  14.855  69.090  1.00  0.00    -0.167 OA 
HETATM   32  C   UNL     1     -11.582  13.341  69.462  1.00  0.00    -0.349 C  
HETATM   33  C   UNL     1     -11.867  15.776  70.027  1.00  0.00    -0.365 C  
ENDBRANCH   6  27
ENDBRANCH   4   5
ENDBRANCH   3   4
ENDBRANCH   2   3
TORSDOF 8
ENDMDL
MODEL       40
REMARK 921   NORMALIZED FREE ENERGY PREDICTED BY IDOCK:   -6.56 KCAL/MOL
REMARK 922        TOTAL FREE ENERGY PREDICTED BY IDOCK:  -10.16 KCAL/MOL
REMARK 923 INTER-LIGAND FREE ENERGY PREDICTED BY IDOCK:   -8.60 KCAL/MOL
REMARK 924 INTRA-LIGAND FREE ENERGY PREDICTED BY IDOCK:   -1.56 KCAL/MOL
REMARK 927      BINDING AFFINITY PREDICTED BY RF-SCORE:    0.00 PKD
ROOT
HETATM    1  C   UNL     1      -6.493  10.367  66.814  1.00  0.00    -0.076 C  
HETATM    2  C   UNL     1      -7.197  11.525  67.493  1.00  0.00    -0.111 C  
ENDROOT
BRANCH   2   3
HETATM    3  C   UNL     1      -7.474  11.258  68.974  1.00  0.00    -0.116 C  
BRANCH   3   4
HETATM    4  C   UNL     1      -6.982   9.855  69.332  1.00  0.00    -0.063 C  
BRANCH   4   5
HETATM    5  C   UNL     1      -7.817   9.151  70.379  1.00  0.00    -0.133 C  
HETATM    6  N   UNL     1      -8.777   8.230  69.962  1.00  0.00    -0.132 N  
HETATM    7  O   UNL     1      -7.657   9.403  71.577  1.00  0.00    -0.329 OA 
BRANCH   6   8
HETATM    8  C   UNL     1      -8.973   7.873  68.526  1.00  0.00    -0.133 C  
BRANCH   8   9
HETATM    9  C   UNL     1      -9.843   8.843  67.743  1.00  0.00    -0.208 A  
HETATM   10  C   UNL     1      -9.709   8.946  66.359  1.00  0.00    -0.332 A  
HETATM   11  C   UNL     1     -10.258  10.040  65.671  1.00  0.00    -0.258 A  
HETATM   12  C   UNL     1     -11.035  11.026  66.305  1.00  0.00    -0.184 A  
HETATM   13  C   UNL     1     -10.751   9.713  68.353  1.00  0.00    -0.251 A  
HETATM   14  C   UNL     1     -11.360  10.765  67.645  1.00  0.00    -0.328 A  
BRANCH  12  15
HETATM   15  C   UNL     1     -11.459  12.266  65.569  1.00  0.00    -0.408 A  
HETATM   16  C   UNL     1     -11.704  12.131  64.171  1.00  0.00    -0.478 A  
HETATM   17  C   UNL     1     -11.969  13.213  63.330  1.00  0.00    -0.552 A  
HETATM   18  C   UNL     1     -12.050  14.486  63.862  1.00  0.00    -0.135 A  
HETATM   19  C   UNL     1     -11.866  14.660  65.232  1.00  0.00    -0.324 A  
HETATM   20  C   UNL     1     -11.566  13.580  66.104  1.00  0.00    -0.371 A  
BRANCH  20  21
HETATM   21  C   UNL     1     -11.369  13.971  67.498  1.00  0.00    -0.321 A  
HETATM   22  N   UNL     1     -12.385  14.233  68.348  1.00  0.00    -0.577 NA 
HETATM   23  N   UNL     1     -11.710  14.614  69.438  1.00  0.00    -0.298 NA 
HETATM   24  H   UNL     1     -13.392  14.162  68.199  1.00  0.00     0.000 HD 
HETATM   25  N   UNL     1     -10.375  14.581  69.339  1.00  0.00    -0.141 NA 
HETATM   26  N   UNL     1     -10.147  14.205  68.086  1.00  0.00    -0.232 NA 
ENDBRANCH  20  21
ENDBRANCH  12  15
ENDBRANCH   8   9
ENDBRANCH   6   8
BRANCH   6  27
HETATM   27  C   UNL     1      -9.493   7.375  70.980  1.00  0.00    -0.157 C  
HETATM   28  C   UNL     1     -10.301   6.111  70.547  1.00  0.00    -0.215 C  
HETATM   29  O   UNL     1     -10.366   5.109  71.258  1.00  0.00    -0.217 OA 
HETATM   30  C   UNL     1     -10.234   8.205  72.075  1.00  0.00    -0.316 C  
HETATM   31  O   UNL     1     -11.020   6.168  69.414  1.00  0.00    -0.314 OA 
HETATM   32  C   UNL     1     -11.196   9.265  71.552  1.00  0.00    -0.457 C  
HETATM   33  C   UNL     1     -10.893   7.361  73.168  1.00  0.00    -0.435 C  
ENDBRANCH   6  27
ENDBRANCH   4   5
ENDBRANCH   3   4
ENDBRANCH   2   3
TORSDOF 8
ENDMDL
MODEL       41
REMARK 921   NORMALIZED FREE ENERGY PREDICTED BY IDOCK:   -6.56 KCAL/MOL
REMARK 922        TOTAL FREE ENERGY PREDICTED BY IDOCK:  -10.15 KCAL/MOL
REMARK 923 INTER-LIGAND FREE ENERGY PREDICTED BY IDOCK:   -9.34 KCAL/MOL
REMARK 924 INTRA-LIGAND FREE ENERGY PREDICTED BY IDOCK:   -0.81 KCAL/MOL
REMARK 927      BINDING AFFINITY PREDICTED BY RF-SCORE:    0.00 PKD
ROOT
HETATM    1  C   UNL     1      -8.184  11.309  66.665  1.00  0.00    -0.164 C  
HETATM    2  C   UNL     1      -8.000  11.964  68.019  1.00  0.00    -0.147 C  
ENDROOT
BRANCH   2   3
HETATM    3  C   UNL     1      -7.476  10.990  69.077  1.00  0.00    -0.129 C  
BRANCH   3   4
HETATM    4  C   UNL     1      -7.446   9.579  68.489  1.00  0.00    -0.080 C  
BRANCH   4   5
HETATM    5  C   UNL     1      -7.569   8.474  69.516  1.00  0.00    -0.089 C  
HETATM    6  N   UNL     1      -8.784   7.801  69.633  1.00  0.00    -0.135 N  
HETATM    7  O   UNL     1      -6.612   8.190  70.243  1.00  0.00    -0.036 OA 
BRANCH   6   8
HETATM    8  C   UNL     1      -9.948   8.092  68.747  1.00  0.00    -0.189 C  
BRANCH   8   9
HETATM    9  C   UNL     1     -10.857   9.207  69.237  1.00  0.00    -0.150 A  
HETATM   10  C   UNL     1     -11.239  10.234  68.374  1.00  0.00    -0.284 A  
HETATM   11  C   UNL     1     -11.798  11.417  68.881  1.00  0.00    -0.413 A  
HETATM   12  C   UNL     1     -12.086  11.600  70.245  1.00  0.00    -0.443 A  
HETATM   13  C   UNL     1     -11.294   9.304  70.562  1.00  0.00    -0.306 A  
HETATM   14  C   UNL     1     -11.923  10.464  71.051  1.00  0.00    -0.481 A  
BRANCH  12  15
HETATM   15  C   UNL     1     -12.523  12.940  70.768  1.00  0.00    -0.370 A  
HETATM   16  C   UNL     1     -13.250  12.945  71.995  1.00  0.00    -0.549 A  
HETATM   17  C   UNL     1     -13.839  14.089  72.535  1.00  0.00    -0.610 A  
HETATM   18  C   UNL     1     -13.685  15.303  71.891  1.00  0.00    -0.601 A  
HETATM   19  C   UNL     1     -12.941  15.356  70.715  1.00  0.00    -0.510 A  
HETATM   20  C   UNL     1     -12.357  14.200  70.130  1.00  0.00    -0.413 A  
BRANCH  20  21
HETATM   21  C   UNL     1     -11.649  14.455  68.877  1.00  0.00    -0.306 A  
HETATM   22  N   UNL     1     -12.243  14.410  67.665  1.00  0.00    -0.623 NA 
HETATM   23  N   UNL     1     -11.194  14.624  66.863  1.00  0.00    -0.334 NA 
HETATM   24  H   UNL     1     -13.222  14.256  67.427  1.00  0.00     0.000 HD 
HETATM   25  N   UNL     1     -10.020  14.822  67.477  1.00  0.00    -0.219 NA 
HETATM   26  N   UNL     1     -10.295  14.678  68.768  1.00  0.00    -0.243 NA 
ENDBRANCH  20  21
ENDBRANCH  12  15
ENDBRANCH   8   9
ENDBRANCH   6   8
BRANCH   6  27
HETATM   27  C   UNL     1      -8.884   6.575  70.509  1.00  0.00    -0.151 C  
HETATM   28  C   UNL     1     -10.038   5.540  70.318  1.00  0.00    -0.237 C  
HETATM   29  O   UNL     1      -9.866   4.337  70.513  1.00  0.00    -0.200 OA 
HETATM   30  C   UNL     1      -8.590   6.863  72.014  1.00  0.00    -0.121 C  
HETATM   31  O   UNL     1     -11.268   5.997  70.033  1.00  0.00    -0.372 OA 
HETATM   32  C   UNL     1      -9.410   7.988  72.637  1.00  0.00    -0.314 C  
HETATM   33  C   UNL     1      -8.599   5.621  72.908  1.00  0.00    -0.122 C  
ENDBRANCH   6  27
ENDBRANCH   4   5
ENDBRANCH   3   4
ENDBRANCH   2   3
TORSDOF 8
ENDMDL
MODEL       42
REMARK 921   NORMALIZED FREE ENERGY PREDICTED BY IDOCK:   -6.55 KCAL/MOL
REMARK 922        TOTAL FREE ENERGY PREDICTED BY IDOCK:  -10.14 KCAL/MOL
REMARK 923 INTER-LIGAND FREE ENERGY PREDICTED BY IDOCK:   -8.69 KCAL/MOL
REMARK 924 INTRA-LIGAND FREE ENERGY PREDICTED BY IDOCK:   -1.45 KCAL/MOL
REMARK 927      BINDING AFFINITY PREDICTED BY RF-SCORE:    0.00 PKD
ROOT
HETATM    1  C   UNL     1      -8.047  12.233  67.217  1.00  0.00    -0.182 C  
HETATM    2  C   UNL     1      -8.063  12.171  68.730  1.00  0.00     0.033 C  
ENDROOT
BRANCH   2   3
HETATM    3  C   UNL     1      -7.446  10.879  69.272  1.00  0.00    -0.124 C  
BRANCH   3   4
HETATM    4  C   UNL     1      -7.281   9.882  68.125  1.00  0.00    -0.078 C  
BRANCH   4   5
HETATM    5  C   UNL     1      -7.666   8.461  68.476  1.00  0.00    -0.104 C  
HETATM    6  N   UNL     1      -8.929   8.000  68.109  1.00  0.00    -0.135 N  
HETATM    7  O   UNL     1      -6.877   7.735  69.088  1.00  0.00    -0.047 OA 
BRANCH   6   8
HETATM    8  C   UNL     1      -9.893   8.836  67.336  1.00  0.00    -0.194 C  
BRANCH   8   9
HETATM    9  C   UNL     1     -10.739   9.775  68.180  1.00  0.00    -0.280 A  
HETATM   10  C   UNL     1     -11.392  10.857  67.588  1.00  0.00    -0.345 A  
HETATM   11  C   UNL     1     -11.900  11.899  68.379  1.00  0.00    -0.352 A  
HETATM   12  C   UNL     1     -11.865  11.876  69.784  1.00  0.00    -0.411 A  
HETATM   13  C   UNL     1     -10.851   9.657  69.568  1.00  0.00    -0.253 A  
HETATM   14  C   UNL     1     -11.430  10.670  70.355  1.00  0.00    -0.422 A  
BRANCH  12  15
HETATM   15  C   UNL     1     -12.263  13.083  70.586  1.00  0.00    -0.390 A  
HETATM   16  C   UNL     1     -13.225  12.881  71.619  1.00  0.00    -0.416 A  
HETATM   17  C   UNL     1     -13.794  13.922  72.354  1.00  0.00    -0.668 A  
HETATM   18  C   UNL     1     -13.387  15.222  72.121  1.00  0.00    -0.519 A  
HETATM   19  C   UNL     1     -12.412  15.463  71.157  1.00  0.00    -0.463 A  
HETATM   20  C   UNL     1     -11.840  14.425  70.375  1.00  0.00    -0.381 A  
BRANCH  20  21
HETATM   21  C   UNL     1     -10.864  14.884  69.388  1.00  0.00    -0.264 A  
HETATM   22  N   UNL     1      -9.575  15.154  69.686  1.00  0.00    -0.436 NA 
HETATM   23  N   UNL     1      -9.132  15.603  68.507  1.00  0.00    -0.189 NA 
HETATM   24  H   UNL     1      -9.076  15.045  70.569  1.00  0.00     0.000 HD 
HETATM   25  N   UNL     1     -10.027  15.606  67.510  1.00  0.00    -0.229 NA 
HETATM   26  N   UNL     1     -11.151  15.182  68.075  1.00  0.00    -0.295 NA 
ENDBRANCH  20  21
ENDBRANCH  12  15
ENDBRANCH   8   9
ENDBRANCH   6   8
BRANCH   6  27
HETATM   27  C   UNL     1      -9.274   6.539  68.273  1.00  0.00    -0.116 C  
HETATM   28  C   UNL     1     -10.315   5.845  67.338  1.00  0.00    -0.220 C  
HETATM   29  O   UNL     1     -10.201   4.667  67.004  1.00  0.00    -0.196 OA 
HETATM   30  C   UNL     1      -9.435   6.104  69.763  1.00  0.00    -0.168 C  
HETATM   31  O   UNL     1     -11.411   6.534  66.978  1.00  0.00    -0.342 OA 
HETATM   32  C   UNL     1     -10.408   6.940  70.587  1.00  0.00    -0.220 C  
HETATM   33  C   UNL     1      -9.697   4.609  69.959  1.00  0.00    -0.277 C  
ENDBRANCH   6  27
ENDBRANCH   4   5
ENDBRANCH   3   4
ENDBRANCH   2   3
TORSDOF 8
ENDMDL
MODEL       43
REMARK 921   NORMALIZED FREE ENERGY PREDICTED BY IDOCK:   -6.52 KCAL/MOL
REMARK 922        TOTAL FREE ENERGY PREDICTED BY IDOCK:  -10.09 KCAL/MOL
REMARK 923 INTER-LIGAND FREE ENERGY PREDICTED BY IDOCK:   -9.04 KCAL/MOL
REMARK 924 INTRA-LIGAND FREE ENERGY PREDICTED BY IDOCK:   -1.05 KCAL/MOL
REMARK 927      BINDING AFFINITY PREDICTED BY RF-SCORE:    0.00 PKD
ROOT
HETATM    1  C   UNL     1     -13.024  15.682  73.473  1.00  0.00    -0.679 C  
HETATM    2  C   UNL     1     -13.478  14.896  72.260  1.00  0.00    -0.510 C  
ENDROOT
BRANCH   2   3
HETATM    3  C   UNL     1     -12.306  14.361  71.433  1.00  0.00    -0.433 C  
BRANCH   3   4
HETATM    4  C   UNL     1     -12.677  14.406  69.950  1.00  0.00    -0.107 C  
BRANCH   4   5
HETATM    5  C   UNL     1     -11.694  15.167  69.086  1.00  0.00    -0.325 C  
HETATM    6  N   UNL     1     -11.439  14.703  67.796  1.00  0.00    -0.325 N  
HETATM    7  O   UNL     1     -11.123  16.168  69.527  1.00  0.00    -0.304 OA 
BRANCH   6   8
HETATM    8  C   UNL     1     -12.139  13.518  67.218  1.00  0.00    -0.323 C  
BRANCH   8   9
HETATM    9  C   UNL     1     -11.453  12.187  67.477  1.00  0.00    -0.410 A  
HETATM   10  C   UNL     1     -11.046  11.844  68.766  1.00  0.00    -0.296 A  
HETATM   11  C   UNL     1     -10.143  10.790  68.970  1.00  0.00    -0.225 A  
HETATM   12  C   UNL     1      -9.675   9.975  67.923  1.00  0.00    -0.168 A  
HETATM   13  C   UNL     1     -11.136  11.285  66.457  1.00  0.00    -0.280 A  
HETATM   14  C   UNL     1     -10.289  10.183  66.679  1.00  0.00    -0.274 A  
BRANCH  12  15
HETATM   15  C   UNL     1      -8.581   8.971  68.157  1.00  0.00    -0.130 A  
HETATM   16  C   UNL     1      -7.355   9.181  67.459  1.00  0.00    -0.084 A  
HETATM   17  C   UNL     1      -6.301   8.267  67.465  1.00  0.00    -0.057 A  
HETATM   18  C   UNL     1      -6.406   7.111  68.216  1.00  0.00    -0.040 A  
HETATM   19  C   UNL     1      -7.565   6.887  68.955  1.00  0.00    -0.105 A  
HETATM   20  C   UNL     1      -8.664   7.787  68.941  1.00  0.00    -0.135 A  
BRANCH  20  21
HETATM   21  C   UNL     1      -9.803   7.356  69.748  1.00  0.00    -0.171 A  
HETATM   22  N   UNL     1      -9.799   7.349  71.098  1.00  0.00    -0.175 NA 
HETATM   23  N   UNL     1     -10.997   6.811  71.351  1.00  0.00    -0.236 NA 
HETATM   24  H   UNL     1      -9.080   7.668  71.747  1.00  0.00     0.000 HD 
HETATM   25  N   UNL     1     -11.742   6.514  70.279  1.00  0.00    -0.410 NA 
HETATM   26  N   UNL     1     -10.970   6.825  69.245  1.00  0.00    -0.262 NA 
ENDBRANCH  20  21
ENDBRANCH  12  15
ENDBRANCH   8   9
ENDBRANCH   6   8
BRANCH   6  27
HETATM   27  C   UNL     1     -10.614  15.538  66.846  1.00  0.00    -0.307 C  
HETATM   28  C   UNL     1     -10.949  15.592  65.321  1.00  0.00    -0.380 C  
HETATM   29  O   UNL     1     -10.775  16.612  64.657  1.00  0.00    -0.742 OA 
HETATM   30  C   UNL     1      -9.079  15.446  67.112  1.00  0.00    -0.236 C  
HETATM   31  O   UNL     1     -11.341  14.461  64.711  1.00  0.00    -0.361 OA 
HETATM   32  C   UNL     1      -8.507  14.033  67.158  1.00  0.00    -0.207 C  
HETATM   33  C   UNL     1      -8.229  16.351  66.219  1.00  0.00    -0.343 C  
ENDBRANCH   6  27
ENDBRANCH   4   5
ENDBRANCH   3   4
ENDBRANCH   2   3
TORSDOF 8
ENDMDL
MODEL       44
REMARK 921   NORMALIZED FREE ENERGY PREDICTED BY IDOCK:   -6.51 KCAL/MOL
REMARK 922        TOTAL FREE ENERGY PREDICTED BY IDOCK:  -10.08 KCAL/MOL
REMARK 923 INTER-LIGAND FREE ENERGY PREDICTED BY IDOCK:   -9.38 KCAL/MOL
REMARK 924 INTRA-LIGAND FREE ENERGY PREDICTED BY IDOCK:   -0.70 KCAL/MOL
REMARK 927      BINDING AFFINITY PREDICTED BY RF-SCORE:    0.00 PKD
ROOT
HETATM    1  C   UNL     1     -13.936   8.853  72.383  1.00  0.00    -0.516 C  
HETATM    2  C   UNL     1     -13.634   9.605  71.103  1.00  0.00    -0.232 C  
ENDROOT
BRANCH   2   3
HETATM    3  C   UNL     1     -12.931  10.941  71.357  1.00  0.00    -0.527 C  
BRANCH   3   4
HETATM    4  C   UNL     1     -11.843  11.144  70.303  1.00  0.00    -0.455 C  
BRANCH   4   5
HETATM    5  C   UNL     1     -10.797  10.051  70.268  1.00  0.00    -0.313 C  
HETATM    6  N   UNL     1     -10.496   9.452  69.046  1.00  0.00    -0.213 N  
HETATM    7  O   UNL     1     -10.238   9.691  71.308  1.00  0.00    -0.245 OA 
BRANCH   6   8
HETATM    8  C   UNL     1     -11.125   9.886  67.765  1.00  0.00    -0.129 C  
BRANCH   8   9
HETATM    9  C   UNL     1     -10.842  11.327  67.374  1.00  0.00    -0.311 A  
HETATM   10  C   UNL     1      -9.568  11.867  67.556  1.00  0.00    -0.175 A  
HETATM   11  C   UNL     1      -9.371  13.255  67.507  1.00  0.00    -0.218 A  
HETATM   12  C   UNL     1     -10.400  14.160  67.191  1.00  0.00    -0.265 A  
HETATM   13  C   UNL     1     -11.827  12.192  66.891  1.00  0.00    -0.295 A  
HETATM   14  C   UNL     1     -11.605  13.577  66.771  1.00  0.00    -0.397 A  
BRANCH  12  15
HETATM   15  C   UNL     1     -10.190  15.643  67.317  1.00  0.00    -0.266 A  
HETATM   16  C   UNL     1      -9.432  16.275  66.289  1.00  0.00    -0.347 A  
HETATM   17  C   UNL     1      -9.037  17.612  66.336  1.00  0.00    -0.257 A  
HETATM   18  C   UNL     1      -9.427  18.401  67.403  1.00  0.00    -0.277 A  
HETATM   19  C   UNL     1     -10.212  17.840  68.407  1.00  0.00    -0.384 A  
HETATM   20  C   UNL     1     -10.601  16.473  68.397  1.00  0.00    -0.323 A  
BRANCH  20  21
HETATM   21  C   UNL     1     -11.388  16.065  69.559  1.00  0.00    -0.344 A  
HETATM   22  N   UNL     1     -12.575  15.428  69.467  1.00  0.00    -0.614 NA 
HETATM   23  N   UNL     1     -12.919  15.351  70.757  1.00  0.00    -0.465 NA 
HETATM   24  H   UNL     1     -13.072  15.097  68.641  1.00  0.00     0.000 HD 
HETATM   25  N   UNL     1     -12.038  15.859  71.628  1.00  0.00    -0.448 NA 
HETATM   26  N   UNL     1     -11.069  16.352  70.867  1.00  0.00    -0.180 NA 
ENDBRANCH  20  21
ENDBRANCH  12  15
ENDBRANCH   8   9
ENDBRANCH   6   8
BRANCH   6  27
HETATM   27  C   UNL     1      -9.331   8.496  68.944  1.00  0.00    -0.146 C  
HETATM   28  C   UNL     1      -8.488   8.390  67.633  1.00  0.00    -0.130 C  
HETATM   29  O   UNL     1      -7.281   8.156  67.658  1.00  0.00    -0.087 OA 
HETATM   30  C   UNL     1      -9.618   7.099  69.578  1.00  0.00    -0.154 C  
HETATM   31  O   UNL     1      -9.127   8.458  66.453  1.00  0.00    -0.163 OA 
HETATM   32  C   UNL     1     -10.879   6.401  69.081  1.00  0.00    -0.382 C  
HETATM   33  C   UNL     1      -8.423   6.144  69.565  1.00  0.00    -0.120 C  
ENDBRANCH   6  27
ENDBRANCH   4   5
ENDBRANCH   3   4
ENDBRANCH   2   3
TORSDOF 8
ENDMDL
MODEL       45
REMARK 921   NORMALIZED FREE ENERGY PREDICTED BY IDOCK:   -6.49 KCAL/MOL
REMARK 922        TOTAL FREE ENERGY PREDICTED BY IDOCK:  -10.06 KCAL/MOL
REMARK 923 INTER-LIGAND FREE ENERGY PREDICTED BY IDOCK:   -9.48 KCAL/MOL
REMARK 924 INTRA-LIGAND FREE ENERGY PREDICTED BY IDOCK:   -0.57 KCAL/MOL
REMARK 927      BINDING AFFINITY PREDICTED BY RF-SCORE:    0.00 PKD
ROOT
HETATM    1  C   UNL     1     -12.474  15.181  73.662  1.00  0.00    -0.692 C  
HETATM    2  C   UNL     1     -11.764  15.521  72.367  1.00  0.00    -0.570 C  
ENDROOT
BRANCH   2   3
HETATM    3  C   UNL     1     -12.010  14.481  71.272  1.00  0.00    -0.396 C  
BRANCH   3   4
HETATM    4  C   UNL     1     -11.024  14.715  70.127  1.00  0.00    -0.116 C  
BRANCH   4   5
HETATM    5  C   UNL     1     -11.362  15.899  69.247  1.00  0.00    -0.355 C  
HETATM    6  N   UNL     1     -10.344  16.490  68.499  1.00  0.00    -0.271 N  
HETATM    7  O   UNL     1     -12.515  16.338  69.209  1.00  0.00     0.085 OA 
BRANCH   6   8
HETATM    8  C   UNL     1      -8.948  15.963  68.492  1.00  0.00    -0.199 C  
BRANCH   8   9
HETATM    9  C   UNL     1      -8.814  14.525  68.020  1.00  0.00    -0.175 A  
HETATM   10  C   UNL     1      -9.609  14.051  66.977  1.00  0.00    -0.253 A  
HETATM   11  C   UNL     1      -9.731  12.672  66.746  1.00  0.00    -0.240 A  
HETATM   12  C   UNL     1      -9.006  11.711  67.475  1.00  0.00    -0.165 A  
HETATM   13  C   UNL     1      -7.962  13.600  68.631  1.00  0.00    -0.083 A  
HETATM   14  C   UNL     1      -8.033  12.225  68.345  1.00  0.00    -0.152 A  
BRANCH  12  15
HETATM   15  C   UNL     1      -9.292  10.244  67.315  1.00  0.00    -0.169 A  
HETATM   16  C   UNL     1      -8.583   9.560  66.284  1.00  0.00    -0.141 A  
HETATM   17  C   UNL     1      -8.839   8.236  65.923  1.00  0.00    -0.197 A  
HETATM   18  C   UNL     1      -9.792   7.513  66.616  1.00  0.00    -0.274 A  
HETATM   19  C   UNL     1     -10.476   8.125  67.664  1.00  0.00    -0.300 A  
HETATM   20  C   UNL     1     -10.255   9.480  68.031  1.00  0.00    -0.244 A  
BRANCH  20  21
HETATM   21  C   UNL     1     -11.097   9.949  69.128  1.00  0.00    -0.159 A  
HETATM   22  N   UNL     1     -12.287  10.560  68.944  1.00  0.00    -0.735 NA 
HETATM   23  N   UNL     1     -12.614  10.861  70.206  1.00  0.00    -0.296 NA 
HETATM   24  H   UNL     1     -12.797  10.742  68.080  1.00  0.00     0.000 HD 
HETATM   25  N   UNL     1     -11.745  10.465  71.144  1.00  0.00    -0.338 NA 
HETATM   26  N   UNL     1     -10.750   9.912  70.460  1.00  0.00    -0.306 NA 
ENDBRANCH  20  21
ENDBRANCH  12  15
ENDBRANCH   8   9
ENDBRANCH   6   8
BRANCH   6  27
HETATM   27  C   UNL     1     -10.680  17.546  67.473  1.00  0.00    -0.280 C  
HETATM   28  C   UNL     1     -10.149  17.444  66.008  1.00  0.00    -0.262 C  
HETATM   29  O   UNL     1     -10.810  17.845  65.051  1.00  0.00    -0.767 OA 
HETATM   30  C   UNL     1     -10.599  19.000  68.032  1.00  0.00    -0.387 C  
HETATM   31  O   UNL     1      -8.898  16.997  65.809  1.00  0.00    -0.523 OA 
HETATM   32  C   UNL     1      -9.285  19.368  68.712  1.00  0.00    -0.422 C  
HETATM   33  C   UNL     1     -11.020  20.083  67.036  1.00  0.00    -0.098 C  
ENDBRANCH   6  27
ENDBRANCH   4   5
ENDBRANCH   3   4
ENDBRANCH   2   3
TORSDOF 8
ENDMDL
MODEL       46
REMARK 921   NORMALIZED FREE ENERGY PREDICTED BY IDOCK:   -6.48 KCAL/MOL
REMARK 922        TOTAL FREE ENERGY PREDICTED BY IDOCK:  -10.03 KCAL/MOL
REMARK 923 INTER-LIGAND FREE ENERGY PREDICTED BY IDOCK:   -9.55 KCAL/MOL
REMARK 924 INTRA-LIGAND FREE ENERGY PREDICTED BY IDOCK:   -0.48 KCAL/MOL
REMARK 927      BINDING AFFINITY PREDICTED BY RF-SCORE:    0.00 PKD
ROOT
HETATM    1  C   UNL     1     -12.353   6.931  71.488  1.00  0.00    -0.420 C  
HETATM    2  C   UNL     1     -11.950   8.298  72.004  1.00  0.00    -0.405 C  
ENDROOT
BRANCH   2   3
HETATM    3  C   UNL     1     -10.440   8.422  72.221  1.00  0.00    -0.407 C  
BRANCH   3   4
HETATM    4  C   UNL     1      -9.848   9.315  71.130  1.00  0.00    -0.342 C  
BRANCH   4   5
HETATM    5  C   UNL     1      -9.160   8.561  70.013  1.00  0.00    -0.147 C  
HETATM    6  N   UNL     1      -9.738   8.568  68.745  1.00  0.00    -0.161 N  
HETATM    7  O   UNL     1      -8.115   7.941  70.232  1.00  0.00    -0.110 OA 
BRANCH   6   8
HETATM    8  C   UNL     1     -10.979   9.337  68.436  1.00  0.00     0.013 C  
BRANCH   8   9
HETATM    9  C   UNL     1     -10.793  10.844  68.366  1.00  0.00    -0.266 A  
HETATM   10  C   UNL     1     -11.902  11.690  68.354  1.00  0.00    -0.346 A  
HETATM   11  C   UNL     1     -11.767  13.033  67.972  1.00  0.00    -0.397 A  
HETATM   12  C   UNL     1     -10.524  13.619  67.672  1.00  0.00    -0.238 A  
HETATM   13  C   UNL     1      -9.539  11.450  68.241  1.00  0.00    -0.192 A  
HETATM   14  C   UNL     1      -9.403  12.815  67.931  1.00  0.00    -0.208 A  
BRANCH  12  15
HETATM   15  C   UNL     1     -10.442  15.007  67.103  1.00  0.00    -0.277 A  
HETATM   16  C   UNL     1      -9.988  16.036  67.979  1.00  0.00    -0.229 A  
HETATM   17  C   UNL     1      -9.990  17.390  67.641  1.00  0.00    -0.300 A  
HETATM   18  C   UNL     1     -10.403  17.777  66.380  1.00  0.00    -0.351 A  
HETATM   19  C   UNL     1     -10.808  16.802  65.472  1.00  0.00    -0.135 A  
HETATM   20  C   UNL     1     -10.845  15.421  65.803  1.00  0.00    -0.349 A  
BRANCH  20  21
HETATM   21  C   UNL     1     -11.337  14.560  64.729  1.00  0.00    -0.396 A  
HETATM   22  N   UNL     1     -12.486  14.791  64.058  1.00  0.00    -1.000 NA 
HETATM   23  N   UNL     1     -12.534  13.716  63.264  1.00  0.00    -0.773 NA 
HETATM   24  H   UNL     1     -13.138  15.571  64.135  1.00  0.00     0.000 HD 
HETATM   25  N   UNL     1     -11.506  12.864  63.371  1.00  0.00    -0.434 NA 
HETATM   26  N   UNL     1     -10.751  13.378  64.335  1.00  0.00    -0.414 NA 
ENDBRANCH  20  21
ENDBRANCH  12  15
ENDBRANCH   8   9
ENDBRANCH   6   8
BRANCH   6  27
HETATM   27  C   UNL     1      -8.986   7.989  67.571  1.00  0.00    -0.138 C  
HETATM   28  C   UNL     1      -8.980   8.705  66.183  1.00  0.00    -0.180 C  
HETATM   29  O   UNL     1      -7.998   8.672  65.443  1.00  0.00    -0.099 OA 
HETATM   30  C   UNL     1      -9.142   6.442  67.438  1.00  0.00    -0.111 C  
HETATM   31  O   UNL     1     -10.115   9.283  65.756  1.00  0.00    -0.268 OA 
HETATM   32  C   UNL     1     -10.578   5.929  67.410  1.00  0.00    -0.356 C  
HETATM   33  C   UNL     1      -8.318   5.820  66.309  1.00  0.00    -0.115 C  
ENDBRANCH   6  27
ENDBRANCH   4   5
ENDBRANCH   3   4
ENDBRANCH   2   3
TORSDOF 8
ENDMDL
MODEL       47
REMARK 921   NORMALIZED FREE ENERGY PREDICTED BY IDOCK:   -6.46 KCAL/MOL
REMARK 922        TOTAL FREE ENERGY PREDICTED BY IDOCK:  -10.01 KCAL/MOL
REMARK 923 INTER-LIGAND FREE ENERGY PREDICTED BY IDOCK:   -9.62 KCAL/MOL
REMARK 924 INTRA-LIGAND FREE ENERGY PREDICTED BY IDOCK:   -0.39 KCAL/MOL
REMARK 927      BINDING AFFINITY PREDICTED BY RF-SCORE:    0.00 PKD
ROOT
HETATM    1  C   UNL     1     -11.049   7.225  70.689  1.00  0.00    -0.287 C  
HETATM    2  C   UNL     1     -11.402   6.416  69.457  1.00  0.00    -0.460 C  
ENDROOT
BRANCH   2   3
HETATM    3  C   UNL     1     -10.206   6.215  68.523  1.00  0.00    -0.221 C  
BRANCH   3   4
HETATM    4  C   UNL     1     -10.207   7.316  67.463  1.00  0.00    -0.284 C  
BRANCH   4   5
HETATM    5  C   UNL     1      -9.009   8.239  67.523  1.00  0.00    -0.134 C  
HETATM    6  N   UNL     1      -9.157   9.556  67.091  1.00  0.00    -0.133 N  
HETATM    7  O   UNL     1      -7.922   7.823  67.932  1.00  0.00    -0.121 OA 
BRANCH   6   8
HETATM    8  C   UNL     1     -10.465  10.104  66.625  1.00  0.00    -0.185 C  
BRANCH   8   9
HETATM    9  C   UNL     1     -11.184  10.980  67.637  1.00  0.00    -0.373 A  
HETATM   10  C   UNL     1     -11.523  12.294  67.314  1.00  0.00    -0.426 A  
HETATM   11  C   UNL     1     -11.887  13.202  68.321  1.00  0.00    -0.384 A  
HETATM   12  C   UNL     1     -12.018  12.830  69.671  1.00  0.00    -0.354 A  
HETATM   13  C   UNL     1     -11.476  10.557  68.937  1.00  0.00    -0.292 A  
HETATM   14  C   UNL     1     -11.914  11.455  69.928  1.00  0.00    -0.434 A  
BRANCH  12  15
HETATM   15  C   UNL     1     -12.240  13.865  70.738  1.00  0.00    -0.441 A  
HETATM   16  C   UNL     1     -13.240  13.577  71.713  1.00  0.00    -0.490 A  
HETATM   17  C   UNL     1     -13.656  14.493  72.680  1.00  0.00    -0.577 A  
HETATM   18  C   UNL     1     -13.052  15.735  72.748  1.00  0.00    -0.596 A  
HETATM   19  C   UNL     1     -12.035  16.042  71.847  1.00  0.00    -0.606 A  
HETATM   20  C   UNL     1     -11.615  15.138  70.834  1.00  0.00    -0.380 A  
BRANCH  20  21
HETATM   21  C   UNL     1     -10.564  15.660  69.963  1.00  0.00    -0.332 A  
HETATM   22  N   UNL     1      -9.319  15.143  69.906  1.00  0.00    -0.457 NA 
HETATM   23  N   UNL     1      -8.732  15.991  69.055  1.00  0.00    -0.233 NA 
HETATM   24  H   UNL     1      -8.932  14.328  70.382  1.00  0.00     0.000 HD 
HETATM   25  N   UNL     1      -9.513  16.962  68.566  1.00  0.00    -0.257 NA 
HETATM   26  N   UNL     1     -10.681  16.781  69.171  1.00  0.00    -0.339 NA 
ENDBRANCH  20  21
ENDBRANCH  12  15
ENDBRANCH   8   9
ENDBRANCH   6   8
BRANCH   6  27
HETATM   27  C   UNL     1      -8.042  10.551  67.312  1.00  0.00    -0.115 C  
HETATM   28  C   UNL     1      -6.629  10.331  66.686  1.00  0.00    -0.078 C  
HETATM   29  O   UNL     1      -5.935  11.273  66.307  1.00  0.00    -0.144 OA 
HETATM   30  C   UNL     1      -7.965  11.078  68.779  1.00  0.00    -0.144 C  
HETATM   31  O   UNL     1      -6.128   9.084  66.657  1.00  0.00    -0.058 OA 
HETATM   32  C   UNL     1      -7.893  10.003  69.857  1.00  0.00    -0.185 C  
HETATM   33  C   UNL     1      -6.900  12.153  69.007  1.00  0.00    -0.098 C  
ENDBRANCH   6  27
ENDBRANCH   4   5
ENDBRANCH   3   4
ENDBRANCH   2   3
TORSDOF 8
ENDMDL
MODEL       48
REMARK 921   NORMALIZED FREE ENERGY PREDICTED BY IDOCK:   -6.43 KCAL/MOL
REMARK 922        TOTAL FREE ENERGY PREDICTED BY IDOCK:   -9.97 KCAL/MOL
REMARK 923 INTER-LIGAND FREE ENERGY PREDICTED BY IDOCK:   -8.83 KCAL/MOL
REMARK 924 INTRA-LIGAND FREE ENERGY PREDICTED BY IDOCK:   -1.14 KCAL/MOL
REMARK 927      BINDING AFFINITY PREDICTED BY RF-SCORE:    0.00 PKD
ROOT
HETATM    1  C   UNL     1     -10.450  12.114  63.650  1.00  0.00    -0.495 C  
HETATM    2  C   UNL     1     -11.794  12.446  64.264  1.00  0.00    -0.473 C  
ENDROOT
BRANCH   2   3
HETATM    3  C   UNL     1     -12.278  13.851  63.897  1.00  0.00    -0.375 C  
BRANCH   3   4
HETATM    4  C   UNL     1     -12.281  14.724  65.151  1.00  0.00    -0.202 C  
BRANCH   4   5
HETATM    5  C   UNL     1     -11.236  15.819  65.151  1.00  0.00    -0.248 C  
HETATM    6  N   UNL     1     -10.570  16.108  66.341  1.00  0.00    -0.297 N  
HETATM    7  O   UNL     1     -10.994  16.449  64.118  1.00  0.00    -0.717 OA 
BRANCH   6   8
HETATM    8  C   UNL     1     -10.809  15.342  67.599  1.00  0.00    -0.295 C  
BRANCH   8   9
HETATM    9  C   UNL     1     -10.645  13.837  67.468  1.00  0.00    -0.246 A  
HETATM   10  C   UNL     1     -11.696  12.983  67.802  1.00  0.00    -0.405 A  
HETATM   11  C   UNL     1     -11.465  11.612  67.994  1.00  0.00    -0.385 A  
HETATM   12  C   UNL     1     -10.211  11.014  67.780  1.00  0.00    -0.210 A  
HETATM   13  C   UNL     1      -9.443  13.234  67.085  1.00  0.00    -0.240 A  
HETATM   14  C   UNL     1      -9.237  11.847  67.208  1.00  0.00    -0.179 A  
BRANCH  12  15
HETATM   15  C   UNL     1      -9.964   9.581  68.161  1.00  0.00    -0.191 A  
HETATM   16  C   UNL     1     -10.459   9.158  69.429  1.00  0.00    -0.226 A  
HETATM   17  C   UNL     1     -10.191   7.905  69.980  1.00  0.00    -0.208 A  
HETATM   18  C   UNL     1      -9.447   6.989  69.260  1.00  0.00    -0.147 A  
HETATM   19  C   UNL     1      -8.984   7.339  67.994  1.00  0.00    -0.131 A  
HETATM   20  C   UNL     1      -9.218   8.619  67.424  1.00  0.00    -0.158 A  
BRANCH  20  21
HETATM   21  C   UNL     1      -8.616   8.808  66.106  1.00  0.00    -0.146 A  
HETATM   22  N   UNL     1      -9.336   8.923  64.969  1.00  0.00    -0.430 NA 
HETATM   23  N   UNL     1      -8.358   8.992  64.058  1.00  0.00    -0.175 NA 
HETATM   24  H   UNL     1     -10.347   8.950  64.840  1.00  0.00     0.000 HD 
HETATM   25  N   UNL     1      -7.109   8.957  64.539  1.00  0.00    -0.088 NA 
HETATM   26  N   UNL     1      -7.264   8.801  65.848  1.00  0.00    -0.083 NA 
ENDBRANCH  20  21
ENDBRANCH  12  15
ENDBRANCH   8   9
ENDBRANCH   6   8
BRANCH   6  27
HETATM   27  C   UNL     1      -9.395  17.057  66.335  1.00  0.00    -0.270 C  
HETATM   28  C   UNL     1      -8.118  16.766  67.186  1.00  0.00    -0.183 C  
HETATM   29  O   UNL     1      -6.996  17.089  66.799  1.00  0.00    -0.185 OA 
HETATM   30  C   UNL     1      -9.813  18.560  66.388  1.00  0.00    -0.376 C  
HETATM   31  O   UNL     1      -8.272  16.240  68.412  1.00  0.00    -0.170 OA 
HETATM   32  C   UNL     1     -10.751  18.938  67.529  1.00  0.00    -0.509 C  
HETATM   33  C   UNL     1      -8.644  19.542  66.294  1.00  0.00    -0.382 C  
ENDBRANCH   6  27
ENDBRANCH   4   5
ENDBRANCH   3   4
ENDBRANCH   2   3
TORSDOF 8
ENDMDL
MODEL       49
REMARK 921   NORMALIZED FREE ENERGY PREDICTED BY IDOCK:   -6.40 KCAL/MOL
REMARK 922        TOTAL FREE ENERGY PREDICTED BY IDOCK:   -9.92 KCAL/MOL
REMARK 923 INTER-LIGAND FREE ENERGY PREDICTED BY IDOCK:   -8.82 KCAL/MOL
REMARK 924 INTRA-LIGAND FREE ENERGY PREDICTED BY IDOCK:   -1.10 KCAL/MOL
REMARK 927      BINDING AFFINITY PREDICTED BY RF-SCORE:    0.00 PKD
ROOT
HETATM    1  C   UNL     1     -13.149  10.633  71.824  1.00  0.00    -0.571 C  
HETATM    2  C   UNL     1     -12.839   9.215  71.390  1.00  0.00    -0.376 C  
ENDROOT
BRANCH   2   3
HETATM    3  C   UNL     1     -12.097   8.419  72.467  1.00  0.00    -0.403 C  
BRANCH   3   4
HETATM    4  C   UNL     1     -10.642   8.230  72.038  1.00  0.00    -0.365 C  
BRANCH   4   5
HETATM    5  C   UNL     1     -10.443   7.201  70.946  1.00  0.00    -0.210 C  
HETATM    6  N   UNL     1      -9.534   7.475  69.926  1.00  0.00    -0.161 N  
HETATM    7  O   UNL     1     -11.089   6.149  70.958  1.00  0.00    -0.278 OA 
BRANCH   6   8
HETATM    8  C   UNL     1      -8.711   8.719  69.900  1.00  0.00    -0.135 C  
BRANCH   8   9
HETATM    9  C   UNL     1      -9.261   9.828  69.019  1.00  0.00    -0.165 A  
HETATM   10  C   UNL     1     -10.636  10.059  68.957  1.00  0.00    -0.235 A  
HETATM   11  C   UNL     1     -11.179  10.844  67.927  1.00  0.00    -0.387 A  
HETATM   12  C   UNL     1     -10.384  11.503  66.973  1.00  0.00    -0.254 A  
HETATM   13  C   UNL     1      -8.454  10.612  68.189  1.00  0.00    -0.122 A  
HETATM   14  C   UNL     1      -9.001  11.456  67.206  1.00  0.00    -0.159 A  
BRANCH  12  15
HETATM   15  C   UNL     1     -11.009  12.189  65.790  1.00  0.00    -0.338 A  
HETATM   16  C   UNL     1     -11.978  13.197  66.070  1.00  0.00    -0.488 A  
HETATM   17  C   UNL     1     -12.742  13.824  65.085  1.00  0.00    -0.439 A  
HETATM   18  C   UNL     1     -12.535  13.503  63.756  1.00  0.00    -0.296 A  
HETATM   19  C   UNL     1     -11.563  12.560  63.431  1.00  0.00    -0.547 A  
HETATM   20  C   UNL     1     -10.794  11.887  64.417  1.00  0.00    -0.384 A  
BRANCH  20  21
HETATM   21  C   UNL     1      -9.855  10.905  63.879  1.00  0.00    -0.331 A  
HETATM   22  N   UNL     1      -9.763   9.637  64.333  1.00  0.00    -0.380 NA 
HETATM   23  N   UNL     1      -8.739   9.181  63.603  1.00  0.00    -0.172 NA 
HETATM   24  H   UNL     1     -10.321   9.157  65.039  1.00  0.00     0.000 HD 
HETATM   25  N   UNL     1      -8.216  10.049  62.726  1.00  0.00    -0.140 NA 
HETATM   26  N   UNL     1      -8.901  11.169  62.922  1.00  0.00    -0.229 NA 
ENDBRANCH  20  21
ENDBRANCH  12  15
ENDBRANCH   8   9
ENDBRANCH   6   8
BRANCH   6  27
HETATM   27  C   UNL     1      -9.173   6.399  68.930  1.00  0.00    -0.128 C  
HETATM   28  C   UNL     1      -7.752   6.340  68.285  1.00  0.00    -0.104 C  
HETATM   29  O   UNL     1      -7.214   5.270  68.002  1.00  0.00    -0.069 OA 
HETATM   30  C   UNL     1     -10.305   6.106  67.896  1.00  0.00    -0.250 C  
HETATM   31  O   UNL     1      -7.155   7.494  67.944  1.00  0.00    -0.079 OA 
HETATM   32  C   UNL     1     -10.833   7.322  67.144  1.00  0.00    -0.378 C  
HETATM   33  C   UNL     1      -9.998   4.959  66.932  1.00  0.00    -0.244 C  
ENDBRANCH   6  27
ENDBRANCH   4   5
ENDBRANCH   3   4
ENDBRANCH   2   3
TORSDOF 8
ENDMDL
MODEL       50
REMARK 921   NORMALIZED FREE ENERGY PREDICTED BY IDOCK:   -6.39 KCAL/MOL
REMARK 922        TOTAL FREE ENERGY PREDICTED BY IDOCK:   -9.91 KCAL/MOL
REMARK 923 INTER-LIGAND FREE ENERGY PREDICTED BY IDOCK:   -8.46 KCAL/MOL
REMARK 924 INTRA-LIGAND FREE ENERGY PREDICTED BY IDOCK:   -1.45 KCAL/MOL
REMARK 927      BINDING AFFINITY PREDICTED BY RF-SCORE:    0.00 PKD
ROOT
HETATM    1  C   UNL     1      -9.632   8.953  71.577  1.00  0.00    -0.362 C  
HETATM    2  C   UNL     1      -9.681   9.207  70.084  1.00  0.00    -0.234 C  
ENDROOT
BRANCH   2   3
HETATM    3  C   UNL     1     -10.678  10.305  69.707  1.00  0.00    -0.328 C  
BRANCH   3   4
HETATM    4  C   UNL     1      -9.956  11.384  68.900  1.00  0.00    -0.146 C  
BRANCH   4   5
HETATM    5  C   UNL     1     -10.816  12.061  67.855  1.00  0.00    -0.215 C  
HETATM    6  N   UNL     1     -10.382  12.061  66.530  1.00  0.00    -0.207 N  
HETATM    7  O   UNL     1     -11.871  12.613  68.179  1.00  0.00    -0.329 OA 
BRANCH   6   8
HETATM    8  C   UNL     1      -9.132  11.372  66.097  1.00  0.00    -0.207 C  
BRANCH   8   9
HETATM    9  C   UNL     1      -9.139   9.864  66.286  1.00  0.00    -0.187 A  
HETATM   10  C   UNL     1     -10.341   9.156  66.244  1.00  0.00    -0.166 A  
HETATM   11  C   UNL     1     -10.408   7.841  66.727  1.00  0.00    -0.348 A  
HETATM   12  C   UNL     1      -9.279   7.140  67.189  1.00  0.00    -0.153 A  
HETATM   13  C   UNL     1      -7.987   9.128  66.576  1.00  0.00    -0.100 A  
HETATM   14  C   UNL     1      -8.049   7.785  66.989  1.00  0.00    -0.117 A  
BRANCH  12  15
HETATM   15  C   UNL     1      -9.421   5.801  67.856  1.00  0.00    -0.114 A  
HETATM   16  C   UNL     1      -9.128   5.742  69.250  1.00  0.00    -0.128 A  
HETATM   17  C   UNL     1      -9.081   4.552  69.976  1.00  0.00    -0.161 A  
HETATM   18  C   UNL     1      -9.375   3.357  69.346  1.00  0.00    -0.237 A  
HETATM   19  C   UNL     1      -9.717   3.370  67.995  1.00  0.00    -0.058 A  
HETATM   20  C   UNL     1      -9.742   4.566  67.228  1.00  0.00    -0.221 A  
BRANCH  20  21
HETATM   21  C   UNL     1     -10.084   4.367  65.821  1.00  0.00    -0.245 A  
HETATM   22  N   UNL     1     -11.319   4.582  65.318  1.00  0.00    -1.078 NA 
HETATM   23  N   UNL     1     -11.145   4.193  64.050  1.00  0.00    -0.113 NA 
HETATM   24  H   UNL     1     -12.154   4.941  65.778  1.00  0.00     0.000 HD 
HETATM   25  N   UNL     1      -9.911   3.787  63.728  1.00  0.00    -0.161 NA 
HETATM   26  N   UNL     1      -9.232   3.860  64.866  1.00  0.00    -0.140 NA 
ENDBRANCH  20  21
ENDBRANCH  12  15
ENDBRANCH   8   9
ENDBRANCH   6   8
BRANCH   6  27
HETATM   27  C   UNL     1     -11.300  12.558  65.438  1.00  0.00    -0.325 C  
HETATM   28  C   UNL     1     -11.279  11.918  64.014  1.00  0.00    -0.396 C  
HETATM   29  O   UNL     1     -12.301  11.817  63.336  1.00  0.00    -0.532 OA 
HETATM   30  C   UNL     1     -11.416  14.113  65.387  1.00  0.00    -0.325 C  
HETATM   31  O   UNL     1     -10.095  11.564  63.488  1.00  0.00    -0.329 OA 
HETATM   32  C   UNL     1     -10.093  14.866  65.304  1.00  0.00    -0.380 C  
HETATM   33  C   UNL     1     -12.408  14.638  64.346  1.00  0.00    -0.420 C  
ENDBRANCH   6  27
ENDBRANCH   4   5
ENDBRANCH   3   4
ENDBRANCH   2   3
TORSDOF 8
ENDMDL
MODEL       51
REMARK 921   NORMALIZED FREE ENERGY PREDICTED BY IDOCK:   -6.38 KCAL/MOL
REMARK 922        TOTAL FREE ENERGY PREDICTED BY IDOCK:   -9.89 KCAL/MOL
REMARK 923 INTER-LIGAND FREE ENERGY PREDICTED BY IDOCK:   -8.12 KCAL/MOL
REMARK 924 INTRA-LIGAND FREE ENERGY PREDICTED BY IDOCK:   -1.77 KCAL/MOL
REMARK 927      BINDING AFFINITY PREDICTED BY RF-SCORE:    0.00 PKD
ROOT
HETATM    1  C   UNL     1      -9.199   7.275  66.569  1.00  0.00    -0.195 C  
HETATM    2  C   UNL     1     -10.639   7.352  67.032  1.00  0.00    -0.414 C  
ENDROOT
BRANCH   2   3
HETATM    3  C   UNL     1     -11.024   6.192  67.953  1.00  0.00    -0.399 C  
BRANCH   3   4
HETATM    4  C   UNL     1     -10.991   6.670  69.405  1.00  0.00    -0.361 C  
BRANCH   4   5
HETATM    5  C   UNL     1      -9.716   6.327  70.144  1.00  0.00    -0.163 C  
HETATM    6  N   UNL     1      -9.193   7.256  71.042  1.00  0.00    -0.154 N  
HETATM    7  O   UNL     1      -9.148   5.250  69.940  1.00  0.00    -0.125 OA 
BRANCH   6   8
HETATM    8  C   UNL     1      -9.872   8.551  71.341  1.00  0.00    -0.228 C  
BRANCH   8   9
HETATM    9  C   UNL     1      -9.919   9.528  70.178  1.00  0.00    -0.285 A  
HETATM   10  C   UNL     1     -11.143  10.020  69.723  1.00  0.00    -0.319 A  
HETATM   11  C   UNL     1     -11.234  10.653  68.474  1.00  0.00    -0.342 A  
HETATM   12  C   UNL     1     -10.112  10.906  67.665  1.00  0.00    -0.206 A  
HETATM   13  C   UNL     1      -8.781   9.923  69.470  1.00  0.00    -0.200 A  
HETATM   14  C   UNL     1      -8.870  10.625  68.254  1.00  0.00    -0.139 A  
BRANCH  12  15
HETATM   15  C   UNL     1     -10.273  11.429  66.265  1.00  0.00    -0.274 A  
HETATM   16  C   UNL     1     -10.120  10.487  65.205  1.00  0.00    -0.383 A  
HETATM   17  C   UNL     1     -10.103  10.844  63.856  1.00  0.00    -0.422 A  
HETATM   18  C   UNL     1     -10.289  12.166  63.499  1.00  0.00    -0.473 A  
HETATM   19  C   UNL     1     -10.493  13.115  64.498  1.00  0.00    -0.425 A  
HETATM   20  C   UNL     1     -10.483  12.781  65.879  1.00  0.00    -0.295 A  
BRANCH  20  21
HETATM   21  C   UNL     1     -10.674  13.922  66.773  1.00  0.00    -0.281 A  
HETATM   22  N   UNL     1      -9.687  14.783  67.102  1.00  0.00    -0.229 NA 
HETATM   23  N   UNL     1     -10.321  15.570  67.978  1.00  0.00    -0.243 NA 
HETATM   24  H   UNL     1      -8.723  14.821  66.773  1.00  0.00     0.000 HD 
HETATM   25  N   UNL     1     -11.612  15.284  68.192  1.00  0.00    -0.345 NA 
HETATM   26  N   UNL     1     -11.838  14.206  67.452  1.00  0.00    -0.396 NA 
ENDBRANCH  20  21
ENDBRANCH  12  15
ENDBRANCH   8   9
ENDBRANCH   6   8
BRANCH   6  27
HETATM   27  C   UNL     1      -8.034   6.873  71.932  1.00  0.00    -0.099 C  
HETATM   28  C   UNL     1      -7.869   7.496  73.354  1.00  0.00    -0.111 C  
HETATM   29  O   UNL     1      -7.397   6.854  74.291  1.00  0.00    -0.096 OA 
HETATM   30  C   UNL     1      -6.676   6.768  71.171  1.00  0.00    -0.057 C  
HETATM   31  O   UNL     1      -8.161   8.797  73.521  1.00  0.00    -0.396 OA 
HETATM   32  C   UNL     1      -6.289   7.994  70.351  1.00  0.00    -0.036 C  
HETATM   33  C   UNL     1      -5.505   6.295  72.033  1.00  0.00    -0.031 C  
ENDBRANCH   6  27
ENDBRANCH   4   5
ENDBRANCH   3   4
ENDBRANCH   2   3
TORSDOF 8
ENDMDL
MODEL       52
REMARK 921   NORMALIZED FREE ENERGY PREDICTED BY IDOCK:   -6.36 KCAL/MOL
REMARK 922        TOTAL FREE ENERGY PREDICTED BY IDOCK:   -9.86 KCAL/MOL
REMARK 923 INTER-LIGAND FREE ENERGY PREDICTED BY IDOCK:  -10.38 KCAL/MOL
REMARK 924 INTRA-LIGAND FREE ENERGY PREDICTED BY IDOCK:    0.52 KCAL/MOL
REMARK 927      BINDING AFFINITY PREDICTED BY RF-SCORE:    0.00 PKD
ROOT
HETATM    1  C   UNL     1     -13.191   9.214  71.967  1.00  0.00    -0.505 C  
HETATM    2  C   UNL     1     -12.857  10.488  71.217  1.00  0.00    -0.532 C  
ENDROOT
BRANCH   2   3
HETATM    3  C   UNL     1     -12.123  10.221  69.901  1.00  0.00    -0.178 C  
BRANCH   3   4
HETATM    4  C   UNL     1     -11.182  11.389  69.605  1.00  0.00    -0.301 C  
BRANCH   4   5
HETATM    5  C   UNL     1     -11.353  11.993  68.228  1.00  0.00    -0.286 C  
HETATM    6  N   UNL     1     -11.676  13.345  68.125  1.00  0.00    -0.341 N  
HETATM    7  O   UNL     1     -11.223  11.292  67.220  1.00  0.00    -0.292 OA 
BRANCH   6   8
HETATM    8  C   UNL     1     -11.803  14.231  69.320  1.00  0.00    -0.330 C  
BRANCH   8   9
HETATM    9  C   UNL     1     -10.809  15.378  69.369  1.00  0.00    -0.263 A  
HETATM   10  C   UNL     1     -11.257  16.699  69.333  1.00  0.00    -0.085 A  
HETATM   11  C   UNL     1     -10.364  17.746  69.056  1.00  0.00    -0.234 A  
HETATM   12  C   UNL     1      -8.982  17.544  68.891  1.00  0.00    -0.144 A  
HETATM   13  C   UNL     1      -9.424  15.185  69.380  1.00  0.00    -0.185 A  
HETATM   14  C   UNL     1      -8.525  16.249  69.177  1.00  0.00    -0.218 A  
BRANCH  12  15
HETATM   15  C   UNL     1      -8.089  18.661  68.427  1.00  0.00    -0.360 A  
HETATM   16  C   UNL     1      -6.913  18.904  69.195  1.00  0.00    -0.314 A  
HETATM   17  C   UNL     1      -6.061  19.987  68.973  1.00  0.00    -0.331 A  
HETATM   18  C   UNL     1      -6.323  20.858  67.932  1.00  0.00    -0.393 A  
HETATM   19  C   UNL     1      -7.434  20.632  67.124  1.00  0.00    -0.381 A  
HETATM   20  C   UNL     1      -8.332  19.554  67.347  1.00  0.00    -0.330 A  
BRANCH  20  21
HETATM   21  C   UNL     1      -9.458  19.509  66.417  1.00  0.00    -0.386 A  
HETATM   22  N   UNL     1     -10.211  20.586  66.106  1.00  0.00    -0.447 NA 
HETATM   23  N   UNL     1     -11.130  20.030  65.310  1.00  0.00    -0.134 NA 
HETATM   24  H   UNL     1     -10.106  21.557  66.399  1.00  0.00     0.000 HD 
HETATM   25  N   UNL     1     -10.991  18.717  65.085  1.00  0.00    -0.357 NA 
HETATM   26  N   UNL     1      -9.943  18.366  65.821  1.00  0.00    -0.500 NA 
ENDBRANCH  20  21
ENDBRANCH  12  15
ENDBRANCH   8   9
ENDBRANCH   6   8
BRANCH   6  27
HETATM   27  C   UNL     1     -11.667  14.021  66.775  1.00  0.00    -0.407 C  
HETATM   28  C   UNL     1     -12.559  13.495  65.605  1.00  0.00    -0.459 C  
HETATM   29  O   UNL     1     -13.057  14.258  64.778  1.00  0.00    -0.599 OA 
HETATM   30  C   UNL     1     -10.239  14.428  66.294  1.00  0.00    -0.307 C  
HETATM   31  O   UNL     1     -12.695  12.168  65.449  1.00  0.00    -0.384 OA 
HETATM   32  C   UNL     1      -9.205  13.308  66.297  1.00  0.00    -0.067 C  
HETATM   33  C   UNL     1     -10.214  15.192  64.969  1.00  0.00    -0.332 C  
ENDBRANCH   6  27
ENDBRANCH   4   5
ENDBRANCH   3   4
ENDBRANCH   2   3
TORSDOF 8
ENDMDL
MODEL       53
REMARK 921   NORMALIZED FREE ENERGY PREDICTED BY IDOCK:   -6.34 KCAL/MOL
REMARK 922        TOTAL FREE ENERGY PREDICTED BY IDOCK:   -9.84 KCAL/MOL
REMARK 923 INTER-LIGAND FREE ENERGY PREDICTED BY IDOCK:   -8.97 KCAL/MOL
REMARK 924 INTRA-LIGAND FREE ENERGY PREDICTED BY IDOCK:   -0.87 KCAL/MOL
REMARK 927      BINDING AFFINITY PREDICTED BY RF-SCORE:    0.00 PKD
ROOT
HETATM    1  C   UNL     1     -13.773  13.922  72.438  1.00  0.00    -0.678 C  
HETATM    2  C   UNL     1     -12.685  14.468  71.536  1.00  0.00    -0.409 C  
ENDROOT
BRANCH   2   3
HETATM    3  C   UNL     1     -12.286  13.485  70.434  1.00  0.00    -0.397 C  
BRANCH   3   4
HETATM    4  C   UNL     1     -11.611  14.252  69.297  1.00  0.00    -0.350 C  
BRANCH   4   5
HETATM    5  C   UNL     1     -11.731  13.591  67.941  1.00  0.00    -0.357 C  
HETATM    6  N   UNL     1     -10.631  12.902  67.432  1.00  0.00    -0.232 N  
HETATM    7  O   UNL     1     -12.781  13.677  67.297  1.00  0.00     0.083 OA 
BRANCH   6   8
HETATM    8  C   UNL     1      -9.360  12.745  68.198  1.00  0.00    -0.214 C  
BRANCH   8   9
HETATM    9  C   UNL     1      -8.483  13.985  68.234  1.00  0.00    -0.171 A  
HETATM   10  C   UNL     1      -8.269  14.661  69.436  1.00  0.00     0.060 A  
HETATM   11  C   UNL     1      -7.742  15.961  69.436  1.00  0.00    -0.199 A  
HETATM   12  C   UNL     1      -7.322  16.613  68.263  1.00  0.00    -0.179 A  
HETATM   13  C   UNL     1      -7.914  14.547  67.088  1.00  0.00    -0.167 A  
HETATM   14  C   UNL     1      -7.317  15.822  67.105  1.00  0.00    -0.257 A  
BRANCH  12  15
HETATM   15  C   UNL     1      -6.925  18.063  68.285  1.00  0.00    -0.228 A  
HETATM   16  C   UNL     1      -5.668  18.376  68.882  1.00  0.00    -0.207 A  
HETATM   17  C   UNL     1      -5.225  19.681  69.101  1.00  0.00    -0.206 A  
HETATM   18  C   UNL     1      -6.005  20.744  68.685  1.00  0.00    -0.381 A  
HETATM   19  C   UNL     1      -7.218  20.486  68.052  1.00  0.00    -0.238 A  
HETATM   20  C   UNL     1      -7.705  19.167  67.845  1.00  0.00    -0.308 A  
BRANCH  20  21
HETATM   21  C   UNL     1      -9.015  19.106  67.200  1.00  0.00    -0.288 A  
HETATM   22  N   UNL     1     -10.166  18.893  67.873  1.00  0.00    -0.374 NA 
HETATM   23  N   UNL     1     -11.042  18.842  66.863  1.00  0.00    -0.092 NA 
HETATM   24  H   UNL     1     -10.324  18.797  68.876  1.00  0.00     0.000 HD 
HETATM   25  N   UNL     1     -10.534  19.032  65.639  1.00  0.00    -0.553 NA 
HETATM   26  N   UNL     1      -9.228  19.164  65.841  1.00  0.00    -0.403 NA 
ENDBRANCH  20  21
ENDBRANCH  12  15
ENDBRANCH   8   9
ENDBRANCH   6   8
BRANCH   6  27
HETATM   27  C   UNL     1     -10.776  12.075  66.177  1.00  0.00    -0.275 C  
HETATM   28  C   UNL     1      -9.682  11.042  65.760  1.00  0.00    -0.224 C  
HETATM   29  O   UNL     1      -9.968   9.991  65.189  1.00  0.00    -0.323 OA 
HETATM   30  C   UNL     1     -11.317  12.888  64.959  1.00  0.00    -0.338 C  
HETATM   31  O   UNL     1      -8.391  11.366  65.946  1.00  0.00    -0.094 OA 
HETATM   32  C   UNL     1     -10.547  14.162  64.630  1.00  0.00    -0.391 C  
HETATM   33  C   UNL     1     -11.555  12.053  63.699  1.00  0.00    -0.578 C  
ENDBRANCH   6  27
ENDBRANCH   4   5
ENDBRANCH   3   4
ENDBRANCH   2   3
TORSDOF 8
ENDMDL
MODEL       54
REMARK 921   NORMALIZED FREE ENERGY PREDICTED BY IDOCK:   -6.33 KCAL/MOL
REMARK 922        TOTAL FREE ENERGY PREDICTED BY IDOCK:   -9.82 KCAL/MOL
REMARK 923 INTER-LIGAND FREE ENERGY PREDICTED BY IDOCK:   -8.37 KCAL/MOL
REMARK 924 INTRA-LIGAND FREE ENERGY PREDICTED BY IDOCK:   -1.46 KCAL/MOL
REMARK 927      BINDING AFFINITY PREDICTED BY RF-SCORE:    0.00 PKD
ROOT
HETATM    1  C   UNL     1      -6.935   9.122  66.254  1.00  0.00    -0.086 C  
HETATM    2  C   UNL     1      -8.243   8.363  66.166  1.00  0.00    -0.113 C  
ENDROOT
BRANCH   2   3
HETATM    3  C   UNL     1      -9.293   9.095  65.326  1.00  0.00    -0.224 C  
BRANCH   3   4
HETATM    4  C   UNL     1      -8.607  10.191  64.511  1.00  0.00    -0.198 C  
BRANCH   4   5
HETATM    5  C   UNL     1      -9.478  11.397  64.233  1.00  0.00    -0.133 C  
HETATM    6  N   UNL     1      -9.555  12.403  65.195  1.00  0.00    -0.041 N  
HETATM    7  O   UNL     1     -10.118  11.474  63.180  1.00  0.00    -0.363 OA 
BRANCH   6   8
HETATM    8  C   UNL     1      -8.767  12.361  66.461  1.00  0.00    -0.057 C  
BRANCH   8   9
HETATM    9  C   UNL     1      -9.429  11.598  67.597  1.00  0.00    -0.177 A  
HETATM   10  C   UNL     1      -8.662  11.104  68.652  1.00  0.00    -0.153 A  
HETATM   11  C   UNL     1      -9.191  10.140  69.524  1.00  0.00    -0.223 A  
HETATM   12  C   UNL     1     -10.522   9.691  69.446  1.00  0.00    -0.236 A  
HETATM   13  C   UNL     1     -10.793  11.294  67.614  1.00  0.00    -0.286 A  
HETATM   14  C   UNL     1     -11.337  10.383  68.539  1.00  0.00    -0.283 A  
BRANCH  12  15
HETATM   15  C   UNL     1     -10.998   8.538  70.285  1.00  0.00    -0.245 A  
HETATM   16  C   UNL     1     -11.377   8.833  71.628  1.00  0.00    -0.390 A  
HETATM   17  C   UNL     1     -11.707   7.855  72.566  1.00  0.00    -0.423 A  
HETATM   18  C   UNL     1     -11.719   6.525  72.188  1.00  0.00    -0.353 A  
HETATM   19  C   UNL     1     -11.404   6.192  70.873  1.00  0.00    -0.355 A  
HETATM   20  C   UNL     1     -11.036   7.167  69.907  1.00  0.00    -0.278 A  
BRANCH  20  21
HETATM   21  C   UNL     1     -10.702   6.617  68.596  1.00  0.00    -0.254 A  
HETATM   22  N   UNL     1     -11.437   6.840  67.485  1.00  0.00    -0.688 NA 
HETATM   23  N   UNL     1     -10.789   6.079  66.597  1.00  0.00    -0.274 NA 
HETATM   24  H   UNL     1     -12.261   7.428  67.360  1.00  0.00     0.000 HD 
HETATM   25  N   UNL     1      -9.710   5.434  67.057  1.00  0.00    -0.137 NA 
HETATM   26  N   UNL     1      -9.667   5.743  68.348  1.00  0.00    -0.127 NA 
ENDBRANCH  20  21
ENDBRANCH  12  15
ENDBRANCH   8   9
ENDBRANCH   6   8
BRANCH   6  27
HETATM   27  C   UNL     1     -10.259  13.700  64.874  1.00  0.00    -0.339 C  
HETATM   28  C   UNL     1     -10.016  14.984  65.729  1.00  0.00    -0.346 C  
HETATM   29  O   UNL     1     -10.030  16.107  65.228  1.00  0.00    -0.487 OA 
HETATM   30  C   UNL     1     -11.763  13.512  64.502  1.00  0.00    -0.431 C  
HETATM   31  O   UNL     1      -9.889  14.852  67.060  1.00  0.00    -0.231 OA 
HETATM   32  C   UNL     1     -12.594  12.733  65.514  1.00  0.00    -0.292 C  
HETATM   33  C   UNL     1     -12.476  14.801  64.087  1.00  0.00    -0.141 C  
ENDBRANCH   6  27
ENDBRANCH   4   5
ENDBRANCH   3   4
ENDBRANCH   2   3
TORSDOF 8
ENDMDL
MODEL       55
REMARK 921   NORMALIZED FREE ENERGY PREDICTED BY IDOCK:   -6.32 KCAL/MOL
REMARK 922        TOTAL FREE ENERGY PREDICTED BY IDOCK:   -9.80 KCAL/MOL
REMARK 923 INTER-LIGAND FREE ENERGY PREDICTED BY IDOCK:   -9.30 KCAL/MOL
REMARK 924 INTRA-LIGAND FREE ENERGY PREDICTED BY IDOCK:   -0.49 KCAL/MOL
REMARK 927      BINDING AFFINITY PREDICTED BY RF-SCORE:    0.00 PKD
ROOT
HETATM    1  C   UNL     1     -10.614  11.744  63.272  1.00  0.00    -0.427 C  
HETATM    2  C   UNL     1     -12.068  12.007  63.604  1.00  0.00    -0.627 C  
ENDROOT
BRANCH   2   3
HETATM    3  C   UNL     1     -12.270  13.322  64.361  1.00  0.00    -0.449 C  
BRANCH   3   4
HETATM    4  C   UNL     1     -11.897  13.118  65.830  1.00  0.00    -0.442 C  
BRANCH   4   5
HETATM    5  C   UNL     1     -11.090  14.249  66.430  1.00  0.00    -0.325 C  
HETATM    6  N   UNL     1      -9.744  14.031  66.718  1.00  0.00    -0.269 N  
HETATM    7  O   UNL     1     -11.625  15.335  66.671  1.00  0.00    -0.205 OA 
BRANCH   6   8
HETATM    8  C   UNL     1      -9.057  12.744  66.405  1.00  0.00    -0.089 C  
BRANCH   8   9
HETATM    9  C   UNL     1      -9.399  11.597  67.342  1.00  0.00    -0.168 A  
HETATM   10  C   UNL     1     -10.340  10.639  66.965  1.00  0.00    -0.280 A  
HETATM   11  C   UNL     1     -10.897   9.775  67.920  1.00  0.00    -0.298 A  
HETATM   12  C   UNL     1     -10.487   9.761  69.265  1.00  0.00    -0.236 A  
HETATM   13  C   UNL     1      -8.860  11.477  68.626  1.00  0.00    -0.108 A  
HETATM   14  C   UNL     1      -9.370  10.558  69.561  1.00  0.00    -0.089 A  
BRANCH  12  15
HETATM   15  C   UNL     1     -11.225   8.946  70.289  1.00  0.00    -0.219 A  
HETATM   16  C   UNL     1     -11.008   7.536  70.267  1.00  0.00    -0.264 A  
HETATM   17  C   UNL     1     -11.722   6.636  71.059  1.00  0.00    -0.415 A  
HETATM   18  C   UNL     1     -12.661   7.113  71.954  1.00  0.00    -0.312 A  
HETATM   19  C   UNL     1     -12.873   8.486  72.046  1.00  0.00    -0.414 A  
HETATM   20  C   UNL     1     -12.181   9.420  71.230  1.00  0.00    -0.425 A  
BRANCH  20  21
HETATM   21  C   UNL     1     -12.570  10.812  71.448  1.00  0.00    -0.410 A  
HETATM   22  N   UNL     1     -13.330  11.218  72.488  1.00  0.00    -0.366 NA 
HETATM   23  N   UNL     1     -13.472  12.517  72.204  1.00  0.00    -0.513 NA 
HETATM   24  H   UNL     1     -13.695  10.681  73.274  1.00  0.00     0.000 HD 
HETATM   25  N   UNL     1     -12.845  12.945  71.100  1.00  0.00    -0.294 NA 
HETATM   26  N   UNL     1     -12.295  11.851  70.588  1.00  0.00    -0.349 NA 
ENDBRANCH  20  21
ENDBRANCH  12  15
ENDBRANCH   8   9
ENDBRANCH   6   8
BRANCH   6  27
HETATM   27  C   UNL     1      -8.868  15.187  67.138  1.00  0.00    -0.216 C  
HETATM   28  C   UNL     1      -7.312  15.053  67.161  1.00  0.00    -0.069 C  
HETATM   29  O   UNL     1      -6.577  16.002  66.891  1.00  0.00    -0.275 OA 
HETATM   30  C   UNL     1      -9.414  15.959  68.380  1.00  0.00    -0.201 C  
HETATM   31  O   UNL     1      -6.775  13.897  67.584  1.00  0.00    -0.168 OA 
HETATM   32  C   UNL     1      -9.722  15.099  69.601  1.00  0.00    -0.145 C  
HETATM   33  C   UNL     1      -8.590  17.187  68.771  1.00  0.00    -0.236 C  
ENDBRANCH   6  27
ENDBRANCH   4   5
ENDBRANCH   3   4
ENDBRANCH   2   3
TORSDOF 8
ENDMDL
MODEL       56
REMARK 921   NORMALIZED FREE ENERGY PREDICTED BY IDOCK:   -6.32 KCAL/MOL
REMARK 922        TOTAL FREE ENERGY PREDICTED BY IDOCK:   -9.80 KCAL/MOL
REMARK 923 INTER-LIGAND FREE ENERGY PREDICTED BY IDOCK:   -9.84 KCAL/MOL
REMARK 924 INTRA-LIGAND FREE ENERGY PREDICTED BY IDOCK:    0.04 KCAL/MOL
REMARK 927      BINDING AFFINITY PREDICTED BY RF-SCORE:    0.00 PKD
ROOT
HETATM    1  C   UNL     1      -6.093  16.213  69.618  1.00  0.00    -0.181 C  
HETATM    2  C   UNL     1      -7.049  15.152  70.126  1.00  0.00     0.049 C  
ENDROOT
BRANCH   2   3
HETATM    3  C   UNL     1      -7.618  14.285  69.001  1.00  0.00    -0.084 C  
BRANCH   3   4
HETATM    4  C   UNL     1      -8.938  14.887  68.521  1.00  0.00    -0.179 C  
BRANCH   4   5
HETATM    5  C   UNL     1      -9.280  14.573  67.081  1.00  0.00    -0.223 C  
HETATM    6  N   UNL     1     -10.473  13.907  66.806  1.00  0.00    -0.269 N  
HETATM    7  O   UNL     1      -8.504  14.889  66.174  1.00  0.00     0.114 OA 
BRANCH   6   8
HETATM    8  C   UNL     1     -11.450  13.543  67.873  1.00  0.00    -0.318 C  
BRANCH   8   9
HETATM    9  C   UNL     1     -11.182  12.210  68.553  1.00  0.00    -0.307 A  
HETATM   10  C   UNL     1     -12.081  11.708  69.494  1.00  0.00    -0.336 A  
HETATM   11  C   UNL     1     -11.703  10.664  70.352  1.00  0.00    -0.446 A  
HETATM   12  C   UNL     1     -10.458  10.015  70.259  1.00  0.00    -0.331 A  
HETATM   13  C   UNL     1     -10.019  11.466  68.336  1.00  0.00    -0.206 A  
HETATM   14  C   UNL     1      -9.676  10.372  69.150  1.00  0.00    -0.234 A  
BRANCH  12  15
HETATM   15  C   UNL     1     -10.026   9.024  71.302  1.00  0.00    -0.381 A  
HETATM   16  C   UNL     1      -8.623   8.810  71.444  1.00  0.00    -0.254 A  
HETATM   17  C   UNL     1      -8.075   7.826  72.267  1.00  0.00    -0.141 A  
HETATM   18  C   UNL     1      -8.910   7.034  73.033  1.00  0.00    -0.148 A  
HETATM   19  C   UNL     1     -10.286   7.240  72.965  1.00  0.00    -0.334 A  
HETATM   20  C   UNL     1     -10.870   8.214  72.112  1.00  0.00    -0.370 A  
BRANCH  20  21
HETATM   21  C   UNL     1     -12.331   8.250  72.153  1.00  0.00    -0.360 A  
HETATM   22  N   UNL     1     -13.033   8.943  73.075  1.00  0.00    -0.697 NA 
HETATM   23  N   UNL     1     -14.284   8.600  72.749  1.00  0.00    -0.435 NA 
HETATM   24  H   UNL     1     -12.700   9.560  73.816  1.00  0.00     0.000 HD 
HETATM   25  N   UNL     1     -14.409   7.782  71.697  1.00  0.00    -0.458 NA 
HETATM   26  N   UNL     1     -13.160   7.522  71.330  1.00  0.00    -0.346 NA 
ENDBRANCH  20  21
ENDBRANCH  12  15
ENDBRANCH   8   9
ENDBRANCH   6   8
BRANCH   6  27
HETATM   27  C   UNL     1     -10.933  13.746  65.376  1.00  0.00    -0.309 C  
HETATM   28  C   UNL     1     -12.343  14.240  64.922  1.00  0.00    -0.425 C  
HETATM   29  O   UNL     1     -12.537  14.693  63.795  1.00  0.00    -0.820 OA 
HETATM   30  C   UNL     1     -10.564  12.360  64.759  1.00  0.00    -0.331 C  
HETATM   31  O   UNL     1     -13.381  14.068  65.757  1.00  0.00    -0.543 OA 
HETATM   32  C   UNL     1     -11.010  11.146  65.565  1.00  0.00    -0.143 C  
HETATM   33  C   UNL     1     -10.941  12.207  63.285  1.00  0.00    -0.398 C  
ENDBRANCH   6  27
ENDBRANCH   4   5
ENDBRANCH   3   4
ENDBRANCH   2   3
TORSDOF 8
ENDMDL
MODEL       57
REMARK 921   NORMALIZED FREE ENERGY PREDICTED BY IDOCK:   -6.31 KCAL/MOL
REMARK 922        TOTAL FREE ENERGY PREDICTED BY IDOCK:   -9.78 KCAL/MOL
REMARK 923 INTER-LIGAND FREE ENERGY PREDICTED BY IDOCK:   -8.59 KCAL/MOL
REMARK 924 INTRA-LIGAND FREE ENERGY PREDICTED BY IDOCK:   -1.19 KCAL/MOL
REMARK 927      BINDING AFFINITY PREDICTED BY RF-SCORE:    0.00 PKD
ROOT
HETATM    1  C   UNL     1     -11.912  10.256  71.051  1.00  0.00    -0.483 C  
HETATM    2  C   UNL     1     -10.626   9.464  71.176  1.00  0.00    -0.403 C  
ENDROOT
BRANCH   2   3
HETATM    3  C   UNL     1     -10.862   7.952  71.143  1.00  0.00    -0.257 C  
BRANCH   3   4
HETATM    4  C   UNL     1      -9.664   7.271  70.479  1.00  0.00    -0.176 C  
BRANCH   4   5
HETATM    5  C   UNL     1     -10.024   6.086  69.610  1.00  0.00    -0.170 C  
HETATM    6  N   UNL     1      -9.445   5.981  68.347  1.00  0.00    -0.119 N  
HETATM    7  O   UNL     1     -10.829   5.240  70.013  1.00  0.00    -0.245 OA 
BRANCH   6   8
HETATM    8  C   UNL     1      -8.441   6.964  67.843  1.00  0.00    -0.120 C  
BRANCH   8   9
HETATM    9  C   UNL     1      -9.007   8.333  67.504  1.00  0.00    -0.141 A  
HETATM   10  C   UNL     1      -8.215   9.474  67.638  1.00  0.00    -0.121 A  
HETATM   11  C   UNL     1      -8.801  10.749  67.641  1.00  0.00    -0.132 A  
HETATM   12  C   UNL     1     -10.175  10.956  67.425  1.00  0.00    -0.236 A  
HETATM   13  C   UNL     1     -10.335   8.532  67.117  1.00  0.00    -0.377 A  
HETATM   14  C   UNL     1     -10.903   9.817  67.048  1.00  0.00    -0.165 A  
BRANCH  12  15
HETATM   15  C   UNL     1     -10.789  12.316  67.607  1.00  0.00    -0.262 A  
HETATM   16  C   UNL     1     -10.696  12.895  68.907  1.00  0.00    -0.195 A  
HETATM   17  C   UNL     1     -11.332  14.083  69.267  1.00  0.00    -0.318 A  
HETATM   18  C   UNL     1     -12.059  14.781  68.320  1.00  0.00    -0.179 A  
HETATM   19  C   UNL     1     -12.136  14.280  67.023  1.00  0.00    -0.424 A  
HETATM   20  C   UNL     1     -11.523  13.057  66.640  1.00  0.00    -0.382 A  
BRANCH  20  21
HETATM   21  C   UNL     1     -11.752  12.681  65.246  1.00  0.00    -0.378 A  
HETATM   22  N   UNL     1     -12.981  12.551  64.703  1.00  0.00    -0.844 NA 
HETATM   23  N   UNL     1     -12.670  12.126  63.474  1.00  0.00    -0.776 NA 
HETATM   24  H   UNL     1     -13.896  12.727  65.118  1.00  0.00     0.000 HD 
HETATM   25  N   UNL     1     -11.362  12.013  63.209  1.00  0.00    -0.358 NA 
HETATM   26  N   UNL     1     -10.766  12.331  64.352  1.00  0.00    -0.308 NA 
ENDBRANCH  20  21
ENDBRANCH  12  15
ENDBRANCH   8   9
ENDBRANCH   6   8
BRANCH   6  27
HETATM   27  C   UNL     1      -9.633   4.723  67.534  1.00  0.00    -0.158 C  
HETATM   28  C   UNL     1      -8.933   3.387  67.940  1.00  0.00    -0.144 C  
HETATM   29  O   UNL     1      -9.466   2.295  67.754  1.00  0.00    -0.188 OA 
HETATM   30  C   UNL     1      -9.591   4.969  65.994  1.00  0.00    -0.179 C  
HETATM   31  O   UNL     1      -7.676   3.441  68.412  1.00  0.00    -0.056 OA 
HETATM   32  C   UNL     1      -8.361   5.711  65.483  1.00  0.00    -0.139 C  
HETATM   33  C   UNL     1      -9.868   3.723  65.149  1.00  0.00    -0.161 C  
ENDBRANCH   6  27
ENDBRANCH   4   5
ENDBRANCH   3   4
ENDBRANCH   2   3
TORSDOF 8
ENDMDL
MODEL       58
REMARK 921   NORMALIZED FREE ENERGY PREDICTED BY IDOCK:   -6.31 KCAL/MOL
REMARK 922        TOTAL FREE ENERGY PREDICTED BY IDOCK:   -9.78 KCAL/MOL
REMARK 923 INTER-LIGAND FREE ENERGY PREDICTED BY IDOCK:   -8.30 KCAL/MOL
REMARK 924 INTRA-LIGAND FREE ENERGY PREDICTED BY IDOCK:   -1.48 KCAL/MOL
REMARK 927      BINDING AFFINITY PREDICTED BY RF-SCORE:    0.00 PKD
ROOT
HETATM    1  C   UNL     1     -10.262   5.962  68.403  1.00  0.00    -0.236 C  
HETATM    2  C   UNL     1      -9.324   6.890  67.659  1.00  0.00    -0.124 C  
ENDROOT
BRANCH   2   3
HETATM    3  C   UNL     1     -10.063   7.841  66.714  1.00  0.00    -0.341 C  
BRANCH   3   4
HETATM    4  C   UNL     1      -9.123   8.977  66.310  1.00  0.00    -0.224 C  
BRANCH   4   5
HETATM    5  C   UNL     1      -9.821  10.287  66.015  1.00  0.00    -0.233 C  
HETATM    6  N   UNL     1      -9.532  11.394  66.813  1.00  0.00    -0.179 N  
HETATM    7  O   UNL     1     -10.641  10.363  65.096  1.00  0.00    -0.191 OA 
BRANCH   6   8
HETATM    8  C   UNL     1      -8.520  11.348  67.908  1.00  0.00    -0.139 C  
BRANCH   8   9
HETATM    9  C   UNL     1      -8.921  10.509  69.110  1.00  0.00    -0.171 A  
HETATM   10  C   UNL     1      -7.948   9.860  69.870  1.00  0.00    -0.193 A  
HETATM   11  C   UNL     1      -8.309   8.842  70.766  1.00  0.00    -0.185 A  
HETATM   12  C   UNL     1      -9.646   8.484  71.014  1.00  0.00    -0.241 A  
HETATM   13  C   UNL     1     -10.253  10.287  69.471  1.00  0.00    -0.261 A  
HETATM   14  C   UNL     1     -10.610   9.316  70.426  1.00  0.00    -0.298 A  
BRANCH  12  15
HETATM   15  C   UNL     1      -9.980   7.279  71.847  1.00  0.00    -0.184 A  
HETATM   16  C   UNL     1      -8.908   6.390  72.153  1.00  0.00    -0.136 A  
HETATM   17  C   UNL     1      -9.084   5.165  72.796  1.00  0.00    -0.139 A  
HETATM   18  C   UNL     1     -10.348   4.788  73.211  1.00  0.00    -0.233 A  
HETATM   19  C   UNL     1     -11.420   5.647  72.978  1.00  0.00    -0.247 A  
HETATM   20  C   UNL     1     -11.271   6.886  72.299  1.00  0.00    -0.299 A  
BRANCH  20  21
HETATM   21  C   UNL     1     -12.519   7.624  72.117  1.00  0.00    -0.217 A  
HETATM   22  N   UNL     1     -13.410   7.350  71.141  1.00  0.00    -0.595 NA 
HETATM   23  N   UNL     1     -14.308   8.321  71.340  1.00  0.00    -0.396 NA 
HETATM   24  H   UNL     1     -13.401   6.606  70.444  1.00  0.00     0.000 HD 
HETATM   25  N   UNL     1     -14.058   9.146  72.365  1.00  0.00    -0.443 NA 
HETATM   26  N   UNL     1     -12.894   8.730  72.847  1.00  0.00    -0.242 NA 
ENDBRANCH  20  21
ENDBRANCH  12  15
ENDBRANCH   8   9
ENDBRANCH   6   8
BRANCH   6  27
HETATM   27  C   UNL     1     -10.063  12.755  66.432  1.00  0.00    -0.259 C  
HETATM   28  C   UNL     1      -9.197  14.041  66.619  1.00  0.00    -0.244 C  
HETATM   29  O   UNL     1      -9.270  14.989  65.839  1.00  0.00    -0.280 OA 
HETATM   30  C   UNL     1     -11.551  12.978  66.849  1.00  0.00    -0.419 C  
HETATM   31  O   UNL     1      -8.430  14.142  67.718  1.00  0.00    -0.155 OA 
HETATM   32  C   UNL     1     -11.865  12.715  68.317  1.00  0.00    -0.354 C  
HETATM   33  C   UNL     1     -12.139  14.316  66.396  1.00  0.00    -0.442 C  
ENDBRANCH   6  27
ENDBRANCH   4   5
ENDBRANCH   3   4
ENDBRANCH   2   3
TORSDOF 8
ENDMDL
MODEL       59
REMARK 921   NORMALIZED FREE ENERGY PREDICTED BY IDOCK:   -6.26 KCAL/MOL
REMARK 922        TOTAL FREE ENERGY PREDICTED BY IDOCK:   -9.71 KCAL/MOL
REMARK 923 INTER-LIGAND FREE ENERGY PREDICTED BY IDOCK:   -8.51 KCAL/MOL
REMARK 924 INTRA-LIGAND FREE ENERGY PREDICTED BY IDOCK:   -1.21 KCAL/MOL
REMARK 927      BINDING AFFINITY PREDICTED BY RF-SCORE:    0.00 PKD
ROOT
HETATM    1  C   UNL     1     -12.813  11.960  71.627  1.00  0.00    -0.417 C  
HETATM    2  C   UNL     1     -13.047  10.575  71.057  1.00  0.00    -0.419 C  
ENDROOT
BRANCH   2   3
HETATM    3  C   UNL     1     -12.833   9.469  72.092  1.00  0.00    -0.471 C  
BRANCH   3   4
HETATM    4  C   UNL     1     -12.362   8.200  71.381  1.00  0.00    -0.323 C  
BRANCH   4   5
HETATM    5  C   UNL     1     -11.034   7.667  71.872  1.00  0.00    -0.241 C  
HETATM    6  N   UNL     1     -10.104   7.218  70.935  1.00  0.00    -0.189 N  
HETATM    7  O   UNL     1     -10.791   7.620  73.082  1.00  0.00    -0.382 OA 
BRANCH   6   8
HETATM    8  C   UNL     1     -10.349   7.295  69.465  1.00  0.00    -0.225 C  
BRANCH   8   9
HETATM    9  C   UNL     1     -10.323   8.701  68.890  1.00  0.00    -0.228 A  
HETATM   10  C   UNL     1      -9.517   9.682  69.467  1.00  0.00    -0.211 A  
HETATM   11  C   UNL     1      -9.718  11.038  69.162  1.00  0.00    -0.096 A  
HETATM   12  C   UNL     1     -10.658  11.473  68.211  1.00  0.00    -0.228 A  
HETATM   13  C   UNL     1     -11.134   9.102  67.824  1.00  0.00     0.132 A  
HETATM   14  C   UNL     1     -11.277  10.456  67.469  1.00  0.00    -0.254 A  
BRANCH  12  15
HETATM   15  C   UNL     1     -10.961  12.935  68.039  1.00  0.00    -0.271 A  
HETATM   16  C   UNL     1     -10.825  13.760  69.194  1.00  0.00    -0.205 A  
HETATM   17  C   UNL     1     -11.201  15.104  69.228  1.00  0.00    -0.287 A  
HETATM   18  C   UNL     1     -11.690  15.703  68.082  1.00  0.00    -0.209 A  
HETATM   19  C   UNL     1     -11.794  14.949  66.916  1.00  0.00    -0.202 A  
HETATM   20  C   UNL     1     -11.447  13.573  66.864  1.00  0.00    -0.374 A  
BRANCH  20  21
HETATM   21  C   UNL     1     -11.665  12.947  65.562  1.00  0.00    -0.383 A  
HETATM   22  N   UNL     1     -10.662  12.572  64.739  1.00  0.00    -0.288 NA 
HETATM   23  N   UNL     1     -11.354  12.145  63.677  1.00  0.00    -0.434 NA 
HETATM   24  H   UNL     1      -9.653  12.606  64.887  1.00  0.00     0.000 HD 
HETATM   25  N   UNL     1     -12.687  12.200  63.788  1.00  0.00    -0.719 NA 
HETATM   26  N   UNL     1     -12.896  12.748  64.979  1.00  0.00    -0.821 NA 
ENDBRANCH  20  21
ENDBRANCH  12  15
ENDBRANCH   8   9
ENDBRANCH   6   8
BRANCH   6  27
HETATM   27  C   UNL     1      -8.705   6.859  71.375  1.00  0.00    -0.126 C  
HETATM   28  C   UNL     1      -7.502   6.938  70.382  1.00  0.00    -0.086 C  
HETATM   29  O   UNL     1      -6.375   7.258  70.756  1.00  0.00    -0.038 OA 
HETATM   30  C   UNL     1      -8.646   5.587  72.277  1.00  0.00    -0.126 C  
HETATM   31  O   UNL     1      -7.694   6.547  69.111  1.00  0.00    -0.098 OA 
HETATM   32  C   UNL     1      -9.320   4.346  71.701  1.00  0.00    -0.199 C  
HETATM   33  C   UNL     1      -7.251   5.254  72.807  1.00  0.00    -0.090 C  
ENDBRANCH   6  27
ENDBRANCH   4   5
ENDBRANCH   3   4
ENDBRANCH   2   3
TORSDOF 8
ENDMDL
MODEL       60
REMARK 921   NORMALIZED FREE ENERGY PREDICTED BY IDOCK:   -6.26 KCAL/MOL
REMARK 922        TOTAL FREE ENERGY PREDICTED BY IDOCK:   -9.71 KCAL/MOL
REMARK 923 INTER-LIGAND FREE ENERGY PREDICTED BY IDOCK:   -9.01 KCAL/MOL
REMARK 924 INTRA-LIGAND FREE ENERGY PREDICTED BY IDOCK:   -0.69 KCAL/MOL
REMARK 927      BINDING AFFINITY PREDICTED BY RF-SCORE:    0.00 PKD
ROOT
HETATM    1  C   UNL     1      -7.390   5.220  68.027  1.00  0.00    -0.072 C  
HETATM    2  C   UNL     1      -7.555   6.355  67.038  1.00  0.00    -0.095 C  
ENDROOT
BRANCH   2   3
HETATM    3  C   UNL     1      -8.953   6.397  66.418  1.00  0.00    -0.162 C  
BRANCH   3   4
HETATM    4  C   UNL     1      -9.776   7.485  67.107  1.00  0.00    -0.228 C  
BRANCH   4   5
HETATM    5  C   UNL     1     -10.435   7.045  68.396  1.00  0.00    -0.201 C  
HETATM    6  N   UNL     1     -10.055   7.662  69.587  1.00  0.00    -0.190 N  
HETATM    7  O   UNL     1     -11.281   6.146  68.388  1.00  0.00    -0.330 OA 
BRANCH   6   8
HETATM    8  C   UNL     1      -9.063   8.777  69.630  1.00  0.00    -0.149 C  
BRANCH   8   9
HETATM    9  C   UNL     1      -9.509  10.051  68.933  1.00  0.00    -0.172 A  
HETATM   10  C   UNL     1      -8.686  10.658  67.984  1.00  0.00    -0.126 A  
HETATM   11  C   UNL     1      -8.927  11.979  67.575  1.00  0.00    -0.174 A  
HETATM   12  C   UNL     1     -10.037  12.722  68.016  1.00  0.00    -0.230 A  
HETATM   13  C   UNL     1     -10.703  10.709  69.243  1.00  0.00    -0.275 A  
HETATM   14  C   UNL     1     -10.979  12.006  68.770  1.00  0.00    -0.282 A  
BRANCH  12  15
HETATM   15  C   UNL     1     -10.165  14.184  67.690  1.00  0.00    -0.241 A  
HETATM   16  C   UNL     1      -9.545  15.100  68.590  1.00  0.00    -0.213 A  
HETATM   17  C   UNL     1      -9.691  16.484  68.500  1.00  0.00    -0.239 A  
HETATM   18  C   UNL     1     -10.434  17.025  67.467  1.00  0.00    -0.334 A  
HETATM   19  C   UNL     1     -11.018  16.171  66.534  1.00  0.00    -0.047 A  
HETATM   20  C   UNL     1     -10.908  14.757  66.622  1.00  0.00    -0.319 A  
BRANCH  20  21
HETATM   21  C   UNL     1     -11.624  14.034  65.573  1.00  0.00    -0.332 A  
HETATM   22  N   UNL     1     -11.504  14.318  64.258  1.00  0.00    -0.617 NA 
HETATM   23  N   UNL     1     -12.391  13.465  63.734  1.00  0.00    -0.704 NA 
HETATM   24  H   UNL     1     -10.902  14.997  63.793  1.00  0.00     0.000 HD 
HETATM   25  N   UNL     1     -13.021  12.668  64.607  1.00  0.00    -0.844 NA 
HETATM   26  N   UNL     1     -12.563  13.051  65.793  1.00  0.00    -0.504 NA 
ENDBRANCH  20  21
ENDBRANCH  12  15
ENDBRANCH   8   9
ENDBRANCH   6   8
BRANCH   6  27
HETATM   27  C   UNL     1     -10.821   7.383  70.858  1.00  0.00    -0.240 C  
HETATM   28  C   UNL     1     -10.771   8.373  72.064  1.00  0.00    -0.317 C  
HETATM   29  O   UNL     1     -11.743   8.550  72.797  1.00  0.00    -0.317 OA 
HETATM   30  C   UNL     1     -10.746   5.892  71.312  1.00  0.00    -0.325 C  
HETATM   31  O   UNL     1      -9.601   8.965  72.359  1.00  0.00    -0.278 OA 
HETATM   32  C   UNL     1      -9.340   5.319  71.444  1.00  0.00    -0.184 C  
HETATM   33  C   UNL     1     -11.587   5.566  72.548  1.00  0.00    -0.272 C  
ENDBRANCH   6  27
ENDBRANCH   4   5
ENDBRANCH   3   4
ENDBRANCH   2   3
TORSDOF 8
ENDMDL
MODEL       61
REMARK 921   NORMALIZED FREE ENERGY PREDICTED BY IDOCK:   -6.23 KCAL/MOL
REMARK 922        TOTAL FREE ENERGY PREDICTED BY IDOCK:   -9.67 KCAL/MOL
REMARK 923 INTER-LIGAND FREE ENERGY PREDICTED BY IDOCK:   -8.09 KCAL/MOL
REMARK 924 INTRA-LIGAND FREE ENERGY PREDICTED BY IDOCK:   -1.57 KCAL/MOL
REMARK 927      BINDING AFFINITY PREDICTED BY RF-SCORE:    0.00 PKD
ROOT
HETATM    1  C   UNL     1      -6.121  11.150  67.042  1.00  0.00    -0.092 C  
HETATM    2  C   UNL     1      -6.959  11.018  68.297  1.00  0.00    -0.069 C  
ENDROOT
BRANCH   2   3
HETATM    3  C   UNL     1      -7.014   9.580  68.819  1.00  0.00    -0.067 C  
BRANCH   3   4
HETATM    4  C   UNL     1      -6.549   8.628  67.717  1.00  0.00    -0.062 C  
BRANCH   4   5
HETATM    5  C   UNL     1      -6.910   7.177  67.953  1.00  0.00    -0.074 C  
HETATM    6  N   UNL     1      -7.718   6.529  67.021  1.00  0.00    -0.098 N  
HETATM    7  O   UNL     1      -6.506   6.591  68.962  1.00  0.00    -0.039 OA 
BRANCH   6   8
HETATM    8  C   UNL     1      -8.193   7.194  65.772  1.00  0.00    -0.132 C  
BRANCH   8   9
HETATM    9  C   UNL     1      -9.106   8.388  65.997  1.00  0.00    -0.235 A  
HETATM   10  C   UNL     1      -8.960   9.540  65.224  1.00  0.00    -0.244 A  
HETATM   11  C   UNL     1      -9.561  10.744  65.622  1.00  0.00    -0.263 A  
HETATM   12  C   UNL     1     -10.402  10.841  66.745  1.00  0.00    -0.294 A  
HETATM   13  C   UNL     1     -10.071   8.428  67.008  1.00  0.00    -0.354 A  
HETATM   14  C   UNL     1     -10.730   9.621  67.357  1.00  0.00    -0.308 A  
BRANCH  12  15
HETATM   15  C   UNL     1     -10.886  12.177  67.234  1.00  0.00    -0.286 A  
HETATM   16  C   UNL     1     -10.591  12.511  68.588  1.00  0.00    -0.240 A  
HETATM   17  C   UNL     1     -11.089  13.648  69.225  1.00  0.00    -0.241 A  
HETATM   18  C   UNL     1     -11.873  14.539  68.515  1.00  0.00    -0.355 A  
HETATM   19  C   UNL     1     -12.147  14.279  67.175  1.00  0.00    -0.412 A  
HETATM   20  C   UNL     1     -11.677  13.114  66.513  1.00  0.00    -0.433 A  
BRANCH  20  21
HETATM   21  C   UNL     1     -12.103  13.002  65.119  1.00  0.00    -0.433 A  
HETATM   22  N   UNL     1     -11.772  13.898  64.165  1.00  0.00    -0.581 NA 
HETATM   23  N   UNL     1     -12.449  13.414  63.118  1.00  0.00    -0.692 NA 
HETATM   24  H   UNL     1     -11.170  14.719  64.227  1.00  0.00     0.000 HD 
HETATM   25  N   UNL     1     -13.141  12.289  63.340  1.00  0.00    -0.663 NA 
HETATM   26  N   UNL     1     -12.955  12.037  64.630  1.00  0.00    -0.450 NA 
ENDBRANCH  20  21
ENDBRANCH  12  15
ENDBRANCH   8   9
ENDBRANCH   6   8
BRANCH   6  27
HETATM   27  C   UNL     1      -7.942   5.039  67.126  1.00  0.00    -0.100 C  
HETATM   28  C   UNL     1      -7.538   4.079  65.962  1.00  0.00    -0.089 C  
HETATM   29  O   UNL     1      -7.126   2.940  66.177  1.00  0.00    -0.058 OA 
HETATM   30  C   UNL     1      -9.320   4.662  67.753  1.00  0.00    -0.171 C  
HETATM   31  O   UNL     1      -7.745   4.482  64.698  1.00  0.00    -0.078 OA 
HETATM   32  C   UNL     1     -10.536   5.301  67.093  1.00  0.00    -0.261 C  
HETATM   33  C   UNL     1      -9.532   3.160  67.952  1.00  0.00    -0.215 C  
ENDBRANCH   6  27
ENDBRANCH   4   5
ENDBRANCH   3   4
ENDBRANCH   2   3
TORSDOF 8
ENDMDL
MODEL       62
REMARK 921   NORMALIZED FREE ENERGY PREDICTED BY IDOCK:   -6.15 KCAL/MOL
REMARK 922        TOTAL FREE ENERGY PREDICTED BY IDOCK:   -9.56 KCAL/MOL
REMARK 923 INTER-LIGAND FREE ENERGY PREDICTED BY IDOCK:   -9.81 KCAL/MOL
REMARK 924 INTRA-LIGAND FREE ENERGY PREDICTED BY IDOCK:    0.26 KCAL/MOL
REMARK 927      BINDING AFFINITY PREDICTED BY RF-SCORE:    0.00 PKD
ROOT
HETATM    1  C   UNL     1     -14.010   7.655  71.542  1.00  0.00    -0.500 C  
HETATM    2  C   UNL     1     -14.256   8.978  72.238  1.00  0.00    -0.432 C  
ENDROOT
BRANCH   2   3
HETATM    3  C   UNL     1     -13.073   9.941  72.107  1.00  0.00    -0.497 C  
BRANCH   3   4
HETATM    4  C   UNL     1     -12.342   9.661  70.793  1.00  0.00    -0.279 C  
BRANCH   4   5
HETATM    5  C   UNL     1     -10.899   9.238  70.962  1.00  0.00    -0.314 C  
HETATM    6  N   UNL     1     -10.128   9.017  69.822  1.00  0.00    -0.193 N  
HETATM    7  O   UNL     1     -10.425   9.077  72.091  1.00  0.00    -0.321 OA 
BRANCH   6   8
HETATM    8  C   UNL     1     -10.657   9.237  68.444  1.00  0.00    -0.190 C  
BRANCH   8   9
HETATM    9  C   UNL     1     -10.599  10.677  67.963  1.00  0.00    -0.248 A  
HETATM   10  C   UNL     1      -9.903  11.002  66.798  1.00  0.00    -0.229 A  
HETATM   11  C   UNL     1      -9.570  12.336  66.518  1.00  0.00    -0.242 A  
HETATM   12  C   UNL     1      -9.984  13.411  67.326  1.00  0.00    -0.232 A  
HETATM   13  C   UNL     1     -11.161  11.740  68.676  1.00  0.00    -0.289 A  
HETATM   14  C   UNL     1     -10.886  13.081  68.348  1.00  0.00    -0.280 A  
BRANCH  12  15
HETATM   15  C   UNL     1      -9.464  14.801  67.088  1.00  0.00    -0.233 A  
HETATM   16  C   UNL     1      -8.432  15.259  67.958  1.00  0.00    -0.147 A  
HETATM   17  C   UNL     1      -7.945  16.567  67.952  1.00  0.00    -0.165 A  
HETATM   18  C   UNL     1      -8.439  17.473  67.032  1.00  0.00    -0.252 A  
HETATM   19  C   UNL     1      -9.413  17.057  66.128  1.00  0.00    -0.253 A  
HETATM   20  C   UNL     1      -9.946  15.740  66.135  1.00  0.00    -0.334 A  
BRANCH  20  21
HETATM   21  C   UNL     1     -10.988  15.509  65.135  1.00  0.00    -0.409 A  
HETATM   22  N   UNL     1     -11.315  16.405  64.181  1.00  0.00    -1.422 NA 
HETATM   23  N   UNL     1     -12.341  15.783  63.591  1.00  0.00    -0.383 NA 
HETATM   24  H   UNL     1     -10.894  17.310  63.968  1.00  0.00     0.000 HD 
HETATM   25  N   UNL     1     -12.652  14.576  64.083  1.00  0.00    -0.768 NA 
HETATM   26  N   UNL     1     -11.813  14.407  65.097  1.00  0.00    -0.372 NA 
ENDBRANCH  20  21
ENDBRANCH  12  15
ENDBRANCH   8   9
ENDBRANCH   6   8
BRANCH   6  27
HETATM   27  C   UNL     1      -8.642   8.780  69.952  1.00  0.00    -0.133 C  
HETATM   28  C   UNL     1      -7.637   9.973  70.018  1.00  0.00    -0.172 C  
HETATM   29  O   UNL     1      -6.610   9.917  70.692  1.00  0.00    -0.111 OA 
HETATM   30  C   UNL     1      -8.120   7.616  69.053  1.00  0.00    -0.126 C  
HETATM   31  O   UNL     1      -7.861  11.043  69.236  1.00  0.00    -0.129 OA 
HETATM   32  C   UNL     1      -8.480   7.718  67.575  1.00  0.00    -0.120 C  
HETATM   33  C   UNL     1      -6.634   7.298  69.233  1.00  0.00    -0.041 C  
ENDBRANCH   6  27
ENDBRANCH   4   5
ENDBRANCH   3   4
ENDBRANCH   2   3
TORSDOF 8
ENDMDL
MODEL       63
REMARK 921   NORMALIZED FREE ENERGY PREDICTED BY IDOCK:   -6.13 KCAL/MOL
REMARK 922        TOTAL FREE ENERGY PREDICTED BY IDOCK:   -9.52 KCAL/MOL
REMARK 923 INTER-LIGAND FREE ENERGY PREDICTED BY IDOCK:   -9.52 KCAL/MOL
REMARK 924 INTRA-LIGAND FREE ENERGY PREDICTED BY IDOCK:    0.00 KCAL/MOL
REMARK 927      BINDING AFFINITY PREDICTED BY RF-SCORE:    0.00 PKD
ROOT
HETATM    1  C   UNL     1     -14.381   7.576  71.664  1.00  0.00    -0.621 C  
HETATM    2  C   UNL     1     -14.061   8.833  72.448  1.00  0.00    -0.485 C  
ENDROOT
BRANCH   2   3
HETATM    3  C   UNL     1     -12.607   9.280  72.274  1.00  0.00    -0.402 C  
BRANCH   3   4
HETATM    4  C   UNL     1     -12.164   8.997  70.838  1.00  0.00    -0.205 C  
BRANCH   4   5
HETATM    5  C   UNL     1     -10.665   8.884  70.660  1.00  0.00    -0.234 C  
HETATM    6  N   UNL     1     -10.133   8.997  69.377  1.00  0.00    -0.192 N  
HETATM    7  O   UNL     1      -9.936   8.679  71.636  1.00  0.00    -0.226 OA 
BRANCH   6   8
HETATM    8  C   UNL     1     -10.980   9.281  68.182  1.00  0.00    -0.002 C  
BRANCH   8   9
HETATM    9  C   UNL     1     -11.280  10.753  67.951  1.00  0.00    -0.386 A  
HETATM   10  C   UNL     1     -10.985  11.347  66.724  1.00  0.00    -0.347 A  
HETATM   11  C   UNL     1     -10.953  12.745  66.600  1.00  0.00    -0.300 A  
HETATM   12  C   UNL     1     -11.298  13.610  67.654  1.00  0.00    -0.328 A  
HETATM   13  C   UNL     1     -11.789  11.590  68.948  1.00  0.00    -0.406 A  
HETATM   14  C   UNL     1     -11.828  12.988  68.794  1.00  0.00    -0.355 A  
BRANCH  12  15
HETATM   15  C   UNL     1     -11.087  15.094  67.534  1.00  0.00    -0.319 A  
HETATM   16  C   UNL     1     -10.579  15.573  66.291  1.00  0.00    -0.310 A  
HETATM   17  C   UNL     1     -10.202  16.898  66.074  1.00  0.00    -0.350 A  
HETATM   18  C   UNL     1     -10.363  17.827  67.085  1.00  0.00    -0.354 A  
HETATM   19  C   UNL     1     -10.902  17.415  68.302  1.00  0.00    -0.256 A  
HETATM   20  C   UNL     1     -11.265  16.066  68.557  1.00  0.00    -0.374 A  
BRANCH  20  21
HETATM   21  C   UNL     1     -11.774  15.826  69.906  1.00  0.00    -0.357 A  
HETATM   22  N   UNL     1     -13.084  15.889  70.229  1.00  0.00    -0.682 NA 
HETATM   23  N   UNL     1     -13.028  15.684  71.549  1.00  0.00    -0.467 NA 
HETATM   24  H   UNL     1     -13.893  16.050  69.630  1.00  0.00     0.000 HD 
HETATM   25  N   UNL     1     -11.806  15.474  72.056  1.00  0.00    -0.407 NA 
HETATM   26  N   UNL     1     -10.991  15.600  71.016  1.00  0.00    -0.305 NA 
ENDBRANCH  20  21
ENDBRANCH  12  15
ENDBRANCH   8   9
ENDBRANCH   6   8
BRANCH   6  27
HETATM   27  C   UNL     1      -8.637   9.078  69.187  1.00  0.00    -0.133 C  
HETATM   28  C   UNL     1      -7.880  10.438  69.313  1.00  0.00    -0.147 C  
HETATM   29  O   UNL     1      -6.738  10.503  69.766  1.00  0.00    -0.092 OA 
HETATM   30  C   UNL     1      -8.117   8.220  67.992  1.00  0.00    -0.127 C  
HETATM   31  O   UNL     1      -8.462  11.543  68.818  1.00  0.00    -0.137 OA 
HETATM   32  C   UNL     1      -8.803   8.477  66.655  1.00  0.00    -0.157 C  
HETATM   33  C   UNL     1      -6.595   8.215  67.834  1.00  0.00    -0.061 C  
ENDBRANCH   6  27
ENDBRANCH   4   5
ENDBRANCH   3   4
ENDBRANCH   2   3
TORSDOF 8
ENDMDL
MODEL       64
REMARK 921   NORMALIZED FREE ENERGY PREDICTED BY IDOCK:   -6.13 KCAL/MOL
REMARK 922        TOTAL FREE ENERGY PREDICTED BY IDOCK:   -9.52 KCAL/MOL
REMARK 923 INTER-LIGAND FREE ENERGY PREDICTED BY IDOCK:   -9.86 KCAL/MOL
REMARK 924 INTRA-LIGAND FREE ENERGY PREDICTED BY IDOCK:    0.34 KCAL/MOL
REMARK 927      BINDING AFFINITY PREDICTED BY RF-SCORE:    0.00 PKD
ROOT
HETATM    1  C   UNL     1      -9.243  17.645  67.882  1.00  0.00    -0.267 C  
HETATM    2  C   UNL     1     -10.706  17.265  67.779  1.00  0.00    -0.333 C  
ENDROOT
BRANCH   2   3
HETATM    3  C   UNL     1     -11.111  16.202  68.804  1.00  0.00    -0.354 C  
BRANCH   3   4
HETATM    4  C   UNL     1     -10.084  15.069  68.784  1.00  0.00    -0.231 C  
BRANCH   4   5
HETATM    5  C   UNL     1     -10.187  14.157  67.580  1.00  0.00    -0.241 C  
HETATM    6  N   UNL     1     -11.102  13.106  67.613  1.00  0.00    -0.261 N  
HETATM    7  O   UNL     1      -9.460  14.338  66.599  1.00  0.00    -0.264 OA 
BRANCH   6   8
HETATM    8  C   UNL     1     -12.022  12.881  68.766  1.00  0.00    -0.253 C  
BRANCH   8   9
HETATM    9  C   UNL     1     -11.662  11.694  69.643  1.00  0.00    -0.418 A  
HETATM   10  C   UNL     1     -10.472  10.998  69.431  1.00  0.00    -0.177 A  
HETATM   11  C   UNL     1     -10.278   9.731  70.002  1.00  0.00    -0.308 A  
HETATM   12  C   UNL     1     -11.208   9.138  70.875  1.00  0.00    -0.359 A  
HETATM   13  C   UNL     1     -12.511  11.199  70.638  1.00  0.00    -0.448 A  
HETATM   14  C   UNL     1     -12.275   9.961  71.265  1.00  0.00    -0.480 A  
BRANCH  12  15
HETATM   15  C   UNL     1     -11.044   7.714  71.326  1.00  0.00    -0.268 A  
HETATM   16  C   UNL     1     -11.149   7.467  72.727  1.00  0.00    -0.416 A  
HETATM   17  C   UNL     1     -10.885   6.228  73.311  1.00  0.00    -0.269 A  
HETATM   18  C   UNL     1     -10.547   5.155  72.509  1.00  0.00    -0.275 A  
HETATM   19  C   UNL     1     -10.481   5.335  71.129  1.00  0.00    -0.275 A  
HETATM   20  C   UNL     1     -10.716   6.594  70.513  1.00  0.00    -0.293 A  
BRANCH  20  21
HETATM   21  C   UNL     1     -10.559   6.589  69.060  1.00  0.00    -0.245 A  
HETATM   22  N   UNL     1     -11.596   6.497  68.200  1.00  0.00    -0.511 NA 
HETATM   23  N   UNL     1     -10.950   6.452  67.030  1.00  0.00    -0.394 NA 
HETATM   24  H   UNL     1     -12.597   6.470  68.391  1.00  0.00     0.000 HD 
HETATM   25  N   UNL     1      -9.615   6.535  67.097  1.00  0.00    -0.131 NA 
HETATM   26  N   UNL     1      -9.352   6.586  68.397  1.00  0.00    -0.123 NA 
ENDBRANCH  20  21
ENDBRANCH  12  15
ENDBRANCH   8   9
ENDBRANCH   6   8
BRANCH   6  27
HETATM   27  C   UNL     1     -11.364  12.297  66.365  1.00  0.00    -0.354 C  
HETATM   28  C   UNL     1     -10.228  11.464  65.690  1.00  0.00    -0.251 C  
HETATM   29  O   UNL     1     -10.457  10.395  65.128  1.00  0.00    -0.255 OA 
HETATM   30  C   UNL     1     -12.253  13.041  65.320  1.00  0.00    -0.513 C  
HETATM   31  O   UNL     1      -8.992  11.988  65.642  1.00  0.00    -0.015 OA 
HETATM   32  C   UNL     1     -11.769  14.430  64.919  1.00  0.00    -0.408 C  
HETATM   33  C   UNL     1     -12.605  12.208  64.086  1.00  0.00    -0.466 C  
ENDBRANCH   6  27
ENDBRANCH   4   5
ENDBRANCH   3   4
ENDBRANCH   2   3
TORSDOF 8
ENDMDL
MODEL       65
REMARK 921   NORMALIZED FREE ENERGY PREDICTED BY IDOCK:   -6.12 KCAL/MOL
REMARK 922        TOTAL FREE ENERGY PREDICTED BY IDOCK:   -9.51 KCAL/MOL
REMARK 923 INTER-LIGAND FREE ENERGY PREDICTED BY IDOCK:   -9.19 KCAL/MOL
REMARK 924 INTRA-LIGAND FREE ENERGY PREDICTED BY IDOCK:   -0.31 KCAL/MOL
REMARK 927      BINDING AFFINITY PREDICTED BY RF-SCORE:    0.00 PKD
ROOT
HETATM    1  C   UNL     1      -8.608   8.851  66.301  1.00  0.00    -0.145 C  
HETATM    2  C   UNL     1     -10.075   8.529  66.501  1.00  0.00    -0.328 C  
ENDROOT
BRANCH   2   3
HETATM    3  C   UNL     1     -10.292   7.183  67.198  1.00  0.00    -0.359 C  
BRANCH   3   4
HETATM    4  C   UNL     1     -10.765   7.431  68.631  1.00  0.00    -0.134 C  
BRANCH   4   5
HETATM    5  C   UNL     1      -9.647   7.605  69.635  1.00  0.00    -0.160 C  
HETATM    6  N   UNL     1      -9.690   8.695  70.503  1.00  0.00    -0.173 N  
HETATM    7  O   UNL     1      -8.709   6.802  69.668  1.00  0.00    -0.135 OA 
BRANCH   6   8
HETATM    8  C   UNL     1     -10.825   9.664  70.516  1.00  0.00    -0.309 C  
BRANCH   8   9
HETATM    9  C   UNL     1     -10.767  10.725  69.430  1.00  0.00    -0.272 A  
HETATM   10  C   UNL     1      -9.536  11.171  68.948  1.00  0.00    -0.136 A  
HETATM   11  C   UNL     1      -9.452  12.354  68.197  1.00  0.00    -0.214 A  
HETATM   12  C   UNL     1     -10.585  13.095  67.816  1.00  0.00    -0.242 A  
HETATM   13  C   UNL     1     -11.906  11.351  68.916  1.00  0.00    -0.413 A  
HETATM   14  C   UNL     1     -11.820  12.494  68.100  1.00  0.00    -0.371 A  
BRANCH  12  15
HETATM   15  C   UNL     1     -10.442  14.441  67.162  1.00  0.00    -0.263 A  
HETATM   16  C   UNL     1     -10.048  15.525  68.001  1.00  0.00    -0.223 A  
HETATM   17  C   UNL     1     -10.006  16.852  67.573  1.00  0.00    -0.268 A  
HETATM   18  C   UNL     1     -10.314  17.154  66.259  1.00  0.00    -0.315 A  
HETATM   19  C   UNL     1     -10.657  16.122  65.390  1.00  0.00    -0.399 A  
HETATM   20  C   UNL     1     -10.736  14.767  65.809  1.00  0.00    -0.333 A  
BRANCH  20  21
HETATM   21  C   UNL     1     -11.151  13.838  64.760  1.00  0.00    -0.377 A  
HETATM   22  N   UNL     1     -10.284  13.188  63.955  1.00  0.00    -0.725 NA 
HETATM   23  N   UNL     1     -11.128  12.547  63.140  1.00  0.00    -0.226 NA 
HETATM   24  H   UNL     1      -9.264  13.187  63.966  1.00  0.00     0.000 HD 
HETATM   25  N   UNL     1     -12.431  12.725  63.392  1.00  0.00    -0.721 NA 
HETATM   26  N   UNL     1     -12.457  13.581  64.406  1.00  0.00    -0.627 NA 
ENDBRANCH  20  21
ENDBRANCH  12  15
ENDBRANCH   8   9
ENDBRANCH   6   8
BRANCH   6  27
HETATM   27  C   UNL     1      -8.696   8.795  71.636  1.00  0.00    -0.185 C  
HETATM   28  C   UNL     1      -7.161   8.865  71.359  1.00  0.00    -0.082 C  
HETATM   29  O   UNL     1      -6.404   9.520  72.074  1.00  0.00    -0.296 OA 
HETATM   30  C   UNL     1      -9.039   7.867  72.843  1.00  0.00    -0.281 C  
HETATM   31  O   UNL     1      -6.653   8.106  70.374  1.00  0.00    -0.036 OA 
HETATM   32  C   UNL     1      -9.253   6.397  72.498  1.00  0.00    -0.139 C  
HETATM   33  C   UNL     1      -8.096   8.015  74.039  1.00  0.00    -0.303 C  
ENDBRANCH   6  27
ENDBRANCH   4   5
ENDBRANCH   3   4
ENDBRANCH   2   3
TORSDOF 8
ENDMDL
MODEL       66
REMARK 921   NORMALIZED FREE ENERGY PREDICTED BY IDOCK:   -6.12 KCAL/MOL
REMARK 922        TOTAL FREE ENERGY PREDICTED BY IDOCK:   -9.51 KCAL/MOL
REMARK 923 INTER-LIGAND FREE ENERGY PREDICTED BY IDOCK:   -8.09 KCAL/MOL
REMARK 924 INTRA-LIGAND FREE ENERGY PREDICTED BY IDOCK:   -1.41 KCAL/MOL
REMARK 927      BINDING AFFINITY PREDICTED BY RF-SCORE:    0.00 PKD
ROOT
HETATM    1  C   UNL     1      -6.607   8.150  68.966  1.00  0.00    -0.048 C  
HETATM    2  C   UNL     1      -6.875   9.026  67.759  1.00  0.00    -0.070 C  
ENDROOT
BRANCH   2   3
HETATM    3  C   UNL     1      -6.819  10.519  68.092  1.00  0.00    -0.072 C  
BRANCH   3   4
HETATM    4  C   UNL     1      -7.413  11.314  66.929  1.00  0.00    -0.145 C  
BRANCH   4   5
HETATM    5  C   UNL     1      -8.102  12.597  67.341  1.00  0.00    -0.182 C  
HETATM    6  N   UNL     1      -9.426  12.800  66.954  1.00  0.00    -0.228 N  
HETATM    7  O   UNL     1      -7.492  13.450  67.994  1.00  0.00    -0.109 OA 
BRANCH   6   8
HETATM    8  C   UNL     1     -10.205  11.776  66.198  1.00  0.00    -0.220 C  
BRANCH   8   9
HETATM    9  C   UNL     1     -10.502  10.504  66.973  1.00  0.00    -0.304 A  
HETATM   10  C   UNL     1     -10.764  10.560  68.342  1.00  0.00    -0.262 A  
HETATM   11  C   UNL     1     -10.721   9.394  69.122  1.00  0.00    -0.216 A  
HETATM   12  C   UNL     1     -10.506   8.117  68.573  1.00  0.00    -0.199 A  
HETATM   13  C   UNL     1     -10.461   9.233  66.393  1.00  0.00    -0.157 A  
HETATM   14  C   UNL     1     -10.494   8.061  67.171  1.00  0.00    -0.408 A  
BRANCH  12  15
HETATM   15  C   UNL     1     -10.297   6.921  69.459  1.00  0.00    -0.224 A  
HETATM   16  C   UNL     1      -9.336   5.961  69.026  1.00  0.00    -0.138 A  
HETATM   17  C   UNL     1      -9.130   4.738  69.665  1.00  0.00    -0.163 A  
HETATM   18  C   UNL     1      -9.849   4.436  70.806  1.00  0.00    -0.273 A  
HETATM   19  C   UNL     1     -10.764   5.365  71.295  1.00  0.00    -0.249 A  
HETATM   20  C   UNL     1     -11.013   6.604  70.646  1.00  0.00    -0.329 A  
BRANCH  20  21
HETATM   21  C   UNL     1     -12.037   7.424  71.290  1.00  0.00    -0.328 A  
HETATM   22  N   UNL     1     -13.316   7.491  70.862  1.00  0.00    -0.592 NA 
HETATM   23  N   UNL     1     -13.815   8.405  71.701  1.00  0.00    -0.382 NA 
HETATM   24  H   UNL     1     -13.774   6.984  70.106  1.00  0.00     0.000 HD 
HETATM   25  N   UNL     1     -12.964   8.881  72.619  1.00  0.00    -0.356 NA 
HETATM   26  N   UNL     1     -11.811   8.286  72.340  1.00  0.00    -0.388 NA 
ENDBRANCH  20  21
ENDBRANCH  12  15
ENDBRANCH   8   9
ENDBRANCH   6   8
BRANCH   6  27
HETATM   27  C   UNL     1     -10.199  13.975  67.504  1.00  0.00    -0.244 C  
HETATM   28  C   UNL     1     -11.693  13.827  67.935  1.00  0.00    -0.360 C  
HETATM   29  O   UNL     1     -12.160  14.464  68.878  1.00  0.00    -0.311 OA 
HETATM   30  C   UNL     1      -9.934  15.306  66.734  1.00  0.00    -0.249 C  
HETATM   31  O   UNL     1     -12.502  13.060  67.186  1.00  0.00    -0.242 OA 
HETATM   32  C   UNL     1     -10.137  15.240  65.224  1.00  0.00    -0.362 C  
HETATM   33  C   UNL     1     -10.638  16.529  67.326  1.00  0.00    -0.285 C  
ENDBRANCH   6  27
ENDBRANCH   4   5
ENDBRANCH   3   4
ENDBRANCH   2   3
TORSDOF 8
ENDMDL
MODEL       67
REMARK 921   NORMALIZED FREE ENERGY PREDICTED BY IDOCK:   -6.10 KCAL/MOL
REMARK 922        TOTAL FREE ENERGY PREDICTED BY IDOCK:   -9.48 KCAL/MOL
REMARK 923 INTER-LIGAND FREE ENERGY PREDICTED BY IDOCK:   -9.97 KCAL/MOL
REMARK 924 INTRA-LIGAND FREE ENERGY PREDICTED BY IDOCK:    0.49 KCAL/MOL
REMARK 927      BINDING AFFINITY PREDICTED BY RF-SCORE:    0.00 PKD
ROOT
HETATM    1  C   UNL     1      -8.896   5.425  65.304  1.00  0.00    -0.132 C  
HETATM    2  C   UNL     1      -9.730   6.081  66.385  1.00  0.00    -0.158 C  
ENDROOT
BRANCH   2   3
HETATM    3  C   UNL     1     -10.181   5.092  67.462  1.00  0.00    -0.184 C  
BRANCH   3   4
HETATM    4  C   UNL     1     -10.623   5.868  68.703  1.00  0.00    -0.323 C  
BRANCH   4   5
HETATM    5  C   UNL     1      -9.489   6.284  69.614  1.00  0.00    -0.146 C  
HETATM    6  N   UNL     1      -9.796   6.867  70.842  1.00  0.00    -0.185 N  
HETATM    7  O   UNL     1      -8.316   6.122  69.262  1.00  0.00    -0.114 OA 
BRANCH   6   8
HETATM    8  C   UNL     1     -11.200   7.044  71.315  1.00  0.00    -0.264 C  
BRANCH   8   9
HETATM    9  C   UNL     1     -11.779   8.430  71.083  1.00  0.00    -0.315 A  
HETATM   10  C   UNL     1     -11.142   9.322  70.221  1.00  0.00    -0.289 A  
HETATM   11  C   UNL     1     -11.469  10.687  70.242  1.00  0.00    -0.422 A  
HETATM   12  C   UNL     1     -12.497  11.211  71.046  1.00  0.00    -0.506 A  
HETATM   13  C   UNL     1     -12.911   8.903  71.753  1.00  0.00    -0.419 A  
HETATM   14  C   UNL     1     -13.283  10.259  71.713  1.00  0.00    -0.534 A  
BRANCH  12  15
HETATM   15  C   UNL     1     -12.701  12.695  71.167  1.00  0.00    -0.347 A  
HETATM   16  C   UNL     1     -13.479  13.150  72.272  1.00  0.00    -0.665 A  
HETATM   17  C   UNL     1     -13.871  14.478  72.442  1.00  0.00    -0.587 A  
HETATM   18  C   UNL     1     -13.456  15.432  71.532  1.00  0.00    -0.601 A  
HETATM   19  C   UNL     1     -12.653  15.044  70.463  1.00  0.00    -0.420 A  
HETATM   20  C   UNL     1     -12.267  13.693  70.251  1.00  0.00    -0.423 A  
BRANCH  20  21
HETATM   21  C   UNL     1     -11.457  13.482  69.053  1.00  0.00    -0.303 A  
HETATM   22  N   UNL     1     -10.131  13.730  68.997  1.00  0.00    -0.432 NA 
HETATM   23  N   UNL     1      -9.880  13.467  67.710  1.00  0.00    -0.227 NA 
HETATM   24  H   UNL     1      -9.496  14.035  69.734  1.00  0.00     0.000 HD 
HETATM   25  N   UNL     1     -10.926  13.054  66.983  1.00  0.00    -0.261 NA 
HETATM   26  N   UNL     1     -11.950  13.096  67.826  1.00  0.00    -0.339 NA 
ENDBRANCH  20  21
ENDBRANCH  12  15
ENDBRANCH   8   9
ENDBRANCH   6   8
BRANCH   6  27
HETATM   27  C   UNL     1      -8.701   7.119  71.851  1.00  0.00    -0.120 C  
HETATM   28  C   UNL     1      -7.551   6.086  72.069  1.00  0.00    -0.097 C  
HETATM   29  O   UNL     1      -6.407   6.440  72.352  1.00  0.00    -0.052 OA 
HETATM   30  C   UNL     1      -9.222   7.717  73.195  1.00  0.00    -0.302 C  
HETATM   31  O   UNL     1      -7.853   4.777  72.042  1.00  0.00    -0.095 OA 
HETATM   32  C   UNL     1     -10.346   6.935  73.866  1.00  0.00    -0.398 C  
HETATM   33  C   UNL     1      -8.122   8.064  74.200  1.00  0.00    -0.309 C  
ENDBRANCH   6  27
ENDBRANCH   4   5
ENDBRANCH   3   4
ENDBRANCH   2   3
TORSDOF 8
ENDMDL
MODEL       68
REMARK 921   NORMALIZED FREE ENERGY PREDICTED BY IDOCK:   -6.10 KCAL/MOL
REMARK 922        TOTAL FREE ENERGY PREDICTED BY IDOCK:   -9.48 KCAL/MOL
REMARK 923 INTER-LIGAND FREE ENERGY PREDICTED BY IDOCK:   -8.73 KCAL/MOL
REMARK 924 INTRA-LIGAND FREE ENERGY PREDICTED BY IDOCK:   -0.74 KCAL/MOL
REMARK 927      BINDING AFFINITY PREDICTED BY RF-SCORE:    0.00 PKD
ROOT
HETATM    1  C   UNL     1      -6.161  10.225  66.436  1.00  0.00    -0.074 C  
HETATM    2  C   UNL     1      -6.501  11.262  67.487  1.00  0.00    -0.072 C  
ENDROOT
BRANCH   2   3
HETATM    3  C   UNL     1      -6.724  10.646  68.870  1.00  0.00    -0.062 C  
BRANCH   3   4
HETATM    4  C   UNL     1      -7.113   9.176  68.708  1.00  0.00    -0.073 C  
BRANCH   4   5
HETATM    5  C   UNL     1      -7.846   8.592  69.897  1.00  0.00    -0.096 C  
HETATM    6  N   UNL     1      -9.139   8.106  69.712  1.00  0.00    -0.148 N  
HETATM    7  O   UNL     1      -7.308   8.564  71.008  1.00  0.00    -0.058 OA 
BRANCH   6   8
HETATM    8  C   UNL     1      -9.805   8.089  68.377  1.00  0.00    -0.171 C  
BRANCH   8   9
HETATM    9  C   UNL     1     -10.087   9.463  67.791  1.00  0.00    -0.246 A  
HETATM   10  C   UNL     1      -9.693   9.765  66.487  1.00  0.00    -0.267 A  
HETATM   11  C   UNL     1      -9.653  11.097  66.048  1.00  0.00    -0.248 A  
HETATM   12  C   UNL     1     -10.082  12.175  66.843  1.00  0.00    -0.222 A  
HETATM   13  C   UNL     1     -10.676  10.496  68.525  1.00  0.00    -0.259 A  
HETATM   14  C   UNL     1     -10.703  11.821  68.051  1.00  0.00    -0.244 A  
BRANCH  12  15
HETATM   15  C   UNL     1      -9.863  13.595  66.402  1.00  0.00    -0.302 A  
HETATM   16  C   UNL     1      -8.969  14.381  67.187  1.00  0.00    -0.245 A  
HETATM   17  C   UNL     1      -8.770  15.748  66.987  1.00  0.00    -0.251 A  
HETATM   18  C   UNL     1      -9.425  16.388  65.952  1.00  0.00    -0.289 A  
HETATM   19  C   UNL     1     -10.271  15.649  65.127  1.00  0.00    -0.297 A  
HETATM   20  C   UNL     1     -10.513  14.264  65.328  1.00  0.00    -0.408 A  
BRANCH  20  21
HETATM   21  C   UNL     1     -11.461  13.677  64.384  1.00  0.00    -0.386 A  
HETATM   22  N   UNL     1     -12.371  14.401  63.696  1.00  0.00    -1.106 NA 
HETATM   23  N   UNL     1     -13.031  13.431  63.054  1.00  0.00     0.043 NA 
HETATM   24  H   UNL     1     -12.514  15.410  63.672  1.00  0.00     0.000 HD 
HETATM   25  N   UNL     1     -12.589  12.184  63.267  1.00  0.00    -0.664 NA 
HETATM   26  N   UNL     1     -11.607  12.329  64.147  1.00  0.00    -0.360 NA 
ENDBRANCH  20  21
ENDBRANCH  12  15
ENDBRANCH   8   9
ENDBRANCH   6   8
BRANCH   6  27
HETATM   27  C   UNL     1      -9.824   7.348  70.825  1.00  0.00    -0.178 C  
HETATM   28  C   UNL     1     -10.715   6.102  70.523  1.00  0.00    -0.278 C  
HETATM   29  O   UNL     1     -10.778   5.149  71.298  1.00  0.00    -0.179 OA 
HETATM   30  C   UNL     1     -10.453   8.276  71.910  1.00  0.00    -0.342 C  
HETATM   31  O   UNL     1     -11.504   6.127  69.436  1.00  0.00    -0.423 OA 
HETATM   32  C   UNL     1     -11.398   9.350  71.385  1.00  0.00    -0.451 C  
HETATM   33  C   UNL     1     -11.076   7.532  73.093  1.00  0.00    -0.378 C  
ENDBRANCH   6  27
ENDBRANCH   4   5
ENDBRANCH   3   4
ENDBRANCH   2   3
TORSDOF 8
ENDMDL
MODEL       69
REMARK 921   NORMALIZED FREE ENERGY PREDICTED BY IDOCK:   -6.09 KCAL/MOL
REMARK 922        TOTAL FREE ENERGY PREDICTED BY IDOCK:   -9.46 KCAL/MOL
REMARK 923 INTER-LIGAND FREE ENERGY PREDICTED BY IDOCK:   -9.47 KCAL/MOL
REMARK 924 INTRA-LIGAND FREE ENERGY PREDICTED BY IDOCK:    0.00 KCAL/MOL
REMARK 927      BINDING AFFINITY PREDICTED BY RF-SCORE:    0.00 PKD
ROOT
HETATM    1  C   UNL     1     -14.403  15.223  71.538  1.00  0.00    -0.633 C  
HETATM    2  C   UNL     1     -12.930  15.567  71.612  1.00  0.00    -0.540 C  
ENDROOT
BRANCH   2   3
HETATM    3  C   UNL     1     -12.029  14.364  71.325  1.00  0.00    -0.359 C  
BRANCH   3   4
HETATM    4  C   UNL     1     -12.509  13.671  70.049  1.00  0.00    -0.267 C  
BRANCH   4   5
HETATM    5  C   UNL     1     -11.885  12.314  69.805  1.00  0.00    -0.318 C  
HETATM    6  N   UNL     1     -11.220  12.091  68.600  1.00  0.00    -0.236 N  
HETATM    7  O   UNL     1     -11.982  11.422  70.653  1.00  0.00    -0.352 OA 
BRANCH   6   8
HETATM    8  C   UNL     1     -11.052  13.156  67.569  1.00  0.00    -0.271 C  
BRANCH   8   9
HETATM    9  C   UNL     1      -9.902  14.115  67.827  1.00  0.00    -0.231 A  
HETATM   10  C   UNL     1      -9.672  14.608  69.112  1.00  0.00    -0.108 A  
HETATM   11  C   UNL     1      -8.838  15.719  69.308  1.00  0.00    -0.262 A  
HETATM   12  C   UNL     1      -8.129  16.334  68.261  1.00  0.00    -0.167 A  
HETATM   13  C   UNL     1      -9.075  14.601  66.810  1.00  0.00    -0.287 A  
HETATM   14  C   UNL     1      -8.183  15.668  67.027  1.00  0.00    -0.268 A  
BRANCH  12  15
HETATM   15  C   UNL     1      -7.385  17.621  68.483  1.00  0.00    -0.256 A  
HETATM   16  C   UNL     1      -6.160  17.539  69.208  1.00  0.00    -0.232 A  
HETATM   17  C   UNL     1      -5.430  18.657  69.612  1.00  0.00    -0.217 A  
HETATM   18  C   UNL     1      -5.869  19.920  69.263  1.00  0.00    -0.295 A  
HETATM   19  C   UNL     1      -7.035  20.047  68.512  1.00  0.00    -0.324 A  
HETATM   20  C   UNL     1      -7.812  18.927  68.115  1.00  0.00    -0.327 A  
BRANCH  20  21
HETATM   21  C   UNL     1      -9.020  19.269  67.367  1.00  0.00    -0.296 A  
HETATM   22  N   UNL     1     -10.210  19.526  67.952  1.00  0.00    -0.407 NA 
HETATM   23  N   UNL     1     -10.987  19.697  66.877  1.00  0.00    -0.389 NA 
HETATM   24  H   UNL     1     -10.449  19.577  68.942  1.00  0.00     0.000 HD 
HETATM   25  N   UNL     1     -10.374  19.594  65.691  1.00  0.00    -0.465 NA 
HETATM   26  N   UNL     1      -9.120  19.283  65.994  1.00  0.00    -0.447 NA 
ENDBRANCH  20  21
ENDBRANCH  12  15
ENDBRANCH   8   9
ENDBRANCH   6   8
BRANCH   6  27
HETATM   27  C   UNL     1     -10.428  10.820  68.402  1.00  0.00    -0.183 C  
HETATM   28  C   UNL     1      -8.925  10.733  68.820  1.00  0.00    -0.170 C  
HETATM   29  O   UNL     1      -8.434   9.691  69.252  1.00  0.00    -0.130 OA 
HETATM   30  C   UNL     1     -10.703  10.126  67.032  1.00  0.00    -0.264 C  
HETATM   31  O   UNL     1      -8.137  11.799  68.603  1.00  0.00    -0.148 OA 
HETATM   32  C   UNL     1     -10.534  11.013  65.804  1.00  0.00    -0.290 C  
HETATM   33  C   UNL     1      -9.979   8.791  66.845  1.00  0.00    -0.327 C  
ENDBRANCH   6  27
ENDBRANCH   4   5
ENDBRANCH   3   4
ENDBRANCH   2   3
TORSDOF 8
ENDMDL
MODEL       70
REMARK 921   NORMALIZED FREE ENERGY PREDICTED BY IDOCK:   -6.07 KCAL/MOL
REMARK 922        TOTAL FREE ENERGY PREDICTED BY IDOCK:   -9.43 KCAL/MOL
REMARK 923 INTER-LIGAND FREE ENERGY PREDICTED BY IDOCK:   -9.44 KCAL/MOL
REMARK 924 INTRA-LIGAND FREE ENERGY PREDICTED BY IDOCK:    0.01 KCAL/MOL
REMARK 927      BINDING AFFINITY PREDICTED BY RF-SCORE:    0.00 PKD
ROOT
HETATM    1  C   UNL     1     -10.366  11.175  63.587  1.00  0.00    -0.449 C  
HETATM    2  C   UNL     1     -10.881  11.999  64.749  1.00  0.00    -0.354 C  
ENDROOT
BRANCH   2   3
HETATM    3  C   UNL     1     -11.308  13.408  64.328  1.00  0.00    -0.420 C  
BRANCH   3   4
HETATM    4  C   UNL     1     -11.845  14.155  65.549  1.00  0.00    -0.364 C  
BRANCH   4   5
HETATM    5  C   UNL     1     -11.083  15.417  65.892  1.00  0.00    -0.247 C  
HETATM    6  N   UNL     1     -11.087  15.864  67.212  1.00  0.00    -0.234 N  
HETATM    7  O   UNL     1     -10.484  16.042  65.011  1.00  0.00    -0.558 OA 
BRANCH   6   8
HETATM    8  C   UNL     1     -11.768  15.114  68.308  1.00  0.00    -0.314 C  
BRANCH   8   9
HETATM    9  C   UNL     1     -11.268  13.694  68.513  1.00  0.00    -0.310 A  
HETATM   10  C   UNL     1      -9.929  13.379  68.277  1.00  0.00    -0.240 A  
HETATM   11  C   UNL     1      -9.525  12.041  68.148  1.00  0.00    -0.200 A  
HETATM   12  C   UNL     1     -10.404  10.959  68.335  1.00  0.00    -0.196 A  
HETATM   13  C   UNL     1     -12.108  12.636  68.870  1.00  0.00    -0.164 A  
HETATM   14  C   UNL     1     -11.679  11.297  68.813  1.00  0.00    -0.405 A  
BRANCH  12  15
HETATM   15  C   UNL     1      -9.975   9.554  68.021  1.00  0.00    -0.198 A  
HETATM   16  C   UNL     1      -9.485   9.310  66.704  1.00  0.00    -0.246 A  
HETATM   17  C   UNL     1      -9.180   8.037  66.221  1.00  0.00    -0.237 A  
HETATM   18  C   UNL     1      -9.306   6.943  67.056  1.00  0.00    -0.170 A  
HETATM   19  C   UNL     1      -9.734   7.138  68.367  1.00  0.00    -0.143 A  
HETATM   20  C   UNL     1     -10.080   8.420  68.873  1.00  0.00    -0.209 A  
BRANCH  20  21
HETATM   21  C   UNL     1     -10.544   8.412  70.259  1.00  0.00    -0.227 A  
HETATM   22  N   UNL     1      -9.823   8.905  71.288  1.00  0.00    -0.263 NA 
HETATM   23  N   UNL     1     -10.616   8.599  72.321  1.00  0.00    -0.336 NA 
HETATM   24  H   UNL     1      -8.921   9.379  71.281  1.00  0.00     0.000 HD 
HETATM   25  N   UNL     1     -11.768   7.989  72.011  1.00  0.00    -0.303 NA 
HETATM   26  N   UNL     1     -11.714   7.831  70.695  1.00  0.00    -0.228 NA 
ENDBRANCH  20  21
ENDBRANCH  12  15
ENDBRANCH   8   9
ENDBRANCH   6   8
BRANCH   6  27
HETATM   27  C   UNL     1     -10.188  17.005  67.624  1.00  0.00    -0.317 C  
HETATM   28  C   UNL     1     -10.322  18.415  66.966  1.00  0.00    -0.393 C  
HETATM   29  O   UNL     1     -10.114  19.448  67.601  1.00  0.00    -0.350 OA 
HETATM   30  C   UNL     1      -8.698  16.581  67.818  1.00  0.00    -0.197 C  
HETATM   31  O   UNL     1     -10.574  18.486  65.648  1.00  0.00    -0.616 OA 
HETATM   32  C   UNL     1      -8.067  15.852  66.637  1.00  0.00    -0.298 C  
HETATM   33  C   UNL     1      -7.785  17.701  68.320  1.00  0.00    -0.253 C  
ENDBRANCH   6  27
ENDBRANCH   4   5
ENDBRANCH   3   4
ENDBRANCH   2   3
TORSDOF 8
ENDMDL
MODEL       71
REMARK 921   NORMALIZED FREE ENERGY PREDICTED BY IDOCK:   -6.05 KCAL/MOL
REMARK 922        TOTAL FREE ENERGY PREDICTED BY IDOCK:   -9.40 KCAL/MOL
REMARK 923 INTER-LIGAND FREE ENERGY PREDICTED BY IDOCK:   -8.43 KCAL/MOL
REMARK 924 INTRA-LIGAND FREE ENERGY PREDICTED BY IDOCK:   -0.97 KCAL/MOL
REMARK 927      BINDING AFFINITY PREDICTED BY RF-SCORE:    0.00 PKD
ROOT
HETATM    1  C   UNL     1      -9.370   3.765  65.671  1.00  0.00    -0.162 C  
HETATM    2  C   UNL     1      -9.457   3.856  67.181  1.00  0.00    -0.231 C  
ENDROOT
BRANCH   2   3
HETATM    3  C   UNL     1     -10.355   5.003  67.651  1.00  0.00    -0.131 C  
BRANCH   3   4
HETATM    4  C   UNL     1      -9.650   6.333  67.384  1.00  0.00    -0.129 C  
BRANCH   4   5
HETATM    5  C   UNL     1      -8.717   6.776  68.491  1.00  0.00    -0.124 C  
HETATM    6  N   UNL     1      -9.208   7.626  69.480  1.00  0.00    -0.150 N  
HETATM    7  O   UNL     1      -7.541   6.399  68.502  1.00  0.00    -0.093 OA 
BRANCH   6   8
HETATM    8  C   UNL     1     -10.632   8.071  69.519  1.00  0.00    -0.214 C  
BRANCH   8   9
HETATM    9  C   UNL     1     -10.890   9.432  68.895  1.00  0.00    -0.151 A  
HETATM   10  C   UNL     1     -10.465   9.701  67.594  1.00  0.00    -0.317 A  
HETATM   11  C   UNL     1     -10.404  11.022  67.125  1.00  0.00    -0.259 A  
HETATM   12  C   UNL     1     -10.842  12.121  67.885  1.00  0.00    -0.254 A  
HETATM   13  C   UNL     1     -11.487  10.487  69.591  1.00  0.00    -0.349 A  
HETATM   14  C   UNL     1     -11.493  11.800  69.086  1.00  0.00    -0.358 A  
BRANCH  12  15
HETATM   15  C   UNL     1     -10.602  13.529  67.416  1.00  0.00    -0.254 A  
HETATM   16  C   UNL     1      -9.951  14.409  68.330  1.00  0.00    -0.232 A  
HETATM   17  C   UNL     1      -9.782  15.773  68.095  1.00  0.00    -0.211 A  
HETATM   18  C   UNL     1     -10.218  16.319  66.902  1.00  0.00    -0.288 A  
HETATM   19  C   UNL     1     -10.816  15.488  65.957  1.00  0.00    -0.301 A  
HETATM   20  C   UNL     1     -11.026  14.102  66.185  1.00  0.00    -0.309 A  
BRANCH  20  21
HETATM   21  C   UNL     1     -11.705  13.410  65.091  1.00  0.00    -0.321 A  
HETATM   22  N   UNL     1     -11.256  13.411  63.818  1.00  0.00    -0.572 NA 
HETATM   23  N   UNL     1     -12.234  12.734  63.206  1.00  0.00    -0.610 NA 
HETATM   24  H   UNL     1     -10.405  13.817  63.430  1.00  0.00     0.000 HD 
HETATM   25  N   UNL     1     -13.224  12.298  63.994  1.00  0.00    -0.665 NA 
HETATM   26  N   UNL     1     -12.913  12.758  65.200  1.00  0.00    -0.758 NA 
ENDBRANCH  20  21
ENDBRANCH  12  15
ENDBRANCH   8   9
ENDBRANCH   6   8
BRANCH   6  27
HETATM   27  C   UNL     1      -8.365   7.934  70.694  1.00  0.00    -0.123 C  
HETATM   28  C   UNL     1      -9.016   8.124  72.101  1.00  0.00    -0.184 C  
HETATM   29  O   UNL     1      -8.442   7.775  73.132  1.00  0.00    -0.130 OA 
HETATM   30  C   UNL     1      -7.238   8.977  70.417  1.00  0.00    -0.069 C  
HETATM   31  O   UNL     1     -10.186   8.778  72.182  1.00  0.00    -0.325 OA 
HETATM   32  C   UNL     1      -7.699  10.287  69.788  1.00  0.00    -0.159 C  
HETATM   33  C   UNL     1      -6.315   9.240  71.609  1.00  0.00     0.005 C  
ENDBRANCH   6  27
ENDBRANCH   4   5
ENDBRANCH   3   4
ENDBRANCH   2   3
TORSDOF 8
ENDMDL
MODEL       72
REMARK 921   NORMALIZED FREE ENERGY PREDICTED BY IDOCK:   -6.04 KCAL/MOL
REMARK 922        TOTAL FREE ENERGY PREDICTED BY IDOCK:   -9.39 KCAL/MOL
REMARK 923 INTER-LIGAND FREE ENERGY PREDICTED BY IDOCK:   -8.56 KCAL/MOL
REMARK 924 INTRA-LIGAND FREE ENERGY PREDICTED BY IDOCK:   -0.83 KCAL/MOL
REMARK 927      BINDING AFFINITY PREDICTED BY RF-SCORE:    0.00 PKD
ROOT
HETATM    1  C   UNL     1     -11.718  15.201  68.779  1.00  0.00    -0.366 C  
HETATM    2  C   UNL     1     -11.715  14.450  67.463  1.00  0.00    -0.416 C  
ENDROOT
BRANCH   2   3
HETATM    3  C   UNL     1     -11.758  12.932  67.652  1.00  0.00    -0.422 C  
BRANCH   3   4
HETATM    4  C   UNL     1     -11.202  12.254  66.400  1.00  0.00    -0.370 C  
BRANCH   4   5
HETATM    5  C   UNL     1      -9.699  12.076  66.403  1.00  0.00    -0.225 C  
HETATM    6  N   UNL     1      -9.173  10.823  66.094  1.00  0.00    -0.174 N  
HETATM    7  O   UNL     1      -8.961  13.023  66.691  1.00  0.00    -0.205 OA 
BRANCH   6   8
HETATM    8  C   UNL     1     -10.033   9.667  65.705  1.00  0.00    -0.272 C  
BRANCH   8   9
HETATM    9  C   UNL     1     -10.469   8.783  66.861  1.00  0.00    -0.319 A  
HETATM   10  C   UNL     1     -10.773   9.346  68.101  1.00  0.00    -0.230 A  
HETATM   11  C   UNL     1     -10.861   8.539  69.246  1.00  0.00    -0.072 A  
HETATM   12  C   UNL     1     -10.741   7.138  69.201  1.00  0.00    -0.216 A  
HETATM   13  C   UNL     1     -10.520   7.389  66.775  1.00  0.00    -0.316 A  
HETATM   14  C   UNL     1     -10.684   6.581  67.915  1.00  0.00    -0.357 A  
BRANCH  12  15
HETATM   15  C   UNL     1     -10.670   6.329  70.466  1.00  0.00    -0.327 A  
HETATM   16  C   UNL     1      -9.694   5.291  70.511  1.00  0.00    -0.254 A  
HETATM   17  C   UNL     1      -9.599   4.370  71.555  1.00  0.00    -0.228 A  
HETATM   18  C   UNL     1     -10.453   4.476  72.637  1.00  0.00    -0.258 A  
HETATM   19  C   UNL     1     -11.391   5.505  72.660  1.00  0.00    -0.346 A  
HETATM   20  C   UNL     1     -11.527   6.436  71.596  1.00  0.00    -0.354 A  
BRANCH  20  21
HETATM   21  C   UNL     1     -12.594   7.416  71.789  1.00  0.00    -0.335 A  
HETATM   22  N   UNL     1     -13.821   7.299  71.237  1.00  0.00    -0.542 NA 
HETATM   23  N   UNL     1     -14.385   8.447  71.630  1.00  0.00    -0.452 NA 
HETATM   24  H   UNL     1     -14.211   6.543  70.675  1.00  0.00     0.000 HD 
HETATM   25  N   UNL     1     -13.622   9.240  72.393  1.00  0.00    -0.473 NA 
HETATM   26  N   UNL     1     -12.459   8.605  72.470  1.00  0.00    -0.366 NA 
ENDBRANCH  20  21
ENDBRANCH  12  15
ENDBRANCH   8   9
ENDBRANCH   6   8
BRANCH   6  27
HETATM   27  C   UNL     1      -7.683  10.658  65.904  1.00  0.00    -0.146 C  
HETATM   28  C   UNL     1      -7.110   9.646  64.862  1.00  0.00    -0.114 C  
HETATM   29  O   UNL     1      -6.071   9.873  64.244  1.00  0.00    -0.105 OA 
HETATM   30  C   UNL     1      -6.886  10.643  67.245  1.00  0.00    -0.079 C  
HETATM   31  O   UNL     1      -7.722   8.459  64.719  1.00  0.00    -0.096 OA 
HETATM   32  C   UNL     1      -7.369   9.635  68.282  1.00  0.00    -0.080 C  
HETATM   33  C   UNL     1      -5.367  10.566  67.075  1.00  0.00    -0.042 C  
ENDBRANCH   6  27
ENDBRANCH   4   5
ENDBRANCH   3   4
ENDBRANCH   2   3
TORSDOF 8
ENDMDL
MODEL       73
REMARK 921   NORMALIZED FREE ENERGY PREDICTED BY IDOCK:   -6.02 KCAL/MOL
REMARK 922        TOTAL FREE ENERGY PREDICTED BY IDOCK:   -9.36 KCAL/MOL
REMARK 923 INTER-LIGAND FREE ENERGY PREDICTED BY IDOCK:   -9.24 KCAL/MOL
REMARK 924 INTRA-LIGAND FREE ENERGY PREDICTED BY IDOCK:   -0.12 KCAL/MOL
REMARK 927      BINDING AFFINITY PREDICTED BY RF-SCORE:    0.00 PKD
ROOT
HETATM    1  C   UNL     1      -6.748  16.750  69.260  1.00  0.00    -0.229 C  
HETATM    2  C   UNL     1      -6.677  15.261  69.526  1.00  0.00    -0.172 C  
ENDROOT
BRANCH   2   3
HETATM    3  C   UNL     1      -6.493  14.443  68.246  1.00  0.00    -0.115 C  
BRANCH   3   4
HETATM    4  C   UNL     1      -7.564  13.353  68.188  1.00  0.00    -0.138 C  
BRANCH   4   5
HETATM    5  C   UNL     1      -8.757  13.698  67.323  1.00  0.00    -0.218 C  
HETATM    6  N   UNL     1      -9.272  12.721  66.473  1.00  0.00    -0.220 N  
HETATM    7  O   UNL     1      -9.249  14.830  67.364  1.00  0.00    -0.186 OA 
BRANCH   6   8
HETATM    8  C   UNL     1      -8.726  11.333  66.425  1.00  0.00    -0.180 C  
BRANCH   8   9
HETATM    9  C   UNL     1      -9.347  10.371  67.424  1.00  0.00    -0.162 A  
HETATM   10  C   UNL     1      -9.178  10.575  68.794  1.00  0.00    -0.177 A  
HETATM   11  C   UNL     1      -9.460   9.546  69.705  1.00  0.00    -0.228 A  
HETATM   12  C   UNL     1     -10.002   8.309  69.314  1.00  0.00    -0.192 A  
HETATM   13  C   UNL     1     -10.042   9.221  67.041  1.00  0.00    -0.313 A  
HETATM   14  C   UNL     1     -10.392   8.222  67.969  1.00  0.00    -0.268 A  
BRANCH  12  15
HETATM   15  C   UNL     1     -10.128   7.176  70.294  1.00  0.00    -0.195 A  
HETATM   16  C   UNL     1      -9.115   6.174  70.252  1.00  0.00    -0.158 A  
HETATM   17  C   UNL     1      -9.166   4.997  70.999  1.00  0.00    -0.191 A  
HETATM   18  C   UNL     1     -10.220   4.788  71.869  1.00  0.00    -0.261 A  
HETATM   19  C   UNL     1     -11.208   5.763  71.981  1.00  0.00    -0.307 A  
HETATM   20  C   UNL     1     -11.194   6.955  71.209  1.00  0.00    -0.306 A  
BRANCH  20  21
HETATM   21  C   UNL     1     -12.339   7.833  71.440  1.00  0.00    -0.323 A  
HETATM   22  N   UNL     1     -13.597   7.533  71.055  1.00  0.00    -0.624 NA 
HETATM   23  N   UNL     1     -14.242   8.651  71.406  1.00  0.00    -0.342 NA 
HETATM   24  H   UNL     1     -13.957   6.686  70.616  1.00  0.00     0.000 HD 
HETATM   25  N   UNL     1     -13.496   9.594  71.996  1.00  0.00    -0.427 NA 
HETATM   26  N   UNL     1     -12.266   9.095  71.988  1.00  0.00    -0.377 NA 
ENDBRANCH  20  21
ENDBRANCH  12  15
ENDBRANCH   8   9
ENDBRANCH   6   8
BRANCH   6  27
HETATM   27  C   UNL     1     -10.569  12.969  65.740  1.00  0.00    -0.277 C  
HETATM   28  C   UNL     1     -11.946  12.795  66.457  1.00  0.00    -0.358 C  
HETATM   29  O   UNL     1     -12.911  13.508  66.185  1.00  0.00    -0.265 OA 
HETATM   30  C   UNL     1     -10.581  12.394  64.289  1.00  0.00    -0.391 C  
HETATM   31  O   UNL     1     -12.096  11.774  67.317  1.00  0.00    -0.595 OA 
HETATM   32  C   UNL     1     -10.214  10.920  64.166  1.00  0.00    -0.424 C  
HETATM   33  C   UNL     1     -11.851  12.709  63.496  1.00  0.00    -0.619 C  
ENDBRANCH   6  27
ENDBRANCH   4   5
ENDBRANCH   3   4
ENDBRANCH   2   3
TORSDOF 8
ENDMDL
MODEL       74
REMARK 921   NORMALIZED FREE ENERGY PREDICTED BY IDOCK:   -6.01 KCAL/MOL
REMARK 922        TOTAL FREE ENERGY PREDICTED BY IDOCK:   -9.34 KCAL/MOL
REMARK 923 INTER-LIGAND FREE ENERGY PREDICTED BY IDOCK:   -8.46 KCAL/MOL
REMARK 924 INTRA-LIGAND FREE ENERGY PREDICTED BY IDOCK:   -0.88 KCAL/MOL
REMARK 927      BINDING AFFINITY PREDICTED BY RF-SCORE:    0.00 PKD
ROOT
HETATM    1  C   UNL     1     -12.631   8.918  71.490  1.00  0.00    -0.385 C  
HETATM    2  C   UNL     1     -11.164   9.115  71.814  1.00  0.00    -0.451 C  
ENDROOT
BRANCH   2   3
HETATM    3  C   UNL     1     -10.311   9.348  70.564  1.00  0.00    -0.341 C  
BRANCH   3   4
HETATM    4  C   UNL     1      -9.009   8.556  70.690  1.00  0.00    -0.182 C  
BRANCH   4   5
HETATM    5  C   UNL     1      -9.067   7.164  70.098  1.00  0.00    -0.152 C  
HETATM    6  N   UNL     1      -8.330   6.896  68.946  1.00  0.00    -0.121 N  
HETATM    7  O   UNL     1      -9.768   6.294  70.622  1.00  0.00    -0.174 OA 
BRANCH   6   8
HETATM    8  C   UNL     1      -7.444   7.913  68.308  1.00  0.00    -0.104 C  
BRANCH   8   9
HETATM    9  C   UNL     1      -8.152   8.871  67.365  1.00  0.00    -0.108 A  
HETATM   10  C   UNL     1      -7.939  10.246  67.469  1.00  0.00    -0.106 A  
HETATM   11  C   UNL     1      -8.808  11.150  66.840  1.00  0.00    -0.157 A  
HETATM   12  C   UNL     1      -9.868  10.737  66.012  1.00  0.00    -0.285 A  
HETATM   13  C   UNL     1      -9.087   8.451  66.414  1.00  0.00    -0.231 A  
HETATM   14  C   UNL     1      -9.908   9.364  65.727  1.00  0.00    -0.345 A  
BRANCH  12  15
HETATM   15  C   UNL     1     -10.876  11.726  65.498  1.00  0.00    -0.348 A  
HETATM   16  C   UNL     1     -10.970  11.872  64.083  1.00  0.00    -0.430 A  
HETATM   17  C   UNL     1     -11.756  12.843  63.461  1.00  0.00    -0.576 A  
HETATM   18  C   UNL     1     -12.530  13.690  64.232  1.00  0.00    -0.304 A  
HETATM   19  C   UNL     1     -12.509  13.552  65.618  1.00  0.00    -0.528 A  
HETATM   20  C   UNL     1     -11.695  12.592  66.276  1.00  0.00    -0.462 A  
BRANCH  20  21
HETATM   21  C   UNL     1     -11.781  12.630  67.734  1.00  0.00    -0.356 A  
HETATM   22  N   UNL     1     -11.403  13.694  68.475  1.00  0.00    -0.270 NA 
HETATM   23  N   UNL     1     -11.592  13.220  69.711  1.00  0.00    -0.260 NA 
HETATM   24  H   UNL     1     -11.065  14.607  68.174  1.00  0.00     0.000 HD 
HETATM   25  N   UNL     1     -12.078  11.975  69.791  1.00  0.00    -0.278 NA 
HETATM   26  N   UNL     1     -12.167  11.574  68.529  1.00  0.00    -0.480 NA 
ENDBRANCH  20  21
ENDBRANCH  12  15
ENDBRANCH   8   9
ENDBRANCH   6   8
BRANCH   6  27
HETATM   27  C   UNL     1      -8.215   5.478  68.439  1.00  0.00    -0.099 C  
HETATM   28  C   UNL     1      -7.088   5.068  67.439  1.00  0.00    -0.066 C  
HETATM   29  O   UNL     1      -6.572   3.952  67.468  1.00  0.00    -0.040 OA 
HETATM   30  C   UNL     1      -9.591   4.836  68.078  1.00  0.00    -0.199 C  
HETATM   31  O   UNL     1      -6.754   5.929  66.463  1.00  0.00    -0.054 OA 
HETATM   32  C   UNL     1     -10.454   5.640  67.112  1.00  0.00    -0.334 C  
HETATM   33  C   UNL     1      -9.509   3.371  67.646  1.00  0.00    -0.231 C  
ENDBRANCH   6  27
ENDBRANCH   4   5
ENDBRANCH   3   4
ENDBRANCH   2   3
TORSDOF 8
ENDMDL
MODEL       75
REMARK 921   NORMALIZED FREE ENERGY PREDICTED BY IDOCK:   -6.00 KCAL/MOL
REMARK 922        TOTAL FREE ENERGY PREDICTED BY IDOCK:   -9.33 KCAL/MOL
REMARK 923 INTER-LIGAND FREE ENERGY PREDICTED BY IDOCK:   -8.84 KCAL/MOL
REMARK 924 INTRA-LIGAND FREE ENERGY PREDICTED BY IDOCK:   -0.49 KCAL/MOL
REMARK 927      BINDING AFFINITY PREDICTED BY RF-SCORE:    0.00 PKD
ROOT
HETATM    1  C   UNL     1     -14.088  15.100  71.439  1.00  0.00    -0.598 C  
HETATM    2  C   UNL     1     -12.648  15.535  71.264  1.00  0.00    -0.509 C  
ENDROOT
BRANCH   2   3
HETATM    3  C   UNL     1     -12.033  15.023  69.959  1.00  0.00    -0.375 C  
BRANCH   3   4
HETATM    4  C   UNL     1     -10.543  15.364  69.939  1.00  0.00    -0.315 C  
BRANCH   4   5
HETATM    5  C   UNL     1     -10.182  16.527  69.040  1.00  0.00    -0.285 C  
HETATM    6  N   UNL     1      -8.843  16.725  68.707  1.00  0.00    -0.261 N  
HETATM    7  O   UNL     1     -11.060  17.290  68.627  1.00  0.00    -0.194 OA 
BRANCH   6   8
HETATM    8  C   UNL     1      -7.761  15.802  69.158  1.00  0.00    -0.220 C  
BRANCH   8   9
HETATM    9  C   UNL     1      -7.795  14.424  68.519  1.00  0.00    -0.138 A  
HETATM   10  C   UNL     1      -8.643  14.169  67.441  1.00  0.00    -0.219 A  
HETATM   11  C   UNL     1      -8.924  12.850  67.054  1.00  0.00    -0.225 A  
HETATM   12  C   UNL     1      -8.313  11.734  67.652  1.00  0.00    -0.145 A  
HETATM   13  C   UNL     1      -7.054  13.342  69.004  1.00  0.00    -0.053 A  
HETATM   14  C   UNL     1      -7.283  12.027  68.560  1.00  0.00    -0.101 A  
BRANCH  12  15
HETATM   15  C   UNL     1      -8.766  10.338  67.327  1.00  0.00    -0.125 A  
HETATM   16  C   UNL     1      -7.964   9.599  66.409  1.00  0.00    -0.108 A  
HETATM   17  C   UNL     1      -8.326   8.349  65.905  1.00  0.00    -0.137 A  
HETATM   18  C   UNL     1      -9.497   7.753  66.337  1.00  0.00    -0.245 A  
HETATM   19  C   UNL     1     -10.288   8.416  67.272  1.00  0.00    -0.369 A  
HETATM   20  C   UNL     1      -9.956   9.702  67.777  1.00  0.00    -0.211 A  
BRANCH  20  21
HETATM   21  C   UNL     1     -10.933  10.247  68.718  1.00  0.00    -0.243 A  
HETATM   22  N   UNL     1     -12.132  10.742  68.342  1.00  0.00    -0.827 NA 
HETATM   23  N   UNL     1     -12.603  11.178  69.515  1.00  0.00    -0.225 NA 
HETATM   24  H   UNL     1     -12.560  10.774  67.417  1.00  0.00     0.000 HD 
HETATM   25  N   UNL     1     -11.812  10.970  70.576  1.00  0.00    -0.353 NA 
HETATM   26  N   UNL     1     -10.722  10.407  70.069  1.00  0.00    -0.281 NA 
ENDBRANCH  20  21
ENDBRANCH  12  15
ENDBRANCH   8   9
ENDBRANCH   6   8
BRANCH   6  27
HETATM   27  C   UNL     1      -8.471  17.755  67.667  1.00  0.00    -0.229 C  
HETATM   28  C   UNL     1      -7.394  17.450  66.578  1.00  0.00    -0.277 C  
HETATM   29  O   UNL     1      -7.475  17.910  65.441  1.00  0.00    -0.436 OA 
HETATM   30  C   UNL     1      -8.335  19.198  68.246  1.00  0.00    -0.370 C  
HETATM   31  O   UNL     1      -6.305  16.747  66.934  1.00  0.00    -0.172 OA 
HETATM   32  C   UNL     1      -7.399  19.338  69.441  1.00  0.00    -0.213 C  
HETATM   33  C   UNL     1      -8.045  20.274  67.196  1.00  0.00    -0.379 C  
ENDBRANCH   6  27
ENDBRANCH   4   5
ENDBRANCH   3   4
ENDBRANCH   2   3
TORSDOF 8
ENDMDL
MODEL       76
REMARK 921   NORMALIZED FREE ENERGY PREDICTED BY IDOCK:   -5.99 KCAL/MOL
REMARK 922        TOTAL FREE ENERGY PREDICTED BY IDOCK:   -9.32 KCAL/MOL
REMARK 923 INTER-LIGAND FREE ENERGY PREDICTED BY IDOCK:   -8.13 KCAL/MOL
REMARK 924 INTRA-LIGAND FREE ENERGY PREDICTED BY IDOCK:   -1.19 KCAL/MOL
REMARK 927      BINDING AFFINITY PREDICTED BY RF-SCORE:    0.00 PKD
ROOT
HETATM    1  C   UNL     1      -6.518   9.546  66.939  1.00  0.00    -0.067 C  
HETATM    2  C   UNL     1      -6.747  10.914  67.548  1.00  0.00    -0.074 C  
ENDROOT
BRANCH   2   3
HETATM    3  C   UNL     1      -7.233  10.840  68.997  1.00  0.00    -0.096 C  
BRANCH   3   4
HETATM    4  C   UNL     1      -7.208   9.383  69.460  1.00  0.00    -0.067 C  
BRANCH   4   5
HETATM    5  C   UNL     1      -8.176   9.069  70.581  1.00  0.00    -0.181 C  
HETATM    6  N   UNL     1      -9.425   8.541  70.258  1.00  0.00    -0.163 N  
HETATM    7  O   UNL     1      -7.864   9.293  71.754  1.00  0.00    -0.310 OA 
BRANCH   6   8
HETATM    8  C   UNL     1      -9.821   8.223  68.854  1.00  0.00    -0.180 C  
BRANCH   8   9
HETATM    9  C   UNL     1     -10.407   9.391  68.079  1.00  0.00    -0.267 A  
HETATM   10  C   UNL     1     -10.117   9.552  66.724  1.00  0.00    -0.312 A  
HETATM   11  C   UNL     1     -10.376  10.772  66.082  1.00  0.00    -0.300 A  
HETATM   12  C   UNL     1     -11.013  11.850  66.723  1.00  0.00    -0.337 A  
HETATM   13  C   UNL     1     -11.191  10.382  68.676  1.00  0.00    -0.305 A  
HETATM   14  C   UNL     1     -11.515  11.575  68.004  1.00  0.00    -0.381 A  
BRANCH  12  15
HETATM   15  C   UNL     1     -11.117  13.192  66.055  1.00  0.00    -0.299 A  
HETATM   16  C   UNL     1     -12.137  13.343  65.071  1.00  0.00    -0.436 A  
HETATM   17  C   UNL     1     -12.271  14.478  64.270  1.00  0.00    -0.441 A  
HETATM   18  C   UNL     1     -11.412  15.546  64.452  1.00  0.00    -0.264 A  
HETATM   19  C   UNL     1     -10.430  15.464  65.437  1.00  0.00    -0.426 A  
HETATM   20  C   UNL     1     -10.255  14.308  66.244  1.00  0.00    -0.307 A  
BRANCH  20  21
HETATM   21  C   UNL     1      -9.146  14.400  67.191  1.00  0.00    -0.227 A  
HETATM   22  N   UNL     1      -7.857  14.178  66.853  1.00  0.00    -0.316 NA 
HETATM   23  N   UNL     1      -7.260  14.299  68.043  1.00  0.00    -0.124 NA 
HETATM   24  H   UNL     1      -7.452  13.974  65.940  1.00  0.00     0.000 HD 
HETATM   25  N   UNL     1      -8.063  14.601  69.071  1.00  0.00    -0.140 NA 
HETATM   26  N   UNL     1      -9.280  14.632  68.542  1.00  0.00    -0.189 NA 
ENDBRANCH  20  21
ENDBRANCH  12  15
ENDBRANCH   8   9
ENDBRANCH   6   8
BRANCH   6  27
HETATM   27  C   UNL     1     -10.337   8.042  71.353  1.00  0.00    -0.200 C  
HETATM   28  C   UNL     1      -9.770   7.271  72.586  1.00  0.00    -0.159 C  
HETATM   29  O   UNL     1     -10.272   7.380  73.704  1.00  0.00    -0.341 OA 
HETATM   30  C   UNL     1     -11.661   7.411  70.817  1.00  0.00    -0.317 C  
HETATM   31  O   UNL     1      -8.773   6.392  72.389  1.00  0.00    -0.121 OA 
HETATM   32  C   UNL     1     -11.486   6.312  69.776  1.00  0.00    -0.449 C  
HETATM   33  C   UNL     1     -12.640   6.979  71.909  1.00  0.00    -0.331 C  
ENDBRANCH   6  27
ENDBRANCH   4   5
ENDBRANCH   3   4
ENDBRANCH   2   3
TORSDOF 8
ENDMDL
MODEL       77
REMARK 921   NORMALIZED FREE ENERGY PREDICTED BY IDOCK:   -5.94 KCAL/MOL
REMARK 922        TOTAL FREE ENERGY PREDICTED BY IDOCK:   -9.25 KCAL/MOL
REMARK 923 INTER-LIGAND FREE ENERGY PREDICTED BY IDOCK:   -8.03 KCAL/MOL
REMARK 924 INTRA-LIGAND FREE ENERGY PREDICTED BY IDOCK:   -1.22 KCAL/MOL
REMARK 927      BINDING AFFINITY PREDICTED BY RF-SCORE:    0.00 PKD
ROOT
HETATM    1  C   UNL     1      -8.624   7.039  72.454  1.00  0.00    -0.130 C  
HETATM    2  C   UNL     1      -7.734   8.183  72.014  1.00  0.00    -0.136 C  
ENDROOT
BRANCH   2   3
HETATM    3  C   UNL     1      -8.242   8.868  70.743  1.00  0.00    -0.198 C  
BRANCH   3   4
HETATM    4  C   UNL     1      -7.248   8.618  69.608  1.00  0.00    -0.052 C  
BRANCH   4   5
HETATM    5  C   UNL     1      -7.615   7.462  68.703  1.00  0.00    -0.110 C  
HETATM    6  N   UNL     1      -8.026   7.737  67.399  1.00  0.00    -0.117 N  
HETATM    7  O   UNL     1      -7.565   6.302  69.122  1.00  0.00    -0.094 OA 
BRANCH   6   8
HETATM    8  C   UNL     1      -8.063   9.123  66.847  1.00  0.00    -0.112 C  
BRANCH   8   9
HETATM    9  C   UNL     1      -9.151  10.010  67.430  1.00  0.00    -0.146 A  
HETATM   10  C   UNL     1      -8.823  11.236  68.009  1.00  0.00    -0.148 A  
HETATM   11  C   UNL     1      -9.748  11.907  68.824  1.00  0.00    -0.051 A  
HETATM   12  C   UNL     1     -11.060  11.443  69.029  1.00  0.00    -0.300 A  
HETATM   13  C   UNL     1     -10.495   9.630  67.482  1.00  0.00    -0.321 A  
HETATM   14  C   UNL     1     -11.439  10.346  68.240  1.00  0.00    -0.218 A  
BRANCH  12  15
HETATM   15  C   UNL     1     -11.959  12.095  70.040  1.00  0.00    -0.391 A  
HETATM   16  C   UNL     1     -12.047  13.518  70.001  1.00  0.00    -0.411 A  
HETATM   17  C   UNL     1     -12.728  14.273  70.956  1.00  0.00    -0.430 A  
HETATM   18  C   UNL     1     -13.401  13.631  71.978  1.00  0.00    -0.548 A  
HETATM   19  C   UNL     1     -13.386  12.240  72.030  1.00  0.00    -0.491 A  
HETATM   20  C   UNL     1     -12.675  11.450  71.087  1.00  0.00    -0.479 A  
BRANCH  20  21
HETATM   21  C   UNL     1     -12.747  10.011  71.333  1.00  0.00    -0.415 A  
HETATM   22  N   UNL     1     -13.855   9.273  71.112  1.00  0.00    -0.518 NA 
HETATM   23  N   UNL     1     -13.454   8.077  71.555  1.00  0.00    -0.316 NA 
HETATM   24  H   UNL     1     -14.752   9.551  70.715  1.00  0.00     0.000 HD 
HETATM   25  N   UNL     1     -12.193   8.013  72.001  1.00  0.00    -0.316 NA 
HETATM   26  N   UNL     1     -11.743   9.257  71.898  1.00  0.00    -0.373 NA 
ENDBRANCH  20  21
ENDBRANCH  12  15
ENDBRANCH   8   9
ENDBRANCH   6   8
BRANCH   6  27
HETATM   27  C   UNL     1      -8.216   6.607  66.416  1.00  0.00    -0.117 C  
HETATM   28  C   UNL     1      -7.990   6.822  64.886  1.00  0.00    -0.124 C  
HETATM   29  O   UNL     1      -7.539   5.931  64.167  1.00  0.00    -0.072 OA 
HETATM   30  C   UNL     1      -9.477   5.735  66.711  1.00  0.00    -0.154 C  
HETATM   31  O   UNL     1      -8.395   7.978  64.335  1.00  0.00    -0.122 OA 
HETATM   32  C   UNL     1     -10.787   6.503  66.845  1.00  0.00    -0.427 C  
HETATM   33  C   UNL     1      -9.642   4.531  65.782  1.00  0.00    -0.192 C  
ENDBRANCH   6  27
ENDBRANCH   4   5
ENDBRANCH   3   4
ENDBRANCH   2   3
TORSDOF 8
ENDMDL
MODEL       78
REMARK 921   NORMALIZED FREE ENERGY PREDICTED BY IDOCK:   -5.93 KCAL/MOL
REMARK 922        TOTAL FREE ENERGY PREDICTED BY IDOCK:   -9.22 KCAL/MOL
REMARK 923 INTER-LIGAND FREE ENERGY PREDICTED BY IDOCK:   -8.93 KCAL/MOL
REMARK 924 INTRA-LIGAND FREE ENERGY PREDICTED BY IDOCK:   -0.30 KCAL/MOL
REMARK 927      BINDING AFFINITY PREDICTED BY RF-SCORE:    0.00 PKD
ROOT
HETATM    1  C   UNL     1     -12.656  11.804  63.370  1.00  0.00    -0.458 C  
HETATM    2  C   UNL     1     -11.923  12.412  64.548  1.00  0.00    -0.474 C  
ENDROOT
BRANCH   2   3
HETATM    3  C   UNL     1     -12.654  13.622  65.135  1.00  0.00    -0.474 C  
BRANCH   3   4
HETATM    4  C   UNL     1     -11.939  14.072  66.409  1.00  0.00    -0.462 C  
BRANCH   4   5
HETATM    5  C   UNL     1     -10.553  14.635  66.179  1.00  0.00    -0.312 C  
HETATM    6  N   UNL     1      -9.730  14.857  67.282  1.00  0.00    -0.226 N  
HETATM    7  O   UNL     1     -10.171  14.904  65.036  1.00  0.00    -0.380 OA 
BRANCH   6   8
HETATM    8  C   UNL     1     -10.143  14.509  68.673  1.00  0.00    -0.244 C  
BRANCH   8   9
HETATM    9  C   UNL     1     -10.421  13.033  68.903  1.00  0.00    -0.110 A  
HETATM   10  C   UNL     1     -11.592  12.629  69.544  1.00  0.00    -0.348 A  
HETATM   11  C   UNL     1     -11.714  11.324  70.045  1.00  0.00    -0.428 A  
HETATM   12  C   UNL     1     -10.727  10.340  69.858  1.00  0.00    -0.344 A  
HETATM   13  C   UNL     1      -9.513  12.026  68.560  1.00  0.00    -0.136 A  
HETATM   14  C   UNL     1      -9.676  10.700  69.001  1.00  0.00    -0.214 A  
BRANCH  12  15
HETATM   15  C   UNL     1     -10.819   9.012  70.555  1.00  0.00    -0.296 A  
HETATM   16  C   UNL     1     -11.296   9.022  71.899  1.00  0.00    -0.438 A  
HETATM   17  C   UNL     1     -11.308   7.894  72.719  1.00  0.00    -0.453 A  
HETATM   18  C   UNL     1     -10.883   6.679  72.213  1.00  0.00    -0.260 A  
HETATM   19  C   UNL     1     -10.455   6.610  70.890  1.00  0.00    -0.249 A  
HETATM   20  C   UNL     1     -10.405   7.751  70.044  1.00  0.00    -0.221 A  
BRANCH  20  21
HETATM   21  C   UNL     1      -9.889   7.481  68.704  1.00  0.00    -0.165 A  
HETATM   22  N   UNL     1      -8.573   7.366  68.422  1.00  0.00    -0.125 NA 
HETATM   23  N   UNL     1      -8.612   7.210  67.095  1.00  0.00    -0.120 NA 
HETATM   24  H   UNL     1      -7.770   7.391  69.050  1.00  0.00     0.000 HD 
HETATM   25  N   UNL     1      -9.833   7.193  66.545  1.00  0.00    -0.160 NA 
HETATM   26  N   UNL     1     -10.657   7.403  67.564  1.00  0.00    -0.265 NA 
ENDBRANCH  20  21
ENDBRANCH  12  15
ENDBRANCH   8   9
ENDBRANCH   6   8
BRANCH   6  27
HETATM   27  C   UNL     1      -8.282  15.237  67.077  1.00  0.00    -0.233 C  
HETATM   28  C   UNL     1      -7.163  14.689  68.018  1.00  0.00    -0.140 C  
HETATM   29  O   UNL     1      -6.033  14.441  67.603  1.00  0.00    -0.288 OA 
HETATM   30  C   UNL     1      -8.081  16.745  66.731  1.00  0.00    -0.273 C  
HETATM   31  O   UNL     1      -7.425  14.588  69.332  1.00  0.00    -0.135 OA 
HETATM   32  C   UNL     1      -8.720  17.730  67.704  1.00  0.00    -0.244 C  
HETATM   33  C   UNL     1      -6.632  17.135  66.432  1.00  0.00    -0.251 C  
ENDBRANCH   6  27
ENDBRANCH   4   5
ENDBRANCH   3   4
ENDBRANCH   2   3
TORSDOF 8
ENDMDL
MODEL       79
REMARK 921   NORMALIZED FREE ENERGY PREDICTED BY IDOCK:   -5.92 KCAL/MOL
REMARK 922        TOTAL FREE ENERGY PREDICTED BY IDOCK:   -9.21 KCAL/MOL
REMARK 923 INTER-LIGAND FREE ENERGY PREDICTED BY IDOCK:   -7.80 KCAL/MOL
REMARK 924 INTRA-LIGAND FREE ENERGY PREDICTED BY IDOCK:   -1.41 KCAL/MOL
REMARK 927      BINDING AFFINITY PREDICTED BY RF-SCORE:    0.00 PKD
ROOT
HETATM    1  C   UNL     1     -12.511   7.042  71.054  1.00  0.00    -0.373 C  
HETATM    2  C   UNL     1     -11.716   8.107  71.781  1.00  0.00    -0.343 C  
ENDROOT
BRANCH   2   3
HETATM    3  C   UNL     1     -12.181   9.525  71.438  1.00  0.00    -0.455 C  
BRANCH   3   4
HETATM    4  C   UNL     1     -11.070  10.247  70.675  1.00  0.00    -0.358 C  
BRANCH   4   5
HETATM    5  C   UNL     1     -11.495  10.799  69.331  1.00  0.00    -0.295 C  
HETATM    6  N   UNL     1     -10.545  10.893  68.316  1.00  0.00    -0.178 N  
HETATM    7  O   UNL     1     -12.658  11.173  69.151  1.00  0.00    -0.358 OA 
BRANCH   6   8
HETATM    8  C   UNL     1      -9.141  10.417  68.486  1.00  0.00    -0.145 C  
BRANCH   8   9
HETATM    9  C   UNL     1      -9.000   8.921  68.712  1.00  0.00    -0.134 A  
HETATM   10  C   UNL     1      -9.791   8.024  67.993  1.00  0.00    -0.198 A  
HETATM   11  C   UNL     1      -9.906   6.689  68.408  1.00  0.00    -0.138 A  
HETATM   12  C   UNL     1      -9.181   6.162  69.491  1.00  0.00    -0.143 A  
HETATM   13  C   UNL     1      -8.147   8.375  69.675  1.00  0.00    -0.115 A  
HETATM   14  C   UNL     1      -8.212   7.017  70.038  1.00  0.00    -0.133 A  
BRANCH  12  15
HETATM   15  C   UNL     1      -9.461   4.779  70.008  1.00  0.00    -0.240 A  
HETATM   16  C   UNL     1      -9.850   4.669  71.375  1.00  0.00    -0.264 A  
HETATM   17  C   UNL     1     -10.009   3.450  72.034  1.00  0.00    -0.222 A  
HETATM   18  C   UNL     1      -9.832   2.270  71.336  1.00  0.00    -0.175 A  
HETATM   19  C   UNL     1      -9.500   2.327  69.985  1.00  0.00    -0.131 A  
HETATM   20  C   UNL     1      -9.303   3.556  69.299  1.00  0.00    -0.242 A  
BRANCH  20  21
HETATM   21  C   UNL     1      -8.921   3.405  67.897  1.00  0.00    -0.144 A  
HETATM   22  N   UNL     1      -9.765   2.968  66.938  1.00  0.00    -0.389 NA 
HETATM   23  N   UNL     1      -8.946   2.928  65.881  1.00  0.00    -0.142 NA 
HETATM   24  H   UNL     1     -10.755   2.733  67.002  1.00  0.00     0.000 HD 
HETATM   25  N   UNL     1      -7.687   3.327  66.102  1.00  0.00    -0.077 NA 
HETATM   26  N   UNL     1      -7.651   3.600  67.401  1.00  0.00    -0.074 NA 
ENDBRANCH  20  21
ENDBRANCH  12  15
ENDBRANCH   8   9
ENDBRANCH   6   8
BRANCH   6  27
HETATM   27  C   UNL     1     -10.975  11.260  66.915  1.00  0.00    -0.290 C  
HETATM   28  C   UNL     1     -10.050  10.981  65.688  1.00  0.00    -0.256 C  
HETATM   29  O   UNL     1     -10.508  10.679  64.588  1.00  0.00    -0.336 OA 
HETATM   30  C   UNL     1     -11.672  12.653  66.826  1.00  0.00    -0.460 C  
HETATM   31  O   UNL     1      -8.728  11.178  65.825  1.00  0.00    -0.190 OA 
HETATM   32  C   UNL     1     -10.890  13.816  67.427  1.00  0.00    -0.285 C  
HETATM   33  C   UNL     1     -12.195  13.009  65.433  1.00  0.00    -0.520 C  
ENDBRANCH   6  27
ENDBRANCH   4   5
ENDBRANCH   3   4
ENDBRANCH   2   3
TORSDOF 8
ENDMDL
MODEL       80
REMARK 921   NORMALIZED FREE ENERGY PREDICTED BY IDOCK:   -5.91 KCAL/MOL
REMARK 922        TOTAL FREE ENERGY PREDICTED BY IDOCK:   -9.20 KCAL/MOL
REMARK 923 INTER-LIGAND FREE ENERGY PREDICTED BY IDOCK:   -9.10 KCAL/MOL
REMARK 924 INTRA-LIGAND FREE ENERGY PREDICTED BY IDOCK:   -0.10 KCAL/MOL
REMARK 927      BINDING AFFINITY PREDICTED BY RF-SCORE:    0.00 PKD
ROOT
HETATM    1  C   UNL     1     -11.796  15.957  72.024  1.00  0.00    -0.609 C  
HETATM    2  C   UNL     1     -12.799  15.511  70.979  1.00  0.00    -0.543 C  
ENDROOT
BRANCH   2   3
HETATM    3  C   UNL     1     -12.399  14.197  70.304  1.00  0.00    -0.421 C  
BRANCH   3   4
HETATM    4  C   UNL     1     -11.285  14.471  69.293  1.00  0.00    -0.309 C  
BRANCH   4   5
HETATM    5  C   UNL     1     -11.598  14.019  67.883  1.00  0.00    -0.343 C  
HETATM    6  N   UNL     1     -10.675  13.215  67.217  1.00  0.00    -0.253 N  
HETATM    7  O   UNL     1     -12.646  14.373  67.334  1.00  0.00    -0.018 OA 
BRANCH   6   8
HETATM    8  C   UNL     1      -9.417  12.737  67.863  1.00  0.00    -0.208 C  
BRANCH   8   9
HETATM    9  C   UNL     1      -9.578  11.501  68.732  1.00  0.00    -0.112 A  
HETATM   10  C   UNL     1      -8.456  10.790  69.157  1.00  0.00    -0.105 A  
HETATM   11  C   UNL     1      -8.591   9.493  69.676  1.00  0.00    -0.189 A  
HETATM   12  C   UNL     1      -9.840   8.880  69.878  1.00  0.00    -0.190 A  
HETATM   13  C   UNL     1     -10.825  10.978  69.086  1.00  0.00    -0.283 A  
HETATM   14  C   UNL     1     -10.955   9.707  69.676  1.00  0.00    -0.253 A  
BRANCH  12  15
HETATM   15  C   UNL     1      -9.935   7.433  70.273  1.00  0.00    -0.188 A  
HETATM   16  C   UNL     1      -8.896   6.572  69.812  1.00  0.00    -0.143 A  
HETATM   17  C   UNL     1      -8.916   5.186  69.978  1.00  0.00    -0.153 A  
HETATM   18  C   UNL     1      -9.963   4.597  70.662  1.00  0.00    -0.293 A  
HETATM   19  C   UNL     1     -10.976   5.404  71.173  1.00  0.00    -0.126 A  
HETATM   20  C   UNL     1     -10.994   6.812  70.991  1.00  0.00    -0.297 A  
BRANCH  20  21
HETATM   21  C   UNL     1     -12.161   7.477  71.568  1.00  0.00    -0.331 A  
HETATM   22  N   UNL     1     -13.419   7.302  71.109  1.00  0.00    -0.577 NA 
HETATM   23  N   UNL     1     -14.092   8.159  71.885  1.00  0.00    -0.408 NA 
HETATM   24  H   UNL     1     -13.762   6.686  70.373  1.00  0.00     0.000 HD 
HETATM   25  N   UNL     1     -13.362   8.820  72.793  1.00  0.00    -0.287 NA 
HETATM   26  N   UNL     1     -12.117   8.417  72.572  1.00  0.00    -0.384 NA 
ENDBRANCH  20  21
ENDBRANCH  12  15
ENDBRANCH   8   9
ENDBRANCH   6   8
BRANCH   6  27
HETATM   27  C   UNL     1     -11.037  12.594  65.889  1.00  0.00    -0.289 C  
HETATM   28  C   UNL     1     -10.149  11.479  65.251  1.00  0.00    -0.269 C  
HETATM   29  O   UNL     1     -10.636  10.566  64.585  1.00  0.00    -0.250 OA 
HETATM   30  C   UNL     1     -11.534  13.632  64.835  1.00  0.00    -0.352 C  
HETATM   31  O   UNL     1      -8.814  11.587  65.354  1.00  0.00    -0.071 OA 
HETATM   32  C   UNL     1     -10.603  14.814  64.593  1.00  0.00    -0.234 C  
HETATM   33  C   UNL     1     -11.991  13.016  63.511  1.00  0.00    -0.615 C  
ENDBRANCH   6  27
ENDBRANCH   4   5
ENDBRANCH   3   4
ENDBRANCH   2   3
TORSDOF 8
ENDMDL
MODEL       81
REMARK 921   NORMALIZED FREE ENERGY PREDICTED BY IDOCK:   -5.89 KCAL/MOL
REMARK 922        TOTAL FREE ENERGY PREDICTED BY IDOCK:   -9.18 KCAL/MOL
REMARK 923 INTER-LIGAND FREE ENERGY PREDICTED BY IDOCK:   -9.15 KCAL/MOL
REMARK 924 INTRA-LIGAND FREE ENERGY PREDICTED BY IDOCK:   -0.03 KCAL/MOL
REMARK 927      BINDING AFFINITY PREDICTED BY RF-SCORE:    0.00 PKD
ROOT
HETATM    1  C   UNL     1     -12.527  13.894  65.096  1.00  0.00    -0.479 C  
HETATM    2  C   UNL     1     -12.700  12.484  64.570  1.00  0.00    -0.440 C  
ENDROOT
BRANCH   2   3
HETATM    3  C   UNL     1     -11.443  11.958  63.873  1.00  0.00    -0.511 C  
BRANCH   3   4
HETATM    4  C   UNL     1     -10.211  12.378  64.676  1.00  0.00    -0.312 C  
BRANCH   4   5
HETATM    5  C   UNL     1      -9.634  11.284  65.548  1.00  0.00    -0.228 C  
HETATM    6  N   UNL     1      -9.768  11.391  66.931  1.00  0.00    -0.190 N  
HETATM    7  O   UNL     1      -9.044  10.327  65.038  1.00  0.00    -0.176 OA 
BRANCH   6   8
HETATM    8  C   UNL     1     -10.507  12.513  67.580  1.00  0.00    -0.219 C  
BRANCH   8   9
HETATM    9  C   UNL     1      -9.630  13.657  68.061  1.00  0.00    -0.216 A  
HETATM   10  C   UNL     1     -10.162  14.653  68.882  1.00  0.00    -0.241 A  
HETATM   11  C   UNL     1      -9.474  15.862  69.068  1.00  0.00    -0.247 A  
HETATM   12  C   UNL     1      -8.199  16.104  68.527  1.00  0.00    -0.186 A  
HETATM   13  C   UNL     1      -8.299  13.814  67.665  1.00  0.00    -0.183 A  
HETATM   14  C   UNL     1      -7.585  14.999  67.918  1.00  0.00    -0.150 A  
BRANCH  12  15
HETATM   15  C   UNL     1      -7.574  17.469  68.606  1.00  0.00    -0.273 A  
HETATM   16  C   UNL     1      -6.425  17.603  69.440  1.00  0.00    -0.231 A  
HETATM   17  C   UNL     1      -5.819  18.828  69.723  1.00  0.00    -0.258 A  
HETATM   18  C   UNL     1      -6.309  19.981  69.139  1.00  0.00    -0.360 A  
HETATM   19  C   UNL     1      -7.399  19.893  68.277  1.00  0.00    -0.327 A  
HETATM   20  C   UNL     1      -8.052  18.662  67.998  1.00  0.00    -0.296 A  
BRANCH  20  21
HETATM   21  C   UNL     1      -9.200  18.782  67.101  1.00  0.00    -0.287 A  
HETATM   22  N   UNL     1      -9.364  18.024  65.996  1.00  0.00    -0.521 NA 
HETATM   23  N   UNL     1     -10.483  18.554  65.491  1.00  0.00    -0.554 NA 
HETATM   24  H   UNL     1      -8.792  17.258  65.644  1.00  0.00     0.000 HD 
HETATM   25  N   UNL     1     -11.031  19.548  66.202  1.00  0.00    -0.297 NA 
HETATM   26  N   UNL     1     -10.195  19.727  67.217  1.00  0.00    -0.409 NA 
ENDBRANCH  20  21
ENDBRANCH  12  15
ENDBRANCH   8   9
ENDBRANCH   6   8
BRANCH   6  27
HETATM   27  C   UNL     1      -9.374  10.233  67.818  1.00  0.00    -0.144 C  
HETATM   28  C   UNL     1      -9.550   8.756  67.341  1.00  0.00    -0.161 C  
HETATM   29  O   UNL     1      -8.762   7.872  67.672  1.00  0.00    -0.126 OA 
HETATM   30  C   UNL     1      -9.787  10.427  69.310  1.00  0.00    -0.243 C  
HETATM   31  O   UNL     1     -10.649   8.437  66.637  1.00  0.00    -0.262 OA 
HETATM   32  C   UNL     1     -11.257  10.755  69.545  1.00  0.00    -0.342 C  
HETATM   33  C   UNL     1      -9.321   9.308  70.244  1.00  0.00    -0.277 C  
ENDBRANCH   6  27
ENDBRANCH   4   5
ENDBRANCH   3   4
ENDBRANCH   2   3
TORSDOF 8
ENDMDL
MODEL       82
REMARK 921   NORMALIZED FREE ENERGY PREDICTED BY IDOCK:   -5.89 KCAL/MOL
REMARK 922        TOTAL FREE ENERGY PREDICTED BY IDOCK:   -9.17 KCAL/MOL
REMARK 923 INTER-LIGAND FREE ENERGY PREDICTED BY IDOCK:   -7.81 KCAL/MOL
REMARK 924 INTRA-LIGAND FREE ENERGY PREDICTED BY IDOCK:   -1.36 KCAL/MOL
REMARK 927      BINDING AFFINITY PREDICTED BY RF-SCORE:    0.00 PKD
ROOT
HETATM    1  C   UNL     1     -12.466  11.842  70.959  1.00  0.00    -0.390 C  
HETATM    2  C   UNL     1     -12.839  10.412  70.626  1.00  0.00    -0.393 C  
ENDROOT
BRANCH   2   3
HETATM    3  C   UNL     1     -12.739   9.481  71.836  1.00  0.00    -0.496 C  
BRANCH   3   4
HETATM    4  C   UNL     1     -12.437   8.062  71.354  1.00  0.00    -0.320 C  
BRANCH   4   5
HETATM    5  C   UNL     1     -11.218   7.433  71.995  1.00  0.00    -0.251 C  
HETATM    6  N   UNL     1     -10.257   6.848  71.172  1.00  0.00    -0.196 N  
HETATM    7  O   UNL     1     -11.093   7.427  73.223  1.00  0.00    -0.365 OA 
BRANCH   6   8
HETATM    8  C   UNL     1     -10.357   6.869  69.684  1.00  0.00    -0.206 C  
BRANCH   8   9
HETATM    9  C   UNL     1     -10.121   8.229  69.050  1.00  0.00    -0.208 A  
HETATM   10  C   UNL     1      -9.459   9.231  69.761  1.00  0.00    -0.203 A  
HETATM   11  C   UNL     1      -9.515  10.565  69.329  1.00  0.00    -0.191 A  
HETATM   12  C   UNL     1     -10.148  10.953  68.135  1.00  0.00    -0.190 A  
HETATM   13  C   UNL     1     -10.600   8.572  67.782  1.00  0.00    -0.242 A  
HETATM   14  C   UNL     1     -10.588   9.900  67.319  1.00  0.00    -0.316 A  
BRANCH  12  15
HETATM   15  C   UNL     1     -10.334  12.406  67.797  1.00  0.00    -0.222 A  
HETATM   16  C   UNL     1     -11.666  12.912  67.847  1.00  0.00    -0.405 A  
HETATM   17  C   UNL     1     -12.016  14.196  67.429  1.00  0.00    -0.439 A  
HETATM   18  C   UNL     1     -11.033  15.060  66.983  1.00  0.00    -0.318 A  
HETATM   19  C   UNL     1      -9.710  14.626  66.964  1.00  0.00    -0.247 A  
HETATM   20  C   UNL     1      -9.332  13.313  67.356  1.00  0.00    -0.217 A  
BRANCH  20  21
HETATM   21  C   UNL     1      -7.903  13.037  67.227  1.00  0.00    -0.127 A  
HETATM   22  N   UNL     1      -7.404  12.030  66.477  1.00  0.00    -0.369 NA 
HETATM   23  N   UNL     1      -6.098  12.140  66.744  1.00  0.00    -0.200 NA 
HETATM   24  H   UNL     1      -7.891  11.367  65.874  1.00  0.00     0.000 HD 
HETATM   25  N   UNL     1      -5.753  13.139  67.567  1.00  0.00    -0.310 NA 
HETATM   26  N   UNL     1      -6.907  13.697  67.911  1.00  0.00    -0.135 NA 
ENDBRANCH  20  21
ENDBRANCH  12  15
ENDBRANCH   8   9
ENDBRANCH   6   8
BRANCH   6  27
HETATM   27  C   UNL     1      -8.946   6.382  71.760  1.00  0.00    -0.139 C  
HETATM   28  C   UNL     1      -7.645   6.338  70.898  1.00  0.00    -0.096 C  
HETATM   29  O   UNL     1      -6.539   6.570  71.383  1.00  0.00    -0.051 OA 
HETATM   30  C   UNL     1      -9.090   5.129  72.679  1.00  0.00    -0.139 C  
HETATM   31  O   UNL     1      -7.738   5.938  69.618  1.00  0.00    -0.092 OA 
HETATM   32  C   UNL     1      -9.805   3.937  72.053  1.00  0.00    -0.245 C  
HETATM   33  C   UNL     1      -7.790   4.691  73.357  1.00  0.00    -0.095 C  
ENDBRANCH   6  27
ENDBRANCH   4   5
ENDBRANCH   3   4
ENDBRANCH   2   3
TORSDOF 8
ENDMDL
MODEL       83
REMARK 921   NORMALIZED FREE ENERGY PREDICTED BY IDOCK:   -5.87 KCAL/MOL
REMARK 922        TOTAL FREE ENERGY PREDICTED BY IDOCK:   -9.14 KCAL/MOL
REMARK 923 INTER-LIGAND FREE ENERGY PREDICTED BY IDOCK:   -8.31 KCAL/MOL
REMARK 924 INTRA-LIGAND FREE ENERGY PREDICTED BY IDOCK:   -0.83 KCAL/MOL
REMARK 927      BINDING AFFINITY PREDICTED BY RF-SCORE:    0.00 PKD
ROOT
HETATM    1  C   UNL     1     -14.404   8.515  72.228  1.00  0.00    -0.483 C  
HETATM    2  C   UNL     1     -13.540   9.361  71.314  1.00  0.00    -0.296 C  
ENDROOT
BRANCH   2   3
HETATM    3  C   UNL     1     -12.091   9.457  71.799  1.00  0.00    -0.454 C  
BRANCH   3   4
HETATM    4  C   UNL     1     -11.250   8.402  71.079  1.00  0.00    -0.304 C  
BRANCH   4   5
HETATM    5  C   UNL     1      -9.770   8.714  71.029  1.00  0.00    -0.210 C  
HETATM    6  N   UNL     1      -9.114   8.651  69.801  1.00  0.00    -0.148 N  
HETATM    7  O   UNL     1      -9.159   9.002  72.063  1.00  0.00    -0.375 OA 
BRANCH   6   8
HETATM    8  C   UNL     1      -9.827   8.342  68.527  1.00  0.00    -0.176 C  
BRANCH   8   9
HETATM    9  C   UNL     1     -10.427   9.549  67.827  1.00  0.00    -0.309 A  
HETATM   10  C   UNL     1     -10.143   9.796  66.483  1.00  0.00    -0.307 A  
HETATM   11  C   UNL     1     -10.416  11.051  65.918  1.00  0.00    -0.300 A  
HETATM   12  C   UNL     1     -11.060  12.081  66.625  1.00  0.00    -0.358 A  
HETATM   13  C   UNL     1     -11.218  10.495  68.485  1.00  0.00    -0.332 A  
HETATM   14  C   UNL     1     -11.556  11.724  67.888  1.00  0.00    -0.377 A  
BRANCH  12  15
HETATM   15  C   UNL     1     -11.180  13.461  66.041  1.00  0.00    -0.310 A  
HETATM   16  C   UNL     1     -12.202  13.661  65.068  1.00  0.00    -0.450 A  
HETATM   17  C   UNL     1     -12.349  14.841  64.338  1.00  0.00    -0.389 A  
HETATM   18  C   UNL     1     -11.501  15.905  64.586  1.00  0.00    -0.265 A  
HETATM   19  C   UNL     1     -10.518  15.773  65.564  1.00  0.00    -0.425 A  
HETATM   20  C   UNL     1     -10.329  14.572  66.298  1.00  0.00    -0.300 A  
BRANCH  20  21
HETATM   21  C   UNL     1      -9.221  14.618  67.250  1.00  0.00    -0.205 A  
HETATM   22  N   UNL     1      -7.975  14.186  66.962  1.00  0.00    -0.373 NA 
HETATM   23  N   UNL     1      -7.370  14.357  68.143  1.00  0.00    -0.116 NA 
HETATM   24  H   UNL     1      -7.598  13.827  66.085  1.00  0.00     0.000 HD 
HETATM   25  N   UNL     1      -8.127  14.880  69.116  1.00  0.00    -0.172 NA 
HETATM   26  N   UNL     1      -9.326  15.016  68.564  1.00  0.00    -0.190 NA 
ENDBRANCH  20  21
ENDBRANCH  12  15
ENDBRANCH   8   9
ENDBRANCH   6   8
BRANCH   6  27
HETATM   27  C   UNL     1      -7.688   9.136  69.683  1.00  0.00    -0.082 C  
HETATM   28  C   UNL     1      -7.366  10.651  69.489  1.00  0.00    -0.141 C  
HETATM   29  O   UNL     1      -6.359  11.166  69.974  1.00  0.00    -0.127 OA 
HETATM   30  C   UNL     1      -6.794   8.221  68.790  1.00  0.00    -0.062 C  
HETATM   31  O   UNL     1      -8.162  11.378  68.687  1.00  0.00    -0.150 OA 
HETATM   32  C   UNL     1      -7.339   7.935  67.395  1.00  0.00    -0.092 C  
HETATM   33  C   UNL     1      -5.325   8.643  68.726  1.00  0.00    -0.033 C  
ENDBRANCH   6  27
ENDBRANCH   4   5
ENDBRANCH   3   4
ENDBRANCH   2   3
TORSDOF 8
ENDMDL
MODEL       84
REMARK 921   NORMALIZED FREE ENERGY PREDICTED BY IDOCK:   -5.86 KCAL/MOL
REMARK 922        TOTAL FREE ENERGY PREDICTED BY IDOCK:   -9.13 KCAL/MOL
REMARK 923 INTER-LIGAND FREE ENERGY PREDICTED BY IDOCK:   -8.95 KCAL/MOL
REMARK 924 INTRA-LIGAND FREE ENERGY PREDICTED BY IDOCK:   -0.17 KCAL/MOL
REMARK 927      BINDING AFFINITY PREDICTED BY RF-SCORE:    0.00 PKD
ROOT
HETATM    1  C   UNL     1      -8.519   8.951  71.195  1.00  0.00    -0.250 C  
HETATM    2  C   UNL     1      -9.910   8.378  71.375  1.00  0.00    -0.259 C  
ENDROOT
BRANCH   2   3
HETATM    3  C   UNL     1     -10.985   9.211  70.671  1.00  0.00    -0.319 C  
BRANCH   3   4
HETATM    4  C   UNL     1     -10.311  10.316  69.858  1.00  0.00    -0.281 C  
BRANCH   4   5
HETATM    5  C   UNL     1     -11.016  10.655  68.562  1.00  0.00    -0.248 C  
HETATM    6  N   UNL     1     -10.267  11.174  67.508  1.00  0.00    -0.182 N  
HETATM    7  O   UNL     1     -12.235  10.486  68.454  1.00  0.00    -0.251 OA 
BRANCH   6   8
HETATM    8  C   UNL     1      -8.788  11.356  67.591  1.00  0.00    -0.139 C  
BRANCH   8   9
HETATM    9  C   UNL     1      -8.340  12.762  67.954  1.00  0.00    -0.172 A  
HETATM   10  C   UNL     1      -9.201  13.619  68.640  1.00  0.00    -0.045 A  
HETATM   11  C   UNL     1      -8.936  14.996  68.698  1.00  0.00    -0.186 A  
HETATM   12  C   UNL     1      -7.770  15.570  68.161  1.00  0.00    -0.126 A  
HETATM   13  C   UNL     1      -7.103  13.289  67.571  1.00  0.00    -0.156 A  
HETATM   14  C   UNL     1      -6.809  14.658  67.699  1.00  0.00    -0.204 A  
BRANCH  12  15
HETATM   15  C   UNL     1      -7.606  17.063  68.092  1.00  0.00    -0.194 A  
HETATM   16  C   UNL     1      -6.683  17.651  69.006  1.00  0.00    -0.250 A  
HETATM   17  C   UNL     1      -6.523  19.029  69.157  1.00  0.00    -0.315 A  
HETATM   18  C   UNL     1      -7.252  19.891  68.359  1.00  0.00    -0.331 A  
HETATM   19  C   UNL     1      -8.130  19.361  67.417  1.00  0.00    -0.313 A  
HETATM   20  C   UNL     1      -8.332  17.963  67.265  1.00  0.00    -0.232 A  
BRANCH  20  21
HETATM   21  C   UNL     1      -9.323  17.607  66.251  1.00  0.00    -0.197 A  
HETATM   22  N   UNL     1     -10.301  18.443  65.840  1.00  0.00    -0.601 NA 
HETATM   23  N   UNL     1     -10.971  17.651  64.996  1.00  0.00    -0.733 NA 
HETATM   24  H   UNL     1     -10.479  19.412  66.102  1.00  0.00     0.000 HD 
HETATM   25  N   UNL     1     -10.475  16.417  64.834  1.00  0.00    -0.618 NA 
HETATM   26  N   UNL     1      -9.439  16.367  65.663  1.00  0.00    -0.484 NA 
ENDBRANCH  20  21
ENDBRANCH  12  15
ENDBRANCH   8   9
ENDBRANCH   6   8
BRANCH   6  27
HETATM   27  C   UNL     1     -10.899  11.345  66.147  1.00  0.00    -0.255 C  
HETATM   28  C   UNL     1     -10.042  11.271  64.844  1.00  0.00    -0.281 C  
HETATM   29  O   UNL     1     -10.493  10.804  63.799  1.00  0.00    -0.319 OA 
HETATM   30  C   UNL     1     -11.958  12.491  66.096  1.00  0.00    -0.432 C  
HETATM   31  O   UNL     1      -8.818  11.825  64.850  1.00  0.00     0.252 OA 
HETATM   32  C   UNL     1     -11.476  13.849  66.594  1.00  0.00    -0.370 C  
HETATM   33  C   UNL     1     -12.676  12.625  64.751  1.00  0.00    -0.460 C  
ENDBRANCH   6  27
ENDBRANCH   4   5
ENDBRANCH   3   4
ENDBRANCH   2   3
TORSDOF 8
ENDMDL
MODEL       85
REMARK 921   NORMALIZED FREE ENERGY PREDICTED BY IDOCK:   -5.85 KCAL/MOL
REMARK 922        TOTAL FREE ENERGY PREDICTED BY IDOCK:   -9.11 KCAL/MOL
REMARK 923 INTER-LIGAND FREE ENERGY PREDICTED BY IDOCK:   -8.33 KCAL/MOL
REMARK 924 INTRA-LIGAND FREE ENERGY PREDICTED BY IDOCK:   -0.78 KCAL/MOL
REMARK 927      BINDING AFFINITY PREDICTED BY RF-SCORE:    0.00 PKD
ROOT
HETATM    1  C   UNL     1      -9.211   6.191  73.393  1.00  0.00    -0.132 C  
HETATM    2  C   UNL     1     -10.650   6.664  73.358  1.00  0.00    -0.333 C  
ENDROOT
BRANCH   2   3
HETATM    3  C   UNL     1     -10.791   8.080  72.796  1.00  0.00    -0.438 C  
BRANCH   3   4
HETATM    4  C   UNL     1     -11.699   8.043  71.566  1.00  0.00    -0.321 C  
BRANCH   4   5
HETATM    5  C   UNL     1     -11.134   7.266  70.397  1.00  0.00    -0.268 C  
HETATM    6  N   UNL     1     -10.026   7.779  69.725  1.00  0.00    -0.186 N  
HETATM    7  O   UNL     1     -11.660   6.207  70.041  1.00  0.00    -0.392 OA 
BRANCH   6   8
HETATM    8  C   UNL     1      -9.343   9.036  70.151  1.00  0.00    -0.192 C  
BRANCH   8   9
HETATM    9  C   UNL     1      -9.697  10.262  69.325  1.00  0.00    -0.240 A  
HETATM   10  C   UNL     1      -8.690  11.017  68.722  1.00  0.00    -0.146 A  
HETATM   11  C   UNL     1      -8.962  12.306  68.238  1.00  0.00    -0.182 A  
HETATM   12  C   UNL     1     -10.252  12.867  68.248  1.00  0.00    -0.245 A  
HETATM   13  C   UNL     1     -11.005  10.733  69.185  1.00  0.00    -0.293 A  
HETATM   14  C   UNL     1     -11.283  11.996  68.629  1.00  0.00    -0.309 A  
BRANCH  12  15
HETATM   15  C   UNL     1     -10.469  14.308  67.880  1.00  0.00    -0.240 A  
HETATM   16  C   UNL     1      -9.943  14.738  66.627  1.00  0.00    -0.272 A  
HETATM   17  C   UNL     1      -9.943  16.070  66.210  1.00  0.00    -0.329 A  
HETATM   18  C   UNL     1     -10.520  17.036  67.013  1.00  0.00    -0.279 A  
HETATM   19  C   UNL     1     -11.092  16.655  68.224  1.00  0.00    -0.295 A  
HETATM   20  C   UNL     1     -11.077  15.311  68.685  1.00  0.00    -0.282 A  
BRANCH  20  21
HETATM   21  C   UNL     1     -11.691  15.120  69.997  1.00  0.00    -0.307 A  
HETATM   22  N   UNL     1     -10.996  15.142  71.155  1.00  0.00    -0.552 NA 
HETATM   23  N   UNL     1     -11.960  14.845  72.033  1.00  0.00    -0.364 NA 
HETATM   24  H   UNL     1     -10.007  15.332  71.315  1.00  0.00     0.000 HD 
HETATM   25  N   UNL     1     -13.185  14.671  71.520  1.00  0.00    -0.335 NA 
HETATM   26  N   UNL     1     -13.016  14.809  70.210  1.00  0.00    -0.218 NA 
ENDBRANCH  20  21
ENDBRANCH  12  15
ENDBRANCH   8   9
ENDBRANCH   6   8
BRANCH   6  27
HETATM   27  C   UNL     1      -9.325   6.943  68.682  1.00  0.00    -0.135 C  
HETATM   28  C   UNL     1      -7.771   6.978  68.531  1.00  0.00    -0.120 C  
HETATM   29  O   UNL     1      -7.130   5.981  68.201  1.00  0.00    -0.073 OA 
HETATM   30  C   UNL     1     -10.054   6.935  67.302  1.00  0.00    -0.256 C  
HETATM   31  O   UNL     1      -7.140   8.156  68.669  1.00  0.00    -0.069 OA 
HETATM   32  C   UNL     1     -10.359   8.308  66.715  1.00  0.00    -0.361 C  
HETATM   33  C   UNL     1      -9.411   6.024  66.255  1.00  0.00    -0.165 C  
ENDBRANCH   6  27
ENDBRANCH   4   5
ENDBRANCH   3   4
ENDBRANCH   2   3
TORSDOF 8
ENDMDL
MODEL       86
REMARK 921   NORMALIZED FREE ENERGY PREDICTED BY IDOCK:   -5.83 KCAL/MOL
REMARK 922        TOTAL FREE ENERGY PREDICTED BY IDOCK:   -9.08 KCAL/MOL
REMARK 923 INTER-LIGAND FREE ENERGY PREDICTED BY IDOCK:   -8.82 KCAL/MOL
REMARK 924 INTRA-LIGAND FREE ENERGY PREDICTED BY IDOCK:   -0.25 KCAL/MOL
REMARK 927      BINDING AFFINITY PREDICTED BY RF-SCORE:    0.00 PKD
ROOT
HETATM    1  C   UNL     1      -7.896  10.661  65.746  1.00  0.00    -0.141 C  
HETATM    2  C   UNL     1      -6.621  11.123  66.422  1.00  0.00    -0.108 C  
ENDROOT
BRANCH   2   3
HETATM    3  C   UNL     1      -6.863  12.260  67.418  1.00  0.00    -0.145 C  
BRANCH   3   4
HETATM    4  C   UNL     1      -8.279  12.803  67.226  1.00  0.00    -0.181 C  
BRANCH   4   5
HETATM    5  C   UNL     1      -8.382  14.311  67.298  1.00  0.00    -0.204 C  
HETATM    6  N   UNL     1      -9.540  14.926  66.825  1.00  0.00    -0.239 N  
HETATM    7  O   UNL     1      -7.449  14.978  67.755  1.00  0.00    -0.127 OA 
BRANCH   6   8
HETATM    8  C   UNL     1     -10.702  14.150  66.302  1.00  0.00    -0.293 C  
BRANCH   8   9
HETATM    9  C   UNL     1     -11.230  13.082  67.246  1.00  0.00    -0.325 A  
HETATM   10  C   UNL     1     -11.653  13.427  68.530  1.00  0.00    -0.368 A  
HETATM   11  C   UNL     1     -11.835  12.437  69.508  1.00  0.00    -0.368 A  
HETATM   12  C   UNL     1     -11.693  11.064  69.238  1.00  0.00    -0.397 A  
HETATM   13  C   UNL     1     -11.255  11.723  66.920  1.00  0.00    -0.387 A  
HETATM   14  C   UNL     1     -11.511  10.733  67.886  1.00  0.00    -0.306 A  
BRANCH  12  15
HETATM   15  C   UNL     1     -11.726  10.051  70.347  1.00  0.00    -0.365 A  
HETATM   16  C   UNL     1     -12.931   9.968  71.106  1.00  0.00    -0.478 A  
HETATM   17  C   UNL     1     -13.067   9.179  72.248  1.00  0.00    -0.509 A  
HETATM   18  C   UNL     1     -12.009   8.391  72.662  1.00  0.00    -0.346 A  
HETATM   19  C   UNL     1     -10.829   8.401  71.924  1.00  0.00    -0.372 A  
HETATM   20  C   UNL     1     -10.655   9.219  70.775  1.00  0.00    -0.351 A  
BRANCH  20  21
HETATM   21  C   UNL     1      -9.332   9.119  70.162  1.00  0.00    -0.209 A  
HETATM   22  N   UNL     1      -8.292   9.908  70.506  1.00  0.00    -0.392 NA 
HETATM   23  N   UNL     1      -7.365   9.497  69.633  1.00  0.00    -0.074 NA 
HETATM   24  H   UNL     1      -8.230  10.622  71.231  1.00  0.00     0.000 HD 
HETATM   25  N   UNL     1      -7.737   8.511  68.808  1.00  0.00    -0.100 NA 
HETATM   26  N   UNL     1      -9.009   8.287  69.114  1.00  0.00    -0.147 NA 
ENDBRANCH  20  21
ENDBRANCH  12  15
ENDBRANCH   8   9
ENDBRANCH   6   8
BRANCH   6  27
HETATM   27  C   UNL     1      -9.756  16.403  67.054  1.00  0.00    -0.248 C  
HETATM   28  C   UNL     1     -10.563  16.919  68.287  1.00  0.00    -0.363 C  
HETATM   29  O   UNL     1     -10.279  17.975  68.850  1.00  0.00    -0.379 OA 
HETATM   30  C   UNL     1     -10.100  17.188  65.750  1.00  0.00    -0.192 C  
HETATM   31  O   UNL     1     -11.655  16.236  68.669  1.00  0.00    -0.355 OA 
HETATM   32  C   UNL     1     -11.268  16.635  64.942  1.00  0.00    -0.065 C  
HETATM   33  C   UNL     1     -10.235  18.700  65.941  1.00  0.00    -0.284 C  
ENDBRANCH   6  27
ENDBRANCH   4   5
ENDBRANCH   3   4
ENDBRANCH   2   3
TORSDOF 8
ENDMDL
MODEL       87
REMARK 921   NORMALIZED FREE ENERGY PREDICTED BY IDOCK:   -5.79 KCAL/MOL
REMARK 922        TOTAL FREE ENERGY PREDICTED BY IDOCK:   -9.02 KCAL/MOL
REMARK 923 INTER-LIGAND FREE ENERGY PREDICTED BY IDOCK:   -9.17 KCAL/MOL
REMARK 924 INTRA-LIGAND FREE ENERGY PREDICTED BY IDOCK:    0.15 KCAL/MOL
REMARK 927      BINDING AFFINITY PREDICTED BY RF-SCORE:    0.00 PKD
ROOT
HETATM    1  C   UNL     1      -9.009   4.462  65.510  1.00  0.00    -0.135 C  
HETATM    2  C   UNL     1      -9.315   5.719  66.298  1.00  0.00    -0.171 C  
ENDROOT
BRANCH   2   3
HETATM    3  C   UNL     1     -10.785   5.808  66.718  1.00  0.00    -0.369 C  
BRANCH   3   4
HETATM    4  C   UNL     1     -10.924   6.830  67.846  1.00  0.00    -0.309 C  
BRANCH   4   5
HETATM    5  C   UNL     1     -10.422   6.346  69.190  1.00  0.00    -0.229 C  
HETATM    6  N   UNL     1      -9.569   7.171  69.922  1.00  0.00    -0.163 N  
HETATM    7  O   UNL     1     -10.753   5.236  69.615  1.00  0.00    -0.273 OA 
BRANCH   6   8
HETATM    8  C   UNL     1      -9.178   8.533  69.455  1.00  0.00    -0.150 C  
BRANCH   8   9
HETATM    9  C   UNL     1     -10.235   9.604  69.664  1.00  0.00    -0.239 A  
HETATM   10  C   UNL     1     -10.282  10.718  68.826  1.00  0.00    -0.207 A  
HETATM   11  C   UNL     1     -11.025  11.852  69.191  1.00  0.00    -0.251 A  
HETATM   12  C   UNL     1     -11.820  11.900  70.350  1.00  0.00    -0.329 A  
HETATM   13  C   UNL     1     -11.150   9.573  70.720  1.00  0.00    -0.390 A  
HETATM   14  C   UNL     1     -11.951  10.685  71.040  1.00  0.00    -0.442 A  
BRANCH  12  15
HETATM   15  C   UNL     1     -12.461  13.185  70.793  1.00  0.00    -0.389 A  
HETATM   16  C   UNL     1     -13.493  13.085  71.772  1.00  0.00    -0.401 A  
HETATM   17  C   UNL     1     -14.273  14.168  72.180  1.00  0.00    -0.638 A  
HETATM   18  C   UNL     1     -14.022  15.423  71.659  1.00  0.00    -0.617 A  
HETATM   19  C   UNL     1     -12.990  15.579  70.737  1.00  0.00    -0.490 A  
HETATM   20  C   UNL     1     -12.202  14.487  70.283  1.00  0.00    -0.391 A  
BRANCH  20  21
HETATM   21  C   UNL     1     -11.197  14.847  69.285  1.00  0.00    -0.284 A  
HETATM   22  N   UNL     1      -9.898  15.069  69.583  1.00  0.00    -0.433 NA 
HETATM   23  N   UNL     1      -9.424  15.435  68.387  1.00  0.00    -0.196 NA 
HETATM   24  H   UNL     1      -9.413  14.982  70.475  1.00  0.00     0.000 HD 
HETATM   25  N   UNL     1     -10.309  15.430  67.382  1.00  0.00    -0.258 NA 
HETATM   26  N   UNL     1     -11.457  15.090  67.955  1.00  0.00    -0.333 NA 
ENDBRANCH  20  21
ENDBRANCH  12  15
ENDBRANCH   8   9
ENDBRANCH   6   8
BRANCH   6  27
HETATM   27  C   UNL     1      -9.202   6.805  71.340  1.00  0.00    -0.153 C  
HETATM   28  C   UNL     1      -8.683   7.883  72.343  1.00  0.00    -0.152 C  
HETATM   29  O   UNL     1      -8.945   7.829  73.544  1.00  0.00    -0.215 OA 
HETATM   30  C   UNL     1      -8.410   5.465  71.449  1.00  0.00    -0.122 C  
HETATM   31  O   UNL     1      -7.848   8.832  71.888  1.00  0.00    -0.271 OA 
HETATM   32  C   UNL     1      -7.166   5.367  70.574  1.00  0.00    -0.066 C  
HETATM   33  C   UNL     1      -8.104   5.028  72.883  1.00  0.00    -0.105 C  
ENDBRANCH   6  27
ENDBRANCH   4   5
ENDBRANCH   3   4
ENDBRANCH   2   3
TORSDOF 8
ENDMDL
MODEL       88
REMARK 921   NORMALIZED FREE ENERGY PREDICTED BY IDOCK:   -5.79 KCAL/MOL
REMARK 922        TOTAL FREE ENERGY PREDICTED BY IDOCK:   -9.02 KCAL/MOL
REMARK 923 INTER-LIGAND FREE ENERGY PREDICTED BY IDOCK:   -8.04 KCAL/MOL
REMARK 924 INTRA-LIGAND FREE ENERGY PREDICTED BY IDOCK:   -0.98 KCAL/MOL
REMARK 927      BINDING AFFINITY PREDICTED BY RF-SCORE:    0.00 PKD
ROOT
HETATM    1  C   UNL     1     -10.150   4.925  66.124  1.00  0.00    -0.280 C  
HETATM    2  C   UNL     1      -8.763   5.528  66.206  1.00  0.00    -0.128 C  
ENDROOT
BRANCH   2   3
HETATM    3  C   UNL     1      -7.818   4.712  67.093  1.00  0.00    -0.094 C  
BRANCH   3   4
HETATM    4  C   UNL     1      -7.641   5.430  68.431  1.00  0.00    -0.080 C  
BRANCH   4   5
HETATM    5  C   UNL     1      -8.735   5.149  69.438  1.00  0.00    -0.099 C  
HETATM    6  N   UNL     1      -9.202   6.198  70.229  1.00  0.00    -0.155 N  
HETATM    7  O   UNL     1      -9.189   4.008  69.562  1.00  0.00    -0.119 OA 
BRANCH   6   8
HETATM    8  C   UNL     1      -8.703   7.596  70.080  1.00  0.00    -0.141 C  
BRANCH   8   9
HETATM    9  C   UNL     1      -9.109   8.282  68.786  1.00  0.00    -0.144 A  
HETATM   10  C   UNL     1      -8.309   9.286  68.242  1.00  0.00    -0.120 A  
HETATM   11  C   UNL     1      -8.814  10.137  67.247  1.00  0.00    -0.137 A  
HETATM   12  C   UNL     1     -10.095   9.979  66.688  1.00  0.00    -0.289 A  
HETATM   13  C   UNL     1     -10.309   8.006  68.124  1.00  0.00    -0.250 A  
HETATM   14  C   UNL     1     -10.780   8.817  67.075  1.00  0.00    -0.186 A  
BRANCH  12  15
HETATM   15  C   UNL     1     -10.662  11.010  65.754  1.00  0.00    -0.216 A  
HETATM   16  C   UNL     1     -10.420  10.819  64.361  1.00  0.00    -0.344 A  
HETATM   17  C   UNL     1     -10.761  11.757  63.386  1.00  0.00    -0.468 A  
HETATM   18  C   UNL     1     -11.410  12.919  63.756  1.00  0.00    -0.490 A  
HETATM   19  C   UNL     1     -11.713  13.127  65.100  1.00  0.00    -0.367 A  
HETATM   20  C   UNL     1     -11.349  12.202  66.115  1.00  0.00    -0.414 A  
BRANCH  20  21
HETATM   21  C   UNL     1     -11.719  12.618  67.466  1.00  0.00    -0.368 A  
HETATM   22  N   UNL     1     -11.685  13.901  67.885  1.00  0.00    -0.341 NA 
HETATM   23  N   UNL     1     -12.020  13.755  69.172  1.00  0.00    -0.350 NA 
HETATM   24  H   UNL     1     -11.465  14.749  67.363  1.00  0.00     0.000 HD 
HETATM   25  N   UNL     1     -12.281  12.503  69.568  1.00  0.00    -0.150 NA 
HETATM   26  N   UNL     1     -12.054  11.762  68.491  1.00  0.00    -0.455 NA 
ENDBRANCH  20  21
ENDBRANCH  12  15
ENDBRANCH   8   9
ENDBRANCH   6   8
BRANCH   6  27
HETATM   27  C   UNL     1     -10.416   5.997  71.105  1.00  0.00    -0.230 C  
HETATM   28  C   UNL     1     -11.400   7.172  71.401  1.00  0.00    -0.259 C  
HETATM   29  O   UNL     1     -12.608   6.984  71.543  1.00  0.00    -0.358 OA 
HETATM   30  C   UNL     1     -10.128   5.132  72.372  1.00  0.00    -0.233 C  
HETATM   31  O   UNL     1     -10.891   8.399  71.602  1.00  0.00    -0.235 OA 
HETATM   32  C   UNL     1      -8.964   5.604  73.236  1.00  0.00    -0.127 C  
HETATM   33  C   UNL     1     -11.362   4.841  73.229  1.00  0.00    -0.408 C  
ENDBRANCH   6  27
ENDBRANCH   4   5
ENDBRANCH   3   4
ENDBRANCH   2   3
TORSDOF 8
ENDMDL
MODEL       89
REMARK 921   NORMALIZED FREE ENERGY PREDICTED BY IDOCK:   -5.78 KCAL/MOL
REMARK 922        TOTAL FREE ENERGY PREDICTED BY IDOCK:   -9.01 KCAL/MOL
REMARK 923 INTER-LIGAND FREE ENERGY PREDICTED BY IDOCK:   -8.27 KCAL/MOL
REMARK 924 INTRA-LIGAND FREE ENERGY PREDICTED BY IDOCK:   -0.74 KCAL/MOL
REMARK 927      BINDING AFFINITY PREDICTED BY RF-SCORE:    0.00 PKD
ROOT
HETATM    1  C   UNL     1      -8.049   7.868  65.680  1.00  0.00    -0.130 C  
HETATM    2  C   UNL     1      -7.019   8.532  66.572  1.00  0.00    -0.075 C  
ENDROOT
BRANCH   2   3
HETATM    3  C   UNL     1      -6.908   7.860  67.943  1.00  0.00    -0.072 C  
BRANCH   3   4
HETATM    4  C   UNL     1      -8.011   6.809  68.078  1.00  0.00    -0.114 C  
BRANCH   4   5
HETATM    5  C   UNL     1      -8.500   6.598  69.494  1.00  0.00    -0.132 C  
HETATM    6  N   UNL     1      -9.797   6.991  69.820  1.00  0.00    -0.168 N  
HETATM    7  O   UNL     1      -7.753   6.102  70.343  1.00  0.00    -0.093 OA 
BRANCH   6   8
HETATM    8  C   UNL     1     -10.738   7.560  68.812  1.00  0.00    -0.095 C  
BRANCH   8   9
HETATM    9  C   UNL     1     -10.394   8.964  68.342  1.00  0.00    -0.237 A  
HETATM   10  C   UNL     1      -9.839   9.886  69.230  1.00  0.00    -0.217 A  
HETATM   11  C   UNL     1      -9.815  11.252  68.912  1.00  0.00    -0.153 A  
HETATM   12  C   UNL     1     -10.256  11.755  67.675  1.00  0.00    -0.216 A  
HETATM   13  C   UNL     1     -10.672   9.423  67.051  1.00  0.00    -0.207 A  
HETATM   14  C   UNL     1     -10.576  10.785  66.712  1.00  0.00    -0.307 A  
BRANCH  12  15
HETATM   15  C   UNL     1     -10.374  13.235  67.441  1.00  0.00    -0.243 A  
HETATM   16  C   UNL     1      -9.882  14.090  68.470  1.00  0.00    -0.225 A  
HETATM   17  C   UNL     1     -10.044  15.476  68.461  1.00  0.00    -0.211 A  
HETATM   18  C   UNL     1     -10.670  16.081  67.387  1.00  0.00    -0.306 A  
HETATM   19  C   UNL     1     -11.124  15.291  66.334  1.00  0.00    -0.273 A  
HETATM   20  C   UNL     1     -10.997  13.876  66.334  1.00  0.00    -0.303 A  
BRANCH  20  21
HETATM   21  C   UNL     1     -11.570  13.222  65.159  1.00  0.00    -0.308 A  
HETATM   22  N   UNL     1     -10.906  13.071  63.994  1.00  0.00    -0.469 NA 
HETATM   23  N   UNL     1     -11.854  12.510  63.235  1.00  0.00    -0.466 NA 
HETATM   24  H   UNL     1      -9.945  13.318  63.757  1.00  0.00     0.000 HD 
HETATM   25  N   UNL     1     -13.026  12.280  63.840  1.00  0.00    -0.766 NA 
HETATM   26  N   UNL     1     -12.867  12.768  65.064  1.00  0.00    -0.821 NA 
ENDBRANCH  20  21
ENDBRANCH  12  15
ENDBRANCH   8   9
ENDBRANCH   6   8
BRANCH   6  27
HETATM   27  C   UNL     1     -10.378   6.625  71.165  1.00  0.00    -0.206 C  
HETATM   28  C   UNL     1     -11.910   6.753  71.443  1.00  0.00    -0.338 C  
HETATM   29  O   UNL     1     -12.500   5.969  72.185  1.00  0.00    -0.203 OA 
HETATM   30  C   UNL     1      -9.515   7.118  72.368  1.00  0.00    -0.166 C  
HETATM   31  O   UNL     1     -12.567   7.809  70.935  1.00  0.00    -0.171 OA 
HETATM   32  C   UNL     1      -9.172   8.603  72.363  1.00  0.00    -0.257 C  
HETATM   33  C   UNL     1     -10.037   6.683  73.739  1.00  0.00    -0.325 C  
ENDBRANCH   6  27
ENDBRANCH   4   5
ENDBRANCH   3   4
ENDBRANCH   2   3
TORSDOF 8
ENDMDL
MODEL       90
REMARK 921   NORMALIZED FREE ENERGY PREDICTED BY IDOCK:   -5.77 KCAL/MOL
REMARK 922        TOTAL FREE ENERGY PREDICTED BY IDOCK:   -9.00 KCAL/MOL
REMARK 923 INTER-LIGAND FREE ENERGY PREDICTED BY IDOCK:   -9.42 KCAL/MOL
REMARK 924 INTRA-LIGAND FREE ENERGY PREDICTED BY IDOCK:    0.42 KCAL/MOL
REMARK 927      BINDING AFFINITY PREDICTED BY RF-SCORE:    0.00 PKD
ROOT
HETATM    1  C   UNL     1      -9.654  17.457  67.846  1.00  0.00    -0.267 C  
HETATM    2  C   UNL     1     -10.104  16.014  67.940  1.00  0.00    -0.241 C  
ENDROOT
BRANCH   2   3
HETATM    3  C   UNL     1     -10.810  15.703  69.262  1.00  0.00    -0.250 C  
BRANCH   3   4
HETATM    4  C   UNL     1     -11.225  14.231  69.275  1.00  0.00    -0.309 C  
BRANCH   4   5
HETATM    5  C   UNL     1     -11.488  13.646  67.904  1.00  0.00    -0.314 C  
HETATM    6  N   UNL     1     -10.527  12.811  67.338  1.00  0.00    -0.228 N  
HETATM    7  O   UNL     1     -12.529  13.920  67.300  1.00  0.00    -0.259 OA 
BRANCH   6   8
HETATM    8  C   UNL     1      -9.275  12.429  68.055  1.00  0.00    -0.203 C  
BRANCH   8   9
HETATM    9  C   UNL     1      -9.388  11.174  68.904  1.00  0.00    -0.117 A  
HETATM   10  C   UNL     1     -10.637  10.729  69.340  1.00  0.00    -0.254 A  
HETATM   11  C   UNL     1     -10.734   9.781  70.370  1.00  0.00    -0.368 A  
HETATM   12  C   UNL     1      -9.609   9.169  70.950  1.00  0.00    -0.347 A  
HETATM   13  C   UNL     1      -8.275  10.452  69.347  1.00  0.00    -0.158 A  
HETATM   14  C   UNL     1      -8.384   9.448  70.326  1.00  0.00    -0.217 A  
BRANCH  12  15
HETATM   15  C   UNL     1      -9.748   8.291  72.162  1.00  0.00    -0.344 A  
HETATM   16  C   UNL     1      -8.540   7.849  72.778  1.00  0.00    -0.225 A  
HETATM   17  C   UNL     1      -8.503   6.923  73.821  1.00  0.00    -0.152 A  
HETATM   18  C   UNL     1      -9.687   6.428  74.335  1.00  0.00    -0.310 A  
HETATM   19  C   UNL     1     -10.894   6.869  73.799  1.00  0.00    -0.088 A  
HETATM   20  C   UNL     1     -10.957   7.788  72.717  1.00  0.00    -0.447 A  
BRANCH  20  21
HETATM   21  C   UNL     1     -12.314   8.096  72.270  1.00  0.00    -0.323 A  
HETATM   22  N   UNL     1     -13.107   9.008  72.873  1.00  0.00    -0.726 NA 
HETATM   23  N   UNL     1     -14.235   8.866  72.169  1.00  0.00    -0.418 NA 
HETATM   24  H   UNL     1     -12.902   9.632  73.653  1.00  0.00     0.000 HD 
HETATM   25  N   UNL     1     -14.193   7.970  71.174  1.00  0.00    -0.213 NA 
HETATM   26  N   UNL     1     -12.977   7.445  71.254  1.00  0.00    -0.338 NA 
ENDBRANCH  20  21
ENDBRANCH  12  15
ENDBRANCH   8   9
ENDBRANCH   6   8
BRANCH   6  27
HETATM   27  C   UNL     1     -10.837  12.063  66.063  1.00  0.00    -0.289 C  
HETATM   28  C   UNL     1      -9.859  10.982  65.504  1.00  0.00    -0.243 C  
HETATM   29  O   UNL     1     -10.267   9.984  64.912  1.00  0.00    -0.261 OA 
HETATM   30  C   UNL     1     -11.419  12.973  64.937  1.00  0.00    -0.348 C  
HETATM   31  O   UNL     1      -8.537  11.208  65.589  1.00  0.00    -0.167 OA 
HETATM   32  C   UNL     1     -10.591  14.208  64.600  1.00  0.00    -0.391 C  
HETATM   33  C   UNL     1     -11.823  12.223  63.666  1.00  0.00    -0.610 C  
ENDBRANCH   6  27
ENDBRANCH   4   5
ENDBRANCH   3   4
ENDBRANCH   2   3
TORSDOF 8
ENDMDL
MODEL       91
REMARK 921   NORMALIZED FREE ENERGY PREDICTED BY IDOCK:   -5.77 KCAL/MOL
REMARK 922        TOTAL FREE ENERGY PREDICTED BY IDOCK:   -8.99 KCAL/MOL
REMARK 923 INTER-LIGAND FREE ENERGY PREDICTED BY IDOCK:   -8.67 KCAL/MOL
REMARK 924 INTRA-LIGAND FREE ENERGY PREDICTED BY IDOCK:   -0.33 KCAL/MOL
REMARK 927      BINDING AFFINITY PREDICTED BY RF-SCORE:    0.00 PKD
ROOT
HETATM    1  C   UNL     1      -9.304   7.571  66.386  1.00  0.00    -0.211 C  
HETATM    2  C   UNL     1     -10.619   7.664  67.133  1.00  0.00    -0.410 C  
ENDROOT
BRANCH   2   3
HETATM    3  C   UNL     1     -11.015   6.341  67.793  1.00  0.00    -0.427 C  
BRANCH   3   4
HETATM    4  C   UNL     1     -11.013   6.517  69.311  1.00  0.00    -0.389 C  
BRANCH   4   5
HETATM    5  C   UNL     1      -9.646   6.782  69.905  1.00  0.00    -0.155 C  
HETATM    6  N   UNL     1      -9.459   7.937  70.663  1.00  0.00    -0.162 N  
HETATM    7  O   UNL     1      -8.717   5.995  69.705  1.00  0.00    -0.130 OA 
BRANCH   6   8
HETATM    8  C   UNL     1     -10.568   8.891  70.957  1.00  0.00    -0.247 C  
BRANCH   8   9
HETATM    9  C   UNL     1     -10.706  10.031  69.961  1.00  0.00    -0.348 A  
HETATM   10  C   UNL     1     -11.916  10.712  69.836  1.00  0.00    -0.385 A  
HETATM   11  C   UNL     1     -12.160  11.532  68.723  1.00  0.00    -0.234 A  
HETATM   12  C   UNL     1     -11.190  11.782  67.736  1.00  0.00    -0.331 A  
HETATM   13  C   UNL     1      -9.681  10.405  69.087  1.00  0.00    -0.234 A  
HETATM   14  C   UNL     1      -9.907  11.287  68.014  1.00  0.00    -0.186 A  
BRANCH  12  15
HETATM   15  C   UNL     1     -11.544  12.524  66.477  1.00  0.00    -0.447 A  
HETATM   16  C   UNL     1     -11.765  11.737  65.308  1.00  0.00    -0.132 A  
HETATM   17  C   UNL     1     -11.965  12.284  64.040  1.00  0.00    -0.551 A  
HETATM   18  C   UNL     1     -12.002  13.658  63.889  1.00  0.00    -0.455 A  
HETATM   19  C   UNL     1     -11.841  14.467  65.011  1.00  0.00    -0.400 A  
HETATM   20  C   UNL     1     -11.606  13.934  66.307  1.00  0.00    -0.378 A  
BRANCH  20  21
HETATM   21  C   UNL     1     -11.423  14.945  67.347  1.00  0.00    -0.343 A  
HETATM   22  N   UNL     1     -12.189  15.019  68.456  1.00  0.00    -0.602 NA 
HETATM   23  N   UNL     1     -11.696  16.122  69.030  1.00  0.00    -0.313 NA 
HETATM   24  H   UNL     1     -12.938  14.402  68.770  1.00  0.00     0.000 HD 
HETATM   25  N   UNL     1     -10.682  16.712  68.384  1.00  0.00    -0.337 NA 
HETATM   26  N   UNL     1     -10.524  15.986  67.285  1.00  0.00    -0.304 NA 
ENDBRANCH  20  21
ENDBRANCH  12  15
ENDBRANCH   8   9
ENDBRANCH   6   8
BRANCH   6  27
HETATM   27  C   UNL     1      -8.169   8.137  71.424  1.00  0.00    -0.120 C  
HETATM   28  C   UNL     1      -6.794   8.170  70.685  1.00  0.00    -0.037 C  
HETATM   29  O   UNL     1      -5.869   8.884  71.070  1.00  0.00    -0.035 OA 
HETATM   30  C   UNL     1      -8.105   7.330  72.758  1.00  0.00    -0.122 C  
HETATM   31  O   UNL     1      -6.594   7.318  69.665  1.00  0.00    -0.039 OA 
HETATM   32  C   UNL     1      -8.382   5.836  72.633  1.00  0.00    -0.116 C  
HETATM   33  C   UNL     1      -6.847   7.584  73.589  1.00  0.00    -0.084 C  
ENDBRANCH   6  27
ENDBRANCH   4   5
ENDBRANCH   3   4
ENDBRANCH   2   3
TORSDOF 8
ENDMDL
MODEL       92
REMARK 921   NORMALIZED FREE ENERGY PREDICTED BY IDOCK:   -5.76 KCAL/MOL
REMARK 922        TOTAL FREE ENERGY PREDICTED BY IDOCK:   -8.99 KCAL/MOL
REMARK 923 INTER-LIGAND FREE ENERGY PREDICTED BY IDOCK:   -8.16 KCAL/MOL
REMARK 924 INTRA-LIGAND FREE ENERGY PREDICTED BY IDOCK:   -0.83 KCAL/MOL
REMARK 927      BINDING AFFINITY PREDICTED BY RF-SCORE:    0.00 PKD
ROOT
HETATM    1  C   UNL     1      -7.668   6.058  65.955  1.00  0.00    -0.095 C  
HETATM    2  C   UNL     1      -6.986   7.170  66.727  1.00  0.00    -0.073 C  
ENDROOT
BRANCH   2   3
HETATM    3  C   UNL     1      -6.888   6.871  68.225  1.00  0.00    -0.074 C  
BRANCH   3   4
HETATM    4  C   UNL     1      -7.950   5.838  68.602  1.00  0.00    -0.101 C  
BRANCH   4   5
HETATM    5  C   UNL     1      -8.369   5.877  70.056  1.00  0.00    -0.122 C  
HETATM    6  N   UNL     1      -9.681   6.231  70.365  1.00  0.00    -0.164 N  
HETATM    7  O   UNL     1      -7.555   5.613  70.945  1.00  0.00    -0.086 OA 
BRANCH   6   8
HETATM    8  C   UNL     1     -10.701   6.520  69.314  1.00  0.00    -0.280 C  
BRANCH   8   9
HETATM    9  C   UNL     1     -10.466   7.803  68.535  1.00  0.00    -0.202 A  
HETATM   10  C   UNL     1     -10.189   8.993  69.208  1.00  0.00    -0.210 A  
HETATM   11  C   UNL     1     -10.288  10.225  68.543  1.00  0.00    -0.200 A  
HETATM   12  C   UNL     1     -10.576  10.329  67.171  1.00  0.00    -0.320 A  
HETATM   13  C   UNL     1     -10.581   7.880  67.144  1.00  0.00    -0.383 A  
HETATM   14  C   UNL     1     -10.604   9.114  66.469  1.00  0.00    -0.096 A  
BRANCH  12  15
HETATM   15  C   UNL     1     -10.841  11.665  66.537  1.00  0.00    -0.328 A  
HETATM   16  C   UNL     1     -11.542  12.624  67.327  1.00  0.00    -0.428 A  
HETATM   17  C   UNL     1     -11.982  13.853  66.833  1.00  0.00    -0.467 A  
HETATM   18  C   UNL     1     -11.695  14.204  65.527  1.00  0.00    -0.344 A  
HETATM   19  C   UNL     1     -10.969  13.321  64.733  1.00  0.00    -0.365 A  
HETATM   20  C   UNL     1     -10.537  12.052  65.202  1.00  0.00    -0.330 A  
BRANCH  20  21
HETATM   21  C   UNL     1      -9.824  11.254  64.206  1.00  0.00    -0.273 A  
HETATM   22  N   UNL     1     -10.350  10.915  63.010  1.00  0.00    -0.754 NA 
HETATM   23  N   UNL     1      -9.376  10.143  62.516  1.00  0.00    -0.298 NA 
HETATM   24  H   UNL     1     -11.245  11.176  62.596  1.00  0.00     0.000 HD 
HETATM   25  N   UNL     1      -8.293  10.002  63.292  1.00  0.00    -0.155 NA 
HETATM   26  N   UNL     1      -8.586  10.681  64.394  1.00  0.00    -0.148 NA 
ENDBRANCH  20  21
ENDBRANCH  12  15
ENDBRANCH   8   9
ENDBRANCH   6   8
BRANCH   6  27
HETATM   27  C   UNL     1     -10.183   6.098  71.783  1.00  0.00    -0.202 C  
HETATM   28  C   UNL     1     -11.710   6.006  72.093  1.00  0.00    -0.279 C  
HETATM   29  O   UNL     1     -12.142   5.328  73.024  1.00  0.00    -0.163 OA 
HETATM   30  C   UNL     1      -9.426   7.012  72.796  1.00  0.00    -0.170 C  
HETATM   31  O   UNL     1     -12.555   6.771  71.382  1.00  0.00    -0.355 OA 
HETATM   32  C   UNL     1      -9.369   8.490  72.427  1.00  0.00    -0.349 C  
HETATM   33  C   UNL     1      -9.856   6.830  74.253  1.00  0.00    -0.348 C  
ENDBRANCH   6  27
ENDBRANCH   4   5
ENDBRANCH   3   4
ENDBRANCH   2   3
TORSDOF 8
ENDMDL
MODEL       93
REMARK 921   NORMALIZED FREE ENERGY PREDICTED BY IDOCK:   -5.74 KCAL/MOL
REMARK 922        TOTAL FREE ENERGY PREDICTED BY IDOCK:   -8.95 KCAL/MOL
REMARK 923 INTER-LIGAND FREE ENERGY PREDICTED BY IDOCK:   -8.55 KCAL/MOL
REMARK 924 INTRA-LIGAND FREE ENERGY PREDICTED BY IDOCK:   -0.40 KCAL/MOL
REMARK 927      BINDING AFFINITY PREDICTED BY RF-SCORE:    0.00 PKD
ROOT
HETATM    1  C   UNL     1     -10.791   6.478  66.779  1.00  0.00    -0.345 C  
HETATM    2  C   UNL     1      -9.322   6.689  66.475  1.00  0.00    -0.191 C  
ENDROOT
BRANCH   2   3
HETATM    3  C   UNL     1      -8.417   5.729  67.251  1.00  0.00    -0.107 C  
BRANCH   3   4
HETATM    4  C   UNL     1      -7.741   6.490  68.393  1.00  0.00    -0.105 C  
BRANCH   4   5
HETATM    5  C   UNL     1      -8.526   6.498  69.686  1.00  0.00    -0.131 C  
HETATM    6  N   UNL     1      -8.736   7.715  70.334  1.00  0.00    -0.142 N  
HETATM    7  O   UNL     1      -8.955   5.442  70.161  1.00  0.00    -0.129 OA 
BRANCH   6   8
HETATM    8  C   UNL     1      -8.264   9.013  69.771  1.00  0.00    -0.122 C  
BRANCH   8   9
HETATM    9  C   UNL     1      -9.135   9.579  68.661  1.00  0.00    -0.132 A  
HETATM   10  C   UNL     1      -8.564   9.972  67.451  1.00  0.00    -0.125 A  
HETATM   11  C   UNL     1      -9.282  10.779  66.555  1.00  0.00    -0.187 A  
HETATM   12  C   UNL     1     -10.619  11.156  66.774  1.00  0.00    -0.311 A  
HETATM   13  C   UNL     1     -10.507   9.798  68.809  1.00  0.00    -0.240 A  
HETATM   14  C   UNL     1     -11.244  10.544  67.871  1.00  0.00    -0.358 A  
BRANCH  12  15
HETATM   15  C   UNL     1     -11.295  12.157  65.879  1.00  0.00    -0.407 A  
HETATM   16  C   UNL     1     -11.595  11.734  64.551  1.00  0.00    -0.299 A  
HETATM   17  C   UNL     1     -12.093  12.587  63.566  1.00  0.00    -0.653 A  
HETATM   18  C   UNL     1     -12.363  13.906  63.880  1.00  0.00    -0.323 A  
HETATM   19  C   UNL     1     -12.133  14.353  65.179  1.00  0.00    -0.395 A  
HETATM   20  C   UNL     1     -11.598  13.511  66.191  1.00  0.00    -0.371 A  
BRANCH  20  21
HETATM   21  C   UNL     1     -11.391  14.175  67.477  1.00  0.00    -0.322 A  
HETATM   22  N   UNL     1     -12.391  14.450  68.341  1.00  0.00    -0.599 NA 
HETATM   23  N   UNL     1     -11.726  15.113  69.294  1.00  0.00    -0.311 NA 
HETATM   24  H   UNL     1     -13.382  14.217  68.284  1.00  0.00     0.000 HD 
HETATM   25  N   UNL     1     -10.407  15.243  69.101  1.00  0.00    -0.237 NA 
HETATM   26  N   UNL     1     -10.188  14.677  67.920  1.00  0.00    -0.225 NA 
ENDBRANCH  20  21
ENDBRANCH  12  15
ENDBRANCH   8   9
ENDBRANCH   6   8
BRANCH   6  27
HETATM   27  C   UNL     1      -9.669   7.785  71.519  1.00  0.00    -0.162 C  
HETATM   28  C   UNL     1      -9.322   7.070  72.863  1.00  0.00    -0.140 C  
HETATM   29  O   UNL     1      -9.649   7.543  73.951  1.00  0.00    -0.279 OA 
HETATM   30  C   UNL     1     -11.173   7.623  71.134  1.00  0.00    -0.280 C  
HETATM   31  O   UNL     1      -8.740   5.860  72.814  1.00  0.00    -0.125 OA 
HETATM   32  C   UNL     1     -11.507   6.385  70.310  1.00  0.00    -0.468 C  
HETATM   33  C   UNL     1     -12.144   7.779  72.305  1.00  0.00    -0.332 C  
ENDBRANCH   6  27
ENDBRANCH   4   5
ENDBRANCH   3   4
ENDBRANCH   2   3
TORSDOF 8
ENDMDL
MODEL       94
REMARK 921   NORMALIZED FREE ENERGY PREDICTED BY IDOCK:   -5.74 KCAL/MOL
REMARK 922        TOTAL FREE ENERGY PREDICTED BY IDOCK:   -8.95 KCAL/MOL
REMARK 923 INTER-LIGAND FREE ENERGY PREDICTED BY IDOCK:   -8.75 KCAL/MOL
REMARK 924 INTRA-LIGAND FREE ENERGY PREDICTED BY IDOCK:   -0.20 KCAL/MOL
REMARK 927      BINDING AFFINITY PREDICTED BY RF-SCORE:    0.00 PKD
ROOT
HETATM    1  C   UNL     1      -9.937   4.638  69.234  1.00  0.00    -0.231 C  
HETATM    2  C   UNL     1      -9.764   5.114  70.663  1.00  0.00    -0.257 C  
ENDROOT
BRANCH   2   3
HETATM    3  C   UNL     1      -8.464   5.893  70.870  1.00  0.00    -0.127 C  
BRANCH   3   4
HETATM    4  C   UNL     1      -8.751   7.390  70.747  1.00  0.00    -0.145 C  
BRANCH   4   5
HETATM    5  C   UNL     1      -7.867   8.115  69.755  1.00  0.00    -0.105 C  
HETATM    6  N   UNL     1      -8.429   8.566  68.563  1.00  0.00    -0.130 N  
HETATM    7  O   UNL     1      -6.668   8.284  69.998  1.00  0.00    -0.041 OA 
BRANCH   6   8
HETATM    8  C   UNL     1      -9.881   8.411  68.253  1.00  0.00    -0.169 C  
BRANCH   8   9
HETATM    9  C   UNL     1     -10.785   9.435  68.920  1.00  0.00    -0.203 A  
HETATM   10  C   UNL     1     -11.349  10.468  68.171  1.00  0.00    -0.324 A  
HETATM   11  C   UNL     1     -11.910  11.585  68.809  1.00  0.00    -0.394 A  
HETATM   12  C   UNL     1     -12.018  11.688  70.208  1.00  0.00    -0.445 A  
HETATM   13  C   UNL     1     -11.041   9.444  70.294  1.00  0.00    -0.299 A  
HETATM   14  C   UNL     1     -11.672  10.532  70.924  1.00  0.00    -0.431 A  
BRANCH  12  15
HETATM   15  C   UNL     1     -12.466  12.968  70.855  1.00  0.00    -0.396 A  
HETATM   16  C   UNL     1     -13.400  12.854  71.927  1.00  0.00    -0.530 A  
HETATM   17  C   UNL     1     -14.011  13.952  72.533  1.00  0.00    -0.565 A  
HETATM   18  C   UNL     1     -13.677  15.230  72.124  1.00  0.00    -0.598 A  
HETATM   19  C   UNL     1     -12.733  15.392  71.114  1.00  0.00    -0.503 A  
HETATM   20  C   UNL     1     -12.119  14.290  70.461  1.00  0.00    -0.413 A  
BRANCH  20  21
HETATM   21  C   UNL     1     -11.185  14.665  69.400  1.00  0.00    -0.279 A  
HETATM   22  N   UNL     1      -9.879  14.321  69.403  1.00  0.00    -0.407 NA 
HETATM   23  N   UNL     1      -9.452  14.950  68.303  1.00  0.00    -0.204 NA 
HETATM   24  H   UNL     1      -9.362  13.741  70.063  1.00  0.00     0.000 HD 
HETATM   25  N   UNL     1     -10.383  15.623  67.615  1.00  0.00    -0.269 NA 
HETATM   26  N   UNL     1     -11.491  15.477  68.332  1.00  0.00    -0.353 NA 
ENDBRANCH  20  21
ENDBRANCH  12  15
ENDBRANCH   8   9
ENDBRANCH   6   8
BRANCH   6  27
HETATM   27  C   UNL     1      -7.627   9.453  67.640  1.00  0.00    -0.088 C  
HETATM   28  C   UNL     1      -7.434  10.972  67.947  1.00  0.00    -0.093 C  
HETATM   29  O   UNL     1      -6.397  11.564  67.655  1.00  0.00    -0.056 OA 
HETATM   30  C   UNL     1      -7.903   9.185  66.128  1.00  0.00    -0.103 C  
HETATM   31  O   UNL     1      -8.472  11.660  68.451  1.00  0.00    -0.151 OA 
HETATM   32  C   UNL     1      -9.369   9.233  65.712  1.00  0.00    -0.306 C  
HETATM   33  C   UNL     1      -7.038  10.009  65.173  1.00  0.00    -0.135 C  
ENDBRANCH   6  27
ENDBRANCH   4   5
ENDBRANCH   3   4
ENDBRANCH   2   3
TORSDOF 8
ENDMDL
MODEL       95
REMARK 921   NORMALIZED FREE ENERGY PREDICTED BY IDOCK:   -5.73 KCAL/MOL
REMARK 922        TOTAL FREE ENERGY PREDICTED BY IDOCK:   -8.94 KCAL/MOL
REMARK 923 INTER-LIGAND FREE ENERGY PREDICTED BY IDOCK:   -8.89 KCAL/MOL
REMARK 924 INTRA-LIGAND FREE ENERGY PREDICTED BY IDOCK:   -0.05 KCAL/MOL
REMARK 927      BINDING AFFINITY PREDICTED BY RF-SCORE:    0.00 PKD
ROOT
HETATM    1  C   UNL     1      -6.334  13.920  69.198  1.00  0.00    -0.107 C  
HETATM    2  C   UNL     1      -6.523  15.418  69.334  1.00  0.00    -0.148 C  
ENDROOT
BRANCH   2   3
HETATM    3  C   UNL     1      -7.857  15.897  68.756  1.00  0.00    -0.185 C  
BRANCH   3   4
HETATM    4  C   UNL     1      -8.818  14.711  68.662  1.00  0.00    -0.183 C  
BRANCH   4   5
HETATM    5  C   UNL     1      -9.695  14.717  67.429  1.00  0.00    -0.218 C  
HETATM    6  N   UNL     1      -9.663  13.612  66.579  1.00  0.00    -0.285 N  
HETATM    7  O   UNL     1     -10.410  15.692  67.178  1.00  0.00    -0.272 OA 
BRANCH   6   8
HETATM    8  C   UNL     1      -8.840  12.402  66.870  1.00  0.00    -0.205 C  
BRANCH   8   9
HETATM    9  C   UNL     1      -9.322  11.574  68.050  1.00  0.00    -0.175 A  
HETATM   10  C   UNL     1      -8.406  10.890  68.850  1.00  0.00    -0.139 A  
HETATM   11  C   UNL     1      -8.840   9.883  69.725  1.00  0.00    -0.229 A  
HETATM   12  C   UNL     1     -10.198   9.569  69.912  1.00  0.00    -0.261 A  
HETATM   13  C   UNL     1     -10.675  11.395  68.351  1.00  0.00    -0.237 A  
HETATM   14  C   UNL     1     -11.106  10.435  69.285  1.00  0.00    -0.303 A  
BRANCH  12  15
HETATM   15  C   UNL     1     -10.609   8.374  70.725  1.00  0.00    -0.240 A  
HETATM   16  C   UNL     1     -10.815   8.585  72.120  1.00  0.00    -0.427 A  
HETATM   17  C   UNL     1     -11.063   7.552  73.025  1.00  0.00    -0.413 A  
HETATM   18  C   UNL     1     -11.166   6.253  72.565  1.00  0.00    -0.316 A  
HETATM   19  C   UNL     1     -11.023   6.004  71.202  1.00  0.00    -0.341 A  
HETATM   20  C   UNL     1     -10.740   7.034  70.265  1.00  0.00    -0.266 A  
BRANCH  20  21
HETATM   21  C   UNL     1     -10.585   6.567  68.889  1.00  0.00    -0.241 A  
HETATM   22  N   UNL     1     -11.522   6.744  67.933  1.00  0.00    -0.579 NA 
HETATM   23  N   UNL     1     -10.964   6.090  66.909  1.00  0.00    -0.313 NA 
HETATM   24  H   UNL     1     -12.411   7.240  67.980  1.00  0.00     0.000 HD 
HETATM   25  N   UNL     1      -9.759   5.554  67.145  1.00  0.00    -0.132 NA 
HETATM   26  N   UNL     1      -9.524   5.823  68.424  1.00  0.00    -0.120 NA 
ENDBRANCH  20  21
ENDBRANCH  12  15
ENDBRANCH   8   9
ENDBRANCH   6   8
BRANCH   6  27
HETATM   27  C   UNL     1     -10.659  13.503  65.449  1.00  0.00    -0.308 C  
HETATM   28  C   UNL     1     -12.196  13.513  65.724  1.00  0.00    -0.461 C  
HETATM   29  O   UNL     1     -12.991  14.021  64.935  1.00  0.00    -0.707 OA 
HETATM   30  C   UNL     1     -10.257  12.450  64.370  1.00  0.00    -0.342 C  
HETATM   31  O   UNL     1     -12.658  12.858  66.803  1.00  0.00    -0.205 OA 
HETATM   32  C   UNL     1      -9.952  11.053  64.900  1.00  0.00    -0.343 C  
HETATM   33  C   UNL     1     -11.205  12.383  63.170  1.00  0.00    -0.191 C  
ENDBRANCH   6  27
ENDBRANCH   4   5
ENDBRANCH   3   4
ENDBRANCH   2   3
TORSDOF 8
ENDMDL
MODEL       96
REMARK 921   NORMALIZED FREE ENERGY PREDICTED BY IDOCK:   -5.72 KCAL/MOL
REMARK 922        TOTAL FREE ENERGY PREDICTED BY IDOCK:   -8.92 KCAL/MOL
REMARK 923 INTER-LIGAND FREE ENERGY PREDICTED BY IDOCK:   -8.57 KCAL/MOL
REMARK 924 INTRA-LIGAND FREE ENERGY PREDICTED BY IDOCK:   -0.35 KCAL/MOL
REMARK 927      BINDING AFFINITY PREDICTED BY RF-SCORE:    0.00 PKD
ROOT
HETATM    1  C   UNL     1     -14.380   7.496  71.643  1.00  0.00    -0.621 C  
HETATM    2  C   UNL     1     -13.460   8.695  71.746  1.00  0.00    -0.418 C  
ENDROOT
BRANCH   2   3
HETATM    3  C   UNL     1     -11.981   8.302  71.764  1.00  0.00    -0.364 C  
BRANCH   3   4
HETATM    4  C   UNL     1     -11.687   7.402  70.563  1.00  0.00    -0.220 C  
BRANCH   4   5
HETATM    5  C   UNL     1     -10.238   6.985  70.438  1.00  0.00    -0.196 C  
HETATM    6  N   UNL     1      -9.675   6.893  69.166  1.00  0.00    -0.154 N  
HETATM    7  O   UNL     1      -9.578   6.716  71.447  1.00  0.00    -0.168 OA 
BRANCH   6   8
HETATM    8  C   UNL     1     -10.431   7.245  67.929  1.00  0.00    -0.209 C  
BRANCH   8   9
HETATM    9  C   UNL     1     -10.408   8.721  67.569  1.00  0.00    -0.334 A  
HETATM   10  C   UNL     1      -9.911   9.135  66.332  1.00  0.00    -0.358 A  
HETATM   11  C   UNL     1      -9.586  10.482  66.112  1.00  0.00    -0.237 A  
HETATM   12  C   UNL     1      -9.819  11.488  67.067  1.00  0.00    -0.212 A  
HETATM   13  C   UNL     1     -10.803   9.727  68.455  1.00  0.00    -0.227 A  
HETATM   14  C   UNL     1     -10.544  11.086  68.199  1.00  0.00    -0.226 A  
BRANCH  12  15
HETATM   15  C   UNL     1      -9.301  12.884  66.860  1.00  0.00    -0.240 A  
HETATM   16  C   UNL     1      -8.045  13.199  67.456  1.00  0.00    -0.181 A  
HETATM   17  C   UNL     1      -7.501  14.483  67.469  1.00  0.00    -0.216 A  
HETATM   18  C   UNL     1      -8.171  15.514  66.838  1.00  0.00    -0.287 A  
HETATM   19  C   UNL     1      -9.379  15.244  66.198  1.00  0.00    -0.360 A  
HETATM   20  C   UNL     1      -9.968  13.951  66.197  1.00  0.00    -0.322 A  
BRANCH  20  21
HETATM   21  C   UNL     1     -11.254  13.879  65.507  1.00  0.00    -0.307 A  
HETATM   22  N   UNL     1     -12.415  14.304  66.051  1.00  0.00    -0.423 NA 
HETATM   23  N   UNL     1     -13.283  13.958  65.094  1.00  0.00    -0.690 NA 
HETATM   24  H   UNL     1     -12.583  14.763  66.946  1.00  0.00     0.000 HD 
HETATM   25  N   UNL     1     -12.754  13.386  64.005  1.00  0.00    -0.659 NA 
HETATM   26  N   UNL     1     -11.457  13.297  64.276  1.00  0.00    -0.379 NA 
ENDBRANCH  20  21
ENDBRANCH  12  15
ENDBRANCH   8   9
ENDBRANCH   6   8
BRANCH   6  27
HETATM   27  C   UNL     1      -8.190   6.664  69.015  1.00  0.00    -0.117 C  
HETATM   28  C   UNL     1      -7.178   7.850  69.104  1.00  0.00    -0.081 C  
HETATM   29  O   UNL     1      -6.055   7.708  69.585  1.00  0.00    -0.029 OA 
HETATM   30  C   UNL     1      -7.830   5.663  67.873  1.00  0.00    -0.097 C  
HETATM   31  O   UNL     1      -7.517   9.025  68.546  1.00  0.00    -0.083 OA 
HETATM   32  C   UNL     1      -8.425   5.988  66.508  1.00  0.00    -0.115 C  
HETATM   33  C   UNL     1      -6.338   5.348  67.758  1.00  0.00    -0.039 C  
ENDBRANCH   6  27
ENDBRANCH   4   5
ENDBRANCH   3   4
ENDBRANCH   2   3
TORSDOF 8
ENDMDL
MODEL       97
REMARK 921   NORMALIZED FREE ENERGY PREDICTED BY IDOCK:   -5.72 KCAL/MOL
REMARK 922        TOTAL FREE ENERGY PREDICTED BY IDOCK:   -8.92 KCAL/MOL
REMARK 923 INTER-LIGAND FREE ENERGY PREDICTED BY IDOCK:   -8.27 KCAL/MOL
REMARK 924 INTRA-LIGAND FREE ENERGY PREDICTED BY IDOCK:   -0.65 KCAL/MOL
REMARK 927      BINDING AFFINITY PREDICTED BY RF-SCORE:    0.00 PKD
ROOT
HETATM    1  C   UNL     1     -12.927  15.643  73.552  1.00  0.00    -0.679 C  
HETATM    2  C   UNL     1     -13.199  15.137  72.149  1.00  0.00    -0.470 C  
ENDROOT
BRANCH   2   3
HETATM    3  C   UNL     1     -11.931  14.653  71.443  1.00  0.00    -0.405 C  
BRANCH   3   4
HETATM    4  C   UNL     1     -12.225  14.469  69.954  1.00  0.00    -0.379 C  
BRANCH   4   5
HETATM    5  C   UNL     1     -11.564  15.493  69.057  1.00  0.00    -0.365 C  
HETATM    6  N   UNL     1     -11.337  15.165  67.721  1.00  0.00    -0.324 N  
HETATM    7  O   UNL     1     -11.221  16.589  69.510  1.00  0.00    -0.283 OA 
BRANCH   6   8
HETATM    8  C   UNL     1     -11.772  13.866  67.130  1.00  0.00    -0.388 C  
BRANCH   8   9
HETATM    9  C   UNL     1     -10.875  12.685  67.464  1.00  0.00    -0.267 A  
HETATM   10  C   UNL     1      -9.519  12.883  67.722  1.00  0.00    -0.202 A  
HETATM   11  C   UNL     1      -8.628  11.799  67.712  1.00  0.00    -0.151 A  
HETATM   12  C   UNL     1      -9.049  10.469  67.537  1.00  0.00    -0.144 A  
HETATM   13  C   UNL     1     -11.328  11.362  67.462  1.00  0.00    -0.362 A  
HETATM   14  C   UNL     1     -10.438  10.274  67.528  1.00  0.00    -0.293 A  
BRANCH  12  15
HETATM   15  C   UNL     1      -8.049   9.360  67.362  1.00  0.00    -0.110 A  
HETATM   16  C   UNL     1      -7.494   8.801  68.550  1.00  0.00    -0.089 A  
HETATM   17  C   UNL     1      -6.458   7.866  68.549  1.00  0.00    -0.053 A  
HETATM   18  C   UNL     1      -5.958   7.405  67.345  1.00  0.00    -0.042 A  
HETATM   19  C   UNL     1      -6.504   7.885  66.157  1.00  0.00    -0.046 A  
HETATM   20  C   UNL     1      -7.538   8.859  66.133  1.00  0.00    -0.091 A  
BRANCH  20  21
HETATM   21  C   UNL     1      -7.948   9.264  64.790  1.00  0.00    -0.123 A  
HETATM   22  N   UNL     1      -7.575  10.428  64.217  1.00  0.00    -0.316 NA 
HETATM   23  N   UNL     1      -8.253  10.371  63.065  1.00  0.00    -0.160 NA 
HETATM   24  H   UNL     1      -6.948  11.153  64.567  1.00  0.00     0.000 HD 
HETATM   25  N   UNL     1      -8.983   9.266  62.872  1.00  0.00    -0.181 NA 
HETATM   26  N   UNL     1      -8.824   8.566  63.989  1.00  0.00     0.174 NA 
ENDBRANCH  20  21
ENDBRANCH  12  15
ENDBRANCH   8   9
ENDBRANCH   6   8
BRANCH   6  27
HETATM   27  C   UNL     1     -10.856  16.224  66.757  1.00  0.00    -0.125 C  
HETATM   28  C   UNL     1     -10.982  16.028  65.214  1.00  0.00    -0.299 C  
HETATM   29  O   UNL     1     -11.196  16.973  64.456  1.00  0.00    -1.091 OA 
HETATM   30  C   UNL     1      -9.488  16.856  67.164  1.00  0.00    -0.241 C  
HETATM   31  O   UNL     1     -10.750  14.807  64.702  1.00  0.00    -0.379 OA 
HETATM   32  C   UNL     1      -8.359  15.863  67.416  1.00  0.00    -0.192 C  
HETATM   33  C   UNL     1      -9.022  17.992  66.252  1.00  0.00    -0.194 C  
ENDBRANCH   6  27
ENDBRANCH   4   5
ENDBRANCH   3   4
ENDBRANCH   2   3
TORSDOF 8
ENDMDL
MODEL       98
REMARK 921   NORMALIZED FREE ENERGY PREDICTED BY IDOCK:   -5.72 KCAL/MOL
REMARK 922        TOTAL FREE ENERGY PREDICTED BY IDOCK:   -8.92 KCAL/MOL
REMARK 923 INTER-LIGAND FREE ENERGY PREDICTED BY IDOCK:   -8.55 KCAL/MOL
REMARK 924 INTRA-LIGAND FREE ENERGY PREDICTED BY IDOCK:   -0.37 KCAL/MOL
REMARK 927      BINDING AFFINITY PREDICTED BY RF-SCORE:    0.00 PKD
ROOT
HETATM    1  C   UNL     1     -11.949  12.546  63.630  1.00  0.00    -0.621 C  
HETATM    2  C   UNL     1     -12.545  12.563  65.023  1.00  0.00    -0.424 C  
ENDROOT
BRANCH   2   3
HETATM    3  C   UNL     1     -12.486  13.949  65.670  1.00  0.00    -0.538 C  
BRANCH   3   4
HETATM    4  C   UNL     1     -11.966  13.812  67.102  1.00  0.00    -0.442 C  
BRANCH   4   5
HETATM    5  C   UNL     1     -11.442  15.100  67.700  1.00  0.00    -0.309 C  
HETATM    6  N   UNL     1     -10.145  15.503  67.388  1.00  0.00    -0.243 N  
HETATM    7  O   UNL     1     -12.150  15.766  68.460  1.00  0.00    -0.233 OA 
BRANCH   6   8
HETATM    8  C   UNL     1      -9.275  14.742  66.444  1.00  0.00    -0.269 C  
BRANCH   8   9
HETATM    9  C   UNL     1      -8.826  13.381  66.950  1.00  0.00    -0.185 A  
HETATM   10  C   UNL     1      -9.135  12.227  66.230  1.00  0.00    -0.125 A  
HETATM   11  C   UNL     1      -9.018  10.963  66.829  1.00  0.00    -0.158 A  
HETATM   12  C   UNL     1      -8.508  10.779  68.126  1.00  0.00    -0.125 A  
HETATM   13  C   UNL     1      -8.161  13.203  68.166  1.00  0.00    -0.155 A  
HETATM   14  C   UNL     1      -7.976  11.928  68.731  1.00  0.00    -0.040 A  
BRANCH  12  15
HETATM   15  C   UNL     1      -8.559   9.432  68.792  1.00  0.00    -0.127 A  
HETATM   16  C   UNL     1      -7.579   8.478  68.388  1.00  0.00    -0.096 A  
HETATM   17  C   UNL     1      -7.581   7.148  68.811  1.00  0.00    -0.108 A  
HETATM   18  C   UNL     1      -8.544   6.719  69.704  1.00  0.00    -0.133 A  
HETATM   19  C   UNL     1      -9.493   7.629  70.166  1.00  0.00    -0.161 A  
HETATM   20  C   UNL     1      -9.530   8.979  69.727  1.00  0.00    -0.181 A  
BRANCH  20  21
HETATM   21  C   UNL     1     -10.624   9.765  70.295  1.00  0.00    -0.292 A  
HETATM   22  N   UNL     1     -11.311   9.396  71.398  1.00  0.00    -0.355 NA 
HETATM   23  N   UNL     1     -12.228  10.367  71.460  1.00  0.00    -0.355 NA 
HETATM   24  H   UNL     1     -11.169   8.596  72.014  1.00  0.00     0.000 HD 
HETATM   25  N   UNL     1     -12.146  11.309  70.511  1.00  0.00    -0.366 NA 
HETATM   26  N   UNL     1     -11.143  10.911  69.738  1.00  0.00    -0.269 NA 
ENDBRANCH  20  21
ENDBRANCH  12  15
ENDBRANCH   8   9
ENDBRANCH   6   8
BRANCH   6  27
HETATM   27  C   UNL     1      -9.659  16.869  67.812  1.00  0.00    -0.249 C  
HETATM   28  C   UNL     1     -10.295  18.169  67.226  1.00  0.00    -0.386 C  
HETATM   29  O   UNL     1     -10.409  19.192  67.898  1.00  0.00    -0.379 OA 
HETATM   30  C   UNL     1      -8.105  16.967  67.921  1.00  0.00    -0.191 C  
HETATM   31  O   UNL     1     -10.630  18.188  65.925  1.00  0.00    -0.465 OA 
HETATM   32  C   UNL     1      -7.333  16.527  66.682  1.00  0.00    -0.268 C  
HETATM   33  C   UNL     1      -7.593  18.314  68.434  1.00  0.00    -0.302 C  
ENDBRANCH   6  27
ENDBRANCH   4   5
ENDBRANCH   3   4
ENDBRANCH   2   3
TORSDOF 8
ENDMDL
MODEL       99
REMARK 921   NORMALIZED FREE ENERGY PREDICTED BY IDOCK:   -5.72 KCAL/MOL
REMARK 922        TOTAL FREE ENERGY PREDICTED BY IDOCK:   -8.91 KCAL/MOL
REMARK 923 INTER-LIGAND FREE ENERGY PREDICTED BY IDOCK:   -9.44 KCAL/MOL
REMARK 924 INTRA-LIGAND FREE ENERGY PREDICTED BY IDOCK:    0.53 KCAL/MOL
REMARK 927      BINDING AFFINITY PREDICTED BY RF-SCORE:    0.00 PKD
ROOT
HETATM    1  C   UNL     1      -6.707  17.381  66.793  1.00  0.00    -0.248 C  
HETATM    2  C   UNL     1      -6.421  16.396  67.908  1.00  0.00    -0.150 C  
ENDROOT
BRANCH   2   3
HETATM    3  C   UNL     1      -7.681  15.677  68.395  1.00  0.00    -0.126 C  
BRANCH   3   4
HETATM    4  C   UNL     1      -7.971  14.493  67.473  1.00  0.00    -0.208 C  
BRANCH   4   5
HETATM    5  C   UNL     1      -9.226  14.644  66.641  1.00  0.00    -0.267 C  
HETATM    6  N   UNL     1      -9.649  13.566  65.865  1.00  0.00    -0.174 N  
HETATM    7  O   UNL     1      -9.849  15.710  66.642  1.00  0.00    -0.228 OA 
BRANCH   6   8
HETATM    8  C   UNL     1      -8.942  12.252  65.868  1.00  0.00     0.144 C  
BRANCH   8   9
HETATM    9  C   UNL     1      -9.340  11.318  66.999  1.00  0.00    -0.183 A  
HETATM   10  C   UNL     1     -10.251  10.286  66.770  1.00  0.00    -0.286 A  
HETATM   11  C   UNL     1     -10.867   9.630  67.847  1.00  0.00    -0.272 A  
HETATM   12  C   UNL     1     -10.546   9.903  69.189  1.00  0.00    -0.240 A  
HETATM   13  C   UNL     1      -8.888  11.477  68.312  1.00  0.00    -0.166 A  
HETATM   14  C   UNL     1      -9.456  10.763  69.383  1.00  0.00    -0.037 A  
BRANCH  12  15
HETATM   15  C   UNL     1     -11.348   9.304  70.311  1.00  0.00    -0.238 A  
HETATM   16  C   UNL     1     -11.231   7.897  70.505  1.00  0.00    -0.259 A  
HETATM   17  C   UNL     1     -12.013   7.178  71.410  1.00  0.00    -0.364 A  
HETATM   18  C   UNL     1     -12.923   7.848  72.207  1.00  0.00    -0.126 A  
HETATM   19  C   UNL     1     -13.036   9.231  72.088  1.00  0.00    -0.520 A  
HETATM   20  C   UNL     1     -12.274   9.981  71.152  1.00  0.00    -0.477 A  
BRANCH  20  21
HETATM   21  C   UNL     1     -12.565  11.413  71.152  1.00  0.00    -0.386 A  
HETATM   22  N   UNL     1     -12.012  12.285  70.282  1.00  0.00    -0.472 NA 
HETATM   23  N   UNL     1     -12.515  13.440  70.729  1.00  0.00    -0.358 NA 
HETATM   24  H   UNL     1     -11.383  12.109  69.498  1.00  0.00     0.000 HD 
HETATM   25  N   UNL     1     -13.346  13.350  71.775  1.00  0.00    -0.399 NA 
HETATM   26  N   UNL     1     -13.355  12.057  72.077  1.00  0.00    -0.454 NA 
ENDBRANCH  20  21
ENDBRANCH  12  15
ENDBRANCH   8   9
ENDBRANCH   6   8
BRANCH   6  27
HETATM   27  C   UNL     1     -10.991  13.616  65.174  1.00  0.00    -0.330 C  
HETATM   28  C   UNL     1     -12.320  13.506  65.986  1.00  0.00    -0.433 C  
HETATM   29  O   UNL     1     -13.336  14.111  65.648  1.00  0.00    -0.602 OA 
HETATM   30  C   UNL     1     -11.036  12.793  63.849  1.00  0.00    -0.477 C  
HETATM   31  O   UNL     1     -12.371  12.647  67.018  1.00  0.00    -0.399 OA 
HETATM   32  C   UNL     1     -10.591  11.340  63.966  1.00  0.00    -0.450 C  
HETATM   33  C   UNL     1     -12.358  12.900  63.086  1.00  0.00    -0.256 C  
ENDBRANCH   6  27
ENDBRANCH   4   5
ENDBRANCH   3   4
ENDBRANCH   2   3
TORSDOF 8
ENDMDL
MODEL      100
REMARK 921   NORMALIZED FREE ENERGY PREDICTED BY IDOCK:   -5.70 KCAL/MOL
REMARK 922        TOTAL FREE ENERGY PREDICTED BY IDOCK:   -8.89 KCAL/MOL
REMARK 923 INTER-LIGAND FREE ENERGY PREDICTED BY IDOCK:   -8.47 KCAL/MOL
REMARK 924 INTRA-LIGAND FREE ENERGY PREDICTED BY IDOCK:   -0.41 KCAL/MOL
REMARK 927      BINDING AFFINITY PREDICTED BY RF-SCORE:    0.00 PKD
ROOT
HETATM    1  C   UNL     1      -9.688  10.541  64.890  1.00  0.00    -0.360 C  
HETATM    2  C   UNL     1      -9.075   9.226  64.452  1.00  0.00    -0.111 C  
ENDROOT
BRANCH   2   3
HETATM    3  C   UNL     1      -8.963   8.218  65.598  1.00  0.00    -0.157 C  
BRANCH   3   4
HETATM    4  C   UNL     1      -9.330   8.909  66.911  1.00  0.00    -0.213 C  
BRANCH   4   5
HETATM    5  C   UNL     1     -10.042   8.018  67.906  1.00  0.00    -0.194 C  
HETATM    6  N   UNL     1      -9.981   8.343  69.260  1.00  0.00    -0.190 N  
HETATM    7  O   UNL     1     -10.649   7.014  67.520  1.00  0.00    -0.222 OA 
BRANCH   6   8
HETATM    8  C   UNL     1      -9.288   9.568  69.758  1.00  0.00    -0.211 C  
BRANCH   8   9
HETATM    9  C   UNL     1      -9.667  10.850  69.037  1.00  0.00    -0.181 A  
HETATM   10  C   UNL     1      -8.690  11.609  68.392  1.00  0.00    -0.158 A  
HETATM   11  C   UNL     1      -8.957  12.932  68.007  1.00  0.00    -0.196 A  
HETATM   12  C   UNL     1     -10.220  13.530  68.161  1.00  0.00    -0.249 A  
HETATM   13  C   UNL     1     -10.965  11.368  69.039  1.00  0.00    -0.288 A  
HETATM   14  C   UNL     1     -11.245  12.669  68.582  1.00  0.00    -0.323 A  
BRANCH  12  15
HETATM   15  C   UNL     1     -10.418  14.996  67.896  1.00  0.00    -0.247 A  
HETATM   16  C   UNL     1      -9.896  15.504  66.670  1.00  0.00    -0.268 A  
HETATM   17  C   UNL     1      -9.878  16.861  66.345  1.00  0.00    -0.319 A  
HETATM   18  C   UNL     1     -10.432  17.778  67.220  1.00  0.00    -0.356 A  
HETATM   19  C   UNL     1     -10.998  17.323  68.408  1.00  0.00    -0.171 A  
HETATM   20  C   UNL     1     -11.001  15.951  68.775  1.00  0.00    -0.301 A  
BRANCH  20  21
HETATM   21  C   UNL     1     -11.606  15.679  70.077  1.00  0.00    -0.350 A  
HETATM   22  N   UNL     1     -10.932  15.135  71.112  1.00  0.00    -0.552 NA 
HETATM   23  N   UNL     1     -11.911  15.015  72.016  1.00  0.00    -0.387 NA 
HETATM   24  H   UNL     1      -9.946  14.884  71.185  1.00  0.00     0.000 HD 
HETATM   25  N   UNL     1     -13.114  15.462  71.635  1.00  0.00    -0.425 NA 
HETATM   26  N   UNL     1     -12.938  15.856  70.380  1.00  0.00    -0.250 NA 
ENDBRANCH  20  21
ENDBRANCH  12  15
ENDBRANCH   8   9
ENDBRANCH   6   8
BRANCH   6  27
HETATM   27  C   UNL     1     -10.830   7.589  70.255  1.00  0.00    -0.246 C  
HETATM   28  C   UNL     1     -11.644   8.342  71.355  1.00  0.00    -0.280 C  
HETATM   29  O   UNL     1     -12.735   7.931  71.747  1.00  0.00    -0.314 OA 
HETATM   30  C   UNL     1     -10.144   6.300  70.804  1.00  0.00    -0.229 C  
HETATM   31  O   UNL     1     -11.082   9.407  71.951  1.00  0.00    -0.344 OA 
HETATM   32  C   UNL     1      -8.751   6.500  71.391  1.00  0.00    -0.130 C  
HETATM   33  C   UNL     1     -11.020   5.472  71.746  1.00  0.00    -0.249 C  
ENDBRANCH   6  27
ENDBRANCH   4   5
ENDBRANCH   3   4
ENDBRANCH   2   3
TORSDOF 8
ENDMDL
MODEL      101
REMARK 921   NORMALIZED FREE ENERGY PREDICTED BY IDOCK:   -5.70 KCAL/MOL
REMARK 922        TOTAL FREE ENERGY PREDICTED BY IDOCK:   -8.89 KCAL/MOL
REMARK 923 INTER-LIGAND FREE ENERGY PREDICTED BY IDOCK:   -8.39 KCAL/MOL
REMARK 924 INTRA-LIGAND FREE ENERGY PREDICTED BY IDOCK:   -0.50 KCAL/MOL
REMARK 927      BINDING AFFINITY PREDICTED BY RF-SCORE:    0.00 PKD
ROOT
HETATM    1  C   UNL     1     -10.162   6.153  71.235  1.00  0.00    -0.252 C  
HETATM    2  C   UNL     1     -10.915   5.790  69.972  1.00  0.00    -0.382 C  
ENDROOT
BRANCH   2   3
HETATM    3  C   UNL     1     -10.018   5.788  68.732  1.00  0.00    -0.207 C  
BRANCH   3   4
HETATM    4  C   UNL     1      -9.307   7.137  68.625  1.00  0.00    -0.134 C  
BRANCH   4   5
HETATM    5  C   UNL     1      -9.046   7.593  67.206  1.00  0.00    -0.127 C  
HETATM    6  N   UNL     1      -8.607   8.899  66.992  1.00  0.00    -0.115 N  
HETATM    7  O   UNL     1      -9.235   6.823  66.260  1.00  0.00    -0.163 OA 
BRANCH   6   8
HETATM    8  C   UNL     1      -8.331   9.844  68.114  1.00  0.00    -0.110 C  
BRANCH   8   9
HETATM    9  C   UNL     1      -9.510  10.717  68.512  1.00  0.00    -0.181 A  
HETATM   10  C   UNL     1      -9.465  12.096  68.303  1.00  0.00    -0.204 A  
HETATM   11  C   UNL     1     -10.383  12.942  68.945  1.00  0.00    -0.059 A  
HETATM   12  C   UNL     1     -11.434  12.459  69.745  1.00  0.00    -0.220 A  
HETATM   13  C   UNL     1     -10.644  10.216  69.158  1.00  0.00    -0.247 A  
HETATM   14  C   UNL     1     -11.604  11.066  69.736  1.00  0.00    -0.401 A  
BRANCH  12  15
HETATM   15  C   UNL     1     -12.287  13.399  70.549  1.00  0.00    -0.401 A  
HETATM   16  C   UNL     1     -13.155  12.813  71.516  1.00  0.00    -0.380 A  
HETATM   17  C   UNL     1     -14.102  13.538  72.239  1.00  0.00    -0.564 A  
HETATM   18  C   UNL     1     -14.193  14.906  72.062  1.00  0.00    -0.638 A  
HETATM   19  C   UNL     1     -13.332  15.531  71.163  1.00  0.00    -0.553 A  
HETATM   20  C   UNL     1     -12.380  14.810  70.394  1.00  0.00    -0.402 A  
BRANCH  20  21
HETATM   21  C   UNL     1     -11.597  15.639  69.479  1.00  0.00    -0.357 A  
HETATM   22  N   UNL     1     -10.531  16.372  69.865  1.00  0.00    -0.249 NA 
HETATM   23  N   UNL     1     -10.224  16.993  68.721  1.00  0.00    -0.298 NA 
HETATM   24  H   UNL     1     -10.083  16.434  70.779  1.00  0.00     0.000 HD 
HETATM   25  N   UNL     1     -10.989  16.685  67.666  1.00  0.00    -0.253 NA 
HETATM   26  N   UNL     1     -11.896  15.845  68.150  1.00  0.00    -0.131 NA 
ENDBRANCH  20  21
ENDBRANCH  12  15
ENDBRANCH   8   9
ENDBRANCH   6   8
BRANCH   6  27
HETATM   27  C   UNL     1      -8.158   9.326  65.615  1.00  0.00    -0.112 C  
HETATM   28  C   UNL     1      -6.959  10.309  65.426  1.00  0.00    -0.139 C  
HETATM   29  O   UNL     1      -6.195  10.221  64.466  1.00  0.00    -0.130 OA 
HETATM   30  C   UNL     1      -9.341   9.643  64.649  1.00  0.00    -0.271 C  
HETATM   31  O   UNL     1      -6.829  11.334  66.286  1.00  0.00    -0.099 OA 
HETATM   32  C   UNL     1     -10.363  10.646  65.172  1.00  0.00    -0.331 C  
HETATM   33  C   UNL     1      -8.914   9.993  63.222  1.00  0.00    -0.275 C  
ENDBRANCH   6  27
ENDBRANCH   4   5
ENDBRANCH   3   4
ENDBRANCH   2   3
TORSDOF 8
ENDMDL
MODEL      102
REMARK 921   NORMALIZED FREE ENERGY PREDICTED BY IDOCK:   -5.68 KCAL/MOL
REMARK 922        TOTAL FREE ENERGY PREDICTED BY IDOCK:   -8.86 KCAL/MOL
REMARK 923 INTER-LIGAND FREE ENERGY PREDICTED BY IDOCK:   -8.72 KCAL/MOL
REMARK 924 INTRA-LIGAND FREE ENERGY PREDICTED BY IDOCK:   -0.14 KCAL/MOL
REMARK 927      BINDING AFFINITY PREDICTED BY RF-SCORE:    0.00 PKD
ROOT
HETATM    1  C   UNL     1     -10.747   5.934  68.893  1.00  0.00    -0.370 C  
HETATM    2  C   UNL     1     -10.924   6.372  67.453  1.00  0.00    -0.463 C  
ENDROOT
BRANCH   2   3
HETATM    3  C   UNL     1     -10.181   7.672  67.138  1.00  0.00    -0.360 C  
BRANCH   3   4
HETATM    4  C   UNL     1     -11.015   8.857  67.625  1.00  0.00     0.042 C  
BRANCH   4   5
HETATM    5  C   UNL     1     -10.470  10.210  67.220  1.00  0.00    -0.256 C  
HETATM    6  N   UNL     1     -10.952  11.347  67.866  1.00  0.00    -0.222 N  
HETATM    7  O   UNL     1      -9.627  10.298  66.322  1.00  0.00    -0.172 OA 
BRANCH   6   8
HETATM    8  C   UNL     1     -11.943  11.274  68.980  1.00  0.00    -0.325 C  
BRANCH   8   9
HETATM    9  C   UNL     1     -11.566  10.326  70.106  1.00  0.00    -0.376 A  
HETATM   10  C   UNL     1     -10.236   9.943  70.286  1.00  0.00    -0.322 A  
HETATM   11  C   UNL     1      -9.918   8.841  71.095  1.00  0.00    -0.317 A  
HETATM   12  C   UNL     1     -10.884   8.129  71.828  1.00  0.00    -0.317 A  
HETATM   13  C   UNL     1     -12.508   9.743  70.957  1.00  0.00    -0.414 A  
HETATM   14  C   UNL     1     -12.172   8.687  71.824  1.00  0.00    -0.403 A  
BRANCH  12  15
HETATM   15  C   UNL     1     -10.528   6.857  72.543  1.00  0.00    -0.241 A  
HETATM   16  C   UNL     1     -11.513   5.826  72.551  1.00  0.00    -0.349 A  
HETATM   17  C   UNL     1     -11.385   4.646  73.285  1.00  0.00    -0.393 A  
HETATM   18  C   UNL     1     -10.233   4.419  74.014  1.00  0.00    -0.247 A  
HETATM   19  C   UNL     1      -9.221   5.376  73.997  1.00  0.00    -0.121 A  
HETATM   20  C   UNL     1      -9.340   6.598  73.282  1.00  0.00    -0.150 A  
BRANCH  20  21
HETATM   21  C   UNL     1      -8.189   7.488  73.420  1.00  0.00    -0.129 A  
HETATM   22  N   UNL     1      -7.032   7.318  72.745  1.00  0.00    -0.067 NA 
HETATM   23  N   UNL     1      -6.292   8.306  73.262  1.00  0.00    -0.097 NA 
HETATM   24  H   UNL     1      -6.789   6.626  72.037  1.00  0.00     0.000 HD 
HETATM   25  N   UNL     1      -6.902   9.078  74.170  1.00  0.00    -0.369 NA 
HETATM   26  N   UNL     1      -8.108   8.539  74.305  1.00  0.00    -0.350 NA 
ENDBRANCH  20  21
ENDBRANCH  12  15
ENDBRANCH   8   9
ENDBRANCH   6   8
BRANCH   6  27
HETATM   27  C   UNL     1     -10.299  12.686  67.622  1.00  0.00    -0.220 C  
HETATM   28  C   UNL     1     -10.168  13.741  68.766  1.00  0.00    -0.163 C  
HETATM   29  O   UNL     1      -9.201  14.498  68.841  1.00  0.00    -0.186 OA 
HETATM   30  C   UNL     1     -10.706  13.335  66.262  1.00  0.00    -0.293 C  
HETATM   31  O   UNL     1     -11.191  13.883  69.626  1.00  0.00    -0.226 OA 
HETATM   32  C   UNL     1     -12.206  13.462  66.022  1.00  0.00    -0.491 C  
HETATM   33  C   UNL     1      -9.989  14.650  65.952  1.00  0.00    -0.352 C  
ENDBRANCH   6  27
ENDBRANCH   4   5
ENDBRANCH   3   4
ENDBRANCH   2   3
TORSDOF 8
ENDMDL
MODEL      103
REMARK 921   NORMALIZED FREE ENERGY PREDICTED BY IDOCK:   -5.68 KCAL/MOL
REMARK 922        TOTAL FREE ENERGY PREDICTED BY IDOCK:   -8.86 KCAL/MOL
REMARK 923 INTER-LIGAND FREE ENERGY PREDICTED BY IDOCK:   -9.15 KCAL/MOL
REMARK 924 INTRA-LIGAND FREE ENERGY PREDICTED BY IDOCK:    0.29 KCAL/MOL
REMARK 927      BINDING AFFINITY PREDICTED BY RF-SCORE:    0.00 PKD
ROOT
HETATM    1  C   UNL     1     -12.501  15.388  72.096  1.00  0.00    -0.452 C  
HETATM    2  C   UNL     1     -12.700  14.117  71.296  1.00  0.00    -0.434 C  
ENDROOT
BRANCH   2   3
HETATM    3  C   UNL     1     -11.988  14.159  69.941  1.00  0.00    -0.398 C  
BRANCH   3   4
HETATM    4  C   UNL     1     -11.234  12.845  69.730  1.00  0.00    -0.001 C  
BRANCH   4   5
HETATM    5  C   UNL     1     -11.251  12.340  68.303  1.00  0.00    -0.267 C  
HETATM    6  N   UNL     1     -10.100  12.482  67.530  1.00  0.00    -0.205 N  
HETATM    7  O   UNL     1     -12.272  11.828  67.836  1.00  0.00    -0.538 OA 
BRANCH   6   8
HETATM    8  C   UNL     1      -8.837  13.062  68.073  1.00  0.00    -0.191 C  
BRANCH   8   9
HETATM    9  C   UNL     1      -8.308  14.263  67.308  1.00  0.00    -0.222 A  
HETATM   10  C   UNL     1      -6.992  14.688  67.489  1.00  0.00    -0.193 A  
HETATM   11  C   UNL     1      -6.588  15.959  67.051  1.00  0.00    -0.028 A  
HETATM   12  C   UNL     1      -7.438  16.825  66.340  1.00  0.00    -0.302 A  
HETATM   13  C   UNL     1      -9.106  15.035  66.458  1.00  0.00    -0.319 A  
HETATM   14  C   UNL     1      -8.672  16.276  65.957  1.00  0.00    -0.285 A  
BRANCH  12  15
HETATM   15  C   UNL     1      -7.025  18.238  66.040  1.00  0.00    -0.315 A  
HETATM   16  C   UNL     1      -5.805  18.413  65.323  1.00  0.00    -0.248 A  
HETATM   17  C   UNL     1      -5.221  19.659  65.091  1.00  0.00    -0.185 A  
HETATM   18  C   UNL     1      -5.862  20.803  65.528  1.00  0.00    -0.265 A  
HETATM   19  C   UNL     1      -7.082  20.685  66.189  1.00  0.00    -0.172 A  
HETATM   20  C   UNL     1      -7.681  19.427  66.464  1.00  0.00    -0.290 A  
BRANCH  20  21
HETATM   21  C   UNL     1      -8.940  19.510  67.202  1.00  0.00    -0.303 A  
HETATM   22  N   UNL     1      -9.013  19.500  68.551  1.00  0.00    -0.356 NA 
HETATM   23  N   UNL     1     -10.339  19.512  68.730  1.00  0.00    -0.322 NA 
HETATM   24  H   UNL     1      -8.264  19.487  69.242  1.00  0.00     0.000 HD 
HETATM   25  N   UNL     1     -11.079  19.556  67.615  1.00  0.00    -0.229 NA 
HETATM   26  N   UNL     1     -10.191  19.518  66.629  1.00  0.00    -0.409 NA 
ENDBRANCH  20  21
ENDBRANCH  12  15
ENDBRANCH   8   9
ENDBRANCH   6   8
BRANCH   6  27
HETATM   27  C   UNL     1     -10.019  11.824  66.173  1.00  0.00    -0.226 C  
HETATM   28  C   UNL     1     -11.020  12.196  65.035  1.00  0.00    -0.309 C  
HETATM   29  O   UNL     1     -10.682  12.203  63.852  1.00  0.00    -0.331 OA 
HETATM   30  C   UNL     1      -9.748  10.288  66.245  1.00  0.00    -0.263 C  
HETATM   31  O   UNL     1     -12.306  12.415  65.359  1.00  0.00    -0.596 OA 
HETATM   32  C   UNL     1     -10.708   9.496  67.126  1.00  0.00    -0.252 C  
HETATM   33  C   UNL     1      -9.574   9.614  64.883  1.00  0.00    -0.244 C  
ENDBRANCH   6  27
ENDBRANCH   4   5
ENDBRANCH   3   4
ENDBRANCH   2   3
TORSDOF 8
ENDMDL
MODEL      104
REMARK 921   NORMALIZED FREE ENERGY PREDICTED BY IDOCK:   -5.67 KCAL/MOL
REMARK 922        TOTAL FREE ENERGY PREDICTED BY IDOCK:   -8.85 KCAL/MOL
REMARK 923 INTER-LIGAND FREE ENERGY PREDICTED BY IDOCK:   -8.78 KCAL/MOL
REMARK 924 INTRA-LIGAND FREE ENERGY PREDICTED BY IDOCK:   -0.08 KCAL/MOL
REMARK 927      BINDING AFFINITY PREDICTED BY RF-SCORE:    0.00 PKD
ROOT
HETATM    1  C   UNL     1     -12.472  11.459  71.258  1.00  0.00    -0.423 C  
HETATM    2  C   UNL     1     -13.318  10.204  71.182  1.00  0.00    -0.372 C  
ENDROOT
BRANCH   2   3
HETATM    3  C   UNL     1     -12.742   9.055  72.013  1.00  0.00    -0.467 C  
BRANCH   3   4
HETATM    4  C   UNL     1     -11.215   9.140  71.996  1.00  0.00    -0.310 C  
BRANCH   4   5
HETATM    5  C   UNL     1     -10.527   7.873  71.535  1.00  0.00    -0.210 C  
HETATM    6  N   UNL     1      -9.405   7.982  70.714  1.00  0.00    -0.156 N  
HETATM    7  O   UNL     1     -10.965   6.769  71.871  1.00  0.00    -0.229 OA 
BRANCH   6   8
HETATM    8  C   UNL     1      -8.827   9.299  70.319  1.00  0.00    -0.224 C  
BRANCH   8   9
HETATM    9  C   UNL     1      -9.341   9.849  68.999  1.00  0.00    -0.175 A  
HETATM   10  C   UNL     1      -8.634  10.849  68.332  1.00  0.00    -0.146 A  
HETATM   11  C   UNL     1      -9.242  11.583  67.302  1.00  0.00    -0.168 A  
HETATM   12  C   UNL     1     -10.537  11.303  66.829  1.00  0.00    -0.305 A  
HETATM   13  C   UNL     1     -10.552   9.448  68.429  1.00  0.00    -0.247 A  
HETATM   14  C   UNL     1     -11.126  10.139  67.346  1.00  0.00    -0.219 A  
BRANCH  12  15
HETATM   15  C   UNL     1     -11.215  12.217  65.848  1.00  0.00    -0.381 A  
HETATM   16  C   UNL     1     -11.397  11.719  64.524  1.00  0.00    -0.349 A  
HETATM   17  C   UNL     1     -11.882  12.494  63.471  1.00  0.00    -0.616 A  
HETATM   18  C   UNL     1     -12.257  13.804  63.705  1.00  0.00    -0.364 A  
HETATM   19  C   UNL     1     -12.144  14.320  64.994  1.00  0.00    -0.428 A  
HETATM   20  C   UNL     1     -11.625  13.560  66.076  1.00  0.00    -0.363 A  
BRANCH  20  21
HETATM   21  C   UNL     1     -11.549  14.290  67.340  1.00  0.00    -0.369 A  
HETATM   22  N   UNL     1     -12.399  14.087  68.369  1.00  0.00    -0.504 NA 
HETATM   23  N   UNL     1     -11.981  15.022  69.229  1.00  0.00    -0.305 NA 
HETATM   24  H   UNL     1     -13.153  13.407  68.464  1.00  0.00     0.000 HD 
HETATM   25  N   UNL     1     -10.937  15.759  68.828  1.00  0.00    -0.272 NA 
HETATM   26  N   UNL     1     -10.676  15.322  67.603  1.00  0.00    -0.275 NA 
ENDBRANCH  20  21
ENDBRANCH  12  15
ENDBRANCH   8   9
ENDBRANCH   6   8
BRANCH   6  27
HETATM   27  C   UNL     1      -8.587   6.754  70.393  1.00  0.00    -0.146 C  
HETATM   28  C   UNL     1      -9.180   5.589  69.539  1.00  0.00    -0.121 C  
HETATM   29  O   UNL     1      -8.482   4.931  68.769  1.00  0.00    -0.086 OA 
HETATM   30  C   UNL     1      -7.748   6.234  71.602  1.00  0.00    -0.100 C  
HETATM   31  O   UNL     1     -10.464   5.242  69.733  1.00  0.00    -0.291 OA 
HETATM   32  C   UNL     1      -8.535   5.985  72.884  1.00  0.00    -0.117 C  
HETATM   33  C   UNL     1      -6.843   5.045  71.277  1.00  0.00    -0.040 C  
ENDBRANCH   6  27
ENDBRANCH   4   5
ENDBRANCH   3   4
ENDBRANCH   2   3
TORSDOF 8
ENDMDL
MODEL      105
REMARK 921   NORMALIZED FREE ENERGY PREDICTED BY IDOCK:   -5.67 KCAL/MOL
REMARK 922        TOTAL FREE ENERGY PREDICTED BY IDOCK:   -8.84 KCAL/MOL
REMARK 923 INTER-LIGAND FREE ENERGY PREDICTED BY IDOCK:   -8.63 KCAL/MOL
REMARK 924 INTRA-LIGAND FREE ENERGY PREDICTED BY IDOCK:   -0.21 KCAL/MOL
REMARK 927      BINDING AFFINITY PREDICTED BY RF-SCORE:    0.00 PKD
ROOT
HETATM    1  C   UNL     1      -9.004  10.570  64.462  1.00  0.00    -0.231 C  
HETATM    2  C   UNL     1     -10.510  10.728  64.412  1.00  0.00    -0.344 C  
ENDROOT
BRANCH   2   3
HETATM    3  C   UNL     1     -10.945  11.974  63.636  1.00  0.00    -0.517 C  
BRANCH   3   4
HETATM    4  C   UNL     1     -11.740  12.891  64.565  1.00  0.00    -0.416 C  
BRANCH   4   5
HETATM    5  C   UNL     1     -10.927  14.009  65.182  1.00  0.00    -0.353 C  
HETATM    6  N   UNL     1     -11.223  14.413  66.482  1.00  0.00    -0.332 N  
HETATM    7  O   UNL     1     -10.032  14.559  64.533  1.00  0.00    -0.116 OA 
BRANCH   6   8
HETATM    8  C   UNL     1     -12.273  13.748  67.308  1.00  0.00    -0.278 C  
BRANCH   8   9
HETATM    9  C   UNL     1     -11.764  12.632  68.204  1.00  0.00    -0.396 A  
HETATM   10  C   UNL     1     -11.107  11.531  67.653  1.00  0.00    -0.324 A  
HETATM   11  C   UNL     1     -10.920  10.363  68.407  1.00  0.00    -0.312 A  
HETATM   12  C   UNL     1     -11.293  10.262  69.760  1.00  0.00    -0.334 A  
HETATM   13  C   UNL     1     -11.979  12.607  69.585  1.00  0.00    -0.352 A  
HETATM   14  C   UNL     1     -11.721  11.458  70.356  1.00  0.00    -0.362 A  
BRANCH  12  15
HETATM   15  C   UNL     1     -11.234   8.945  70.480  1.00  0.00    -0.287 A  
HETATM   16  C   UNL     1     -12.476   8.386  70.902  1.00  0.00     0.006 A  
HETATM   17  C   UNL     1     -12.575   7.244  71.698  1.00  0.00    -0.403 A  
HETATM   18  C   UNL     1     -11.426   6.574  72.073  1.00  0.00    -0.342 A  
HETATM   19  C   UNL     1     -10.191   7.054  71.643  1.00  0.00    -0.208 A  
HETATM   20  C   UNL     1     -10.063   8.231  70.858  1.00  0.00    -0.224 A  
BRANCH  20  21
HETATM   21  C   UNL     1      -8.683   8.594  70.542  1.00  0.00    -0.162 A  
HETATM   22  N   UNL     1      -8.043   8.187  69.425  1.00  0.00    -0.115 NA 
HETATM   23  N   UNL     1      -6.823   8.695  69.634  1.00  0.00    -0.046 NA 
HETATM   24  H   UNL     1      -8.394   7.641  68.638  1.00  0.00     0.000 HD 
HETATM   25  N   UNL     1      -6.669   9.397  70.763  1.00  0.00    -0.096 NA 
HETATM   26  N   UNL     1      -7.846   9.307  71.371  1.00  0.00    -0.328 NA 
ENDBRANCH  20  21
ENDBRANCH  12  15
ENDBRANCH   8   9
ENDBRANCH   6   8
BRANCH   6  27
HETATM   27  C   UNL     1     -10.316  15.390  67.192  1.00  0.00    -0.271 C  
HETATM   28  C   UNL     1      -8.961  14.925  67.815  1.00  0.00    -0.177 C  
HETATM   29  O   UNL     1      -7.974  15.658  67.837  1.00  0.00    -0.135 OA 
HETATM   30  C   UNL     1     -11.081  16.388  68.116  1.00  0.00    -0.320 C  
HETATM   31  O   UNL     1      -8.915  13.731  68.429  1.00  0.00    -0.184 OA 
HETATM   32  C   UNL     1     -12.018  15.749  69.135  1.00  0.00    -0.312 C  
HETATM   33  C   UNL     1     -10.192  17.443  68.778  1.00  0.00    -0.361 C  
ENDBRANCH   6  27
ENDBRANCH   4   5
ENDBRANCH   3   4
ENDBRANCH   2   3
TORSDOF 8
ENDMDL
MODEL      106
REMARK 921   NORMALIZED FREE ENERGY PREDICTED BY IDOCK:   -5.66 KCAL/MOL
REMARK 922        TOTAL FREE ENERGY PREDICTED BY IDOCK:   -8.83 KCAL/MOL
REMARK 923 INTER-LIGAND FREE ENERGY PREDICTED BY IDOCK:   -7.68 KCAL/MOL
REMARK 924 INTRA-LIGAND FREE ENERGY PREDICTED BY IDOCK:   -1.15 KCAL/MOL
REMARK 927      BINDING AFFINITY PREDICTED BY RF-SCORE:    0.00 PKD
ROOT
HETATM    1  C   UNL     1     -13.876   8.692  71.793  1.00  0.00    -0.472 C  
HETATM    2  C   UNL     1     -12.411   8.990  72.038  1.00  0.00    -0.455 C  
ENDROOT
BRANCH   2   3
HETATM    3  C   UNL     1     -11.554   8.797  70.785  1.00  0.00    -0.288 C  
BRANCH   3   4
HETATM    4  C   UNL     1     -10.858  10.116  70.445  1.00  0.00    -0.365 C  
BRANCH   4   5
HETATM    5  C   UNL     1     -11.432  10.830  69.241  1.00  0.00    -0.298 C  
HETATM    6  N   UNL     1     -10.596  11.092  68.157  1.00  0.00    -0.183 N  
HETATM    7  O   UNL     1     -12.615  11.185  69.232  1.00  0.00    -0.336 OA 
BRANCH   6   8
HETATM    8  C   UNL     1      -9.172  10.645  68.117  1.00  0.00    -0.148 C  
BRANCH   8   9
HETATM    9  C   UNL     1      -8.981   9.139  68.061  1.00  0.00    -0.129 A  
HETATM   10  C   UNL     1      -9.936   8.331  67.444  1.00  0.00    -0.271 A  
HETATM   11  C   UNL     1      -9.942   6.945  67.660  1.00  0.00    -0.180 A  
HETATM   12  C   UNL     1      -8.956   6.288  68.418  1.00  0.00    -0.116 A  
HETATM   13  C   UNL     1      -7.905   8.486  68.669  1.00  0.00    -0.108 A  
HETATM   14  C   UNL     1      -7.875   7.087  68.818  1.00  0.00    -0.118 A  
BRANCH  12  15
HETATM   15  C   UNL     1      -9.093   4.833  68.767  1.00  0.00    -0.151 A  
HETATM   16  C   UNL     1      -8.921   3.898  67.705  1.00  0.00    -0.156 A  
HETATM   17  C   UNL     1      -9.152   2.528  67.840  1.00  0.00    -0.230 A  
HETATM   18  C   UNL     1      -9.522   2.019  69.071  1.00  0.00    -0.160 A  
HETATM   19  C   UNL     1      -9.654   2.888  70.151  1.00  0.00    -0.138 A  
HETATM   20  C   UNL     1      -9.454   4.289  70.031  1.00  0.00    -0.254 A  
BRANCH  20  21
HETATM   21  C   UNL     1      -9.679   5.035  71.267  1.00  0.00    -0.173 A  
HETATM   22  N   UNL     1     -10.902   5.230  71.807  1.00  0.00    -0.176 NA 
HETATM   23  N   UNL     1     -10.596   6.013  72.847  1.00  0.00    -0.222 NA 
HETATM   24  H   UNL     1     -11.809   4.876  71.505  1.00  0.00     0.000 HD 
HETATM   25  N   UNL     1      -9.295   6.291  73.006  1.00  0.00    -0.139 NA 
HETATM   26  N   UNL     1      -8.703   5.699  71.976  1.00  0.00    -0.134 NA 
ENDBRANCH  20  21
ENDBRANCH  12  15
ENDBRANCH   8   9
ENDBRANCH   6   8
BRANCH   6  27
HETATM   27  C   UNL     1     -11.177  11.630  66.871  1.00  0.00    -0.313 C  
HETATM   28  C   UNL     1     -10.457  11.403  65.503  1.00  0.00    -0.268 C  
HETATM   29  O   UNL     1     -11.088  11.249  64.458  1.00  0.00    -0.283 OA 
HETATM   30  C   UNL     1     -11.748  13.076  67.006  1.00  0.00    -0.441 C  
HETATM   31  O   UNL     1      -9.116  11.480  65.465  1.00  0.00    -0.187 OA 
HETATM   32  C   UNL     1     -10.787  14.107  67.587  1.00  0.00    -0.266 C  
HETATM   33  C   UNL     1     -12.421  13.609  65.740  1.00  0.00    -0.524 C  
ENDBRANCH   6  27
ENDBRANCH   4   5
ENDBRANCH   3   4
ENDBRANCH   2   3
TORSDOF 8
ENDMDL
MODEL      107
REMARK 921   NORMALIZED FREE ENERGY PREDICTED BY IDOCK:   -5.64 KCAL/MOL
REMARK 922        TOTAL FREE ENERGY PREDICTED BY IDOCK:   -8.81 KCAL/MOL
REMARK 923 INTER-LIGAND FREE ENERGY PREDICTED BY IDOCK:   -8.92 KCAL/MOL
REMARK 924 INTRA-LIGAND FREE ENERGY PREDICTED BY IDOCK:    0.11 KCAL/MOL
REMARK 927      BINDING AFFINITY PREDICTED BY RF-SCORE:    0.00 PKD
ROOT
HETATM    1  C   UNL     1      -7.698  15.363  69.992  1.00  0.00     0.200 C  
HETATM    2  C   UNL     1      -6.564  14.885  69.109  1.00  0.00    -0.117 C  
ENDROOT
BRANCH   2   3
HETATM    3  C   UNL     1      -6.972  13.716  68.208  1.00  0.00    -0.109 C  
BRANCH   3   4
HETATM    4  C   UNL     1      -8.497  13.593  68.206  1.00  0.00    -0.170 C  
BRANCH   4   5
HETATM    5  C   UNL     1      -9.081  13.122  66.892  1.00  0.00    -0.229 C  
HETATM    6  N   UNL     1     -10.241  13.733  66.418  1.00  0.00    -0.285 N  
HETATM    7  O   UNL     1      -8.545  12.204  66.265  1.00  0.00    -0.071 OA 
BRANCH   6   8
HETATM    8  C   UNL     1     -10.895  14.870  67.130  1.00  0.00    -0.311 C  
BRANCH   8   9
HETATM    9  C   UNL     1     -10.052  16.131  67.222  1.00  0.00    -0.265 A  
HETATM   10  C   UNL     1      -8.911  16.273  66.432  1.00  0.00    -0.346 A  
HETATM   11  C   UNL     1      -7.960  17.262  66.727  1.00  0.00    -0.276 A  
HETATM   12  C   UNL     1      -8.136  18.205  67.755  1.00  0.00    -0.240 A  
HETATM   13  C   UNL     1     -10.321  17.162  68.127  1.00  0.00    -0.350 A  
HETATM   14  C   UNL     1      -9.398  18.196  68.369  1.00  0.00    -0.319 A  
BRANCH  12  15
HETATM   15  C   UNL     1      -7.023  19.134  68.149  1.00  0.00    -0.280 A  
HETATM   16  C   UNL     1      -6.777  19.288  69.546  1.00  0.00    -0.302 A  
HETATM   17  C   UNL     1      -5.875  20.214  70.070  1.00  0.00    -0.371 A  
HETATM   18  C   UNL     1      -5.133  21.004  69.212  1.00  0.00    -0.359 A  
HETATM   19  C   UNL     1      -5.303  20.854  67.838  1.00  0.00    -0.308 A  
HETATM   20  C   UNL     1      -6.236  19.940  67.280  1.00  0.00    -0.204 A  
BRANCH  20  21
HETATM   21  C   UNL     1      -6.296  19.959  65.820  1.00  0.00    -0.214 A  
HETATM   22  N   UNL     1      -7.131  20.755  65.119  1.00  0.00    -0.527 NA 
HETATM   23  N   UNL     1      -6.873  20.355  63.870  1.00  0.00     0.001 NA 
HETATM   24  H   UNL     1      -7.781  21.467  65.452  1.00  0.00     0.000 HD 
HETATM   25  N   UNL     1      -5.936  19.405  63.743  1.00  0.00    -0.418 NA 
HETATM   26  N   UNL     1      -5.587  19.119  64.991  1.00  0.00    -0.192 NA 
ENDBRANCH  20  21
ENDBRANCH  12  15
ENDBRANCH   8   9
ENDBRANCH   6   8
BRANCH   6  27
HETATM   27  C   UNL     1     -10.743  13.421  65.028  1.00  0.00    -0.343 C  
HETATM   28  C   UNL     1     -12.115  13.969  64.524  1.00  0.00    -0.459 C  
HETATM   29  O   UNL     1     -12.294  14.281  63.347  1.00  0.00    -0.678 OA 
HETATM   30  C   UNL     1     -10.505  11.939  64.602  1.00  0.00    -0.340 C  
HETATM   31  O   UNL     1     -13.147  14.002  65.384  1.00  0.00    -0.763 OA 
HETATM   32  C   UNL     1     -11.035  10.887  65.570  1.00  0.00    -0.024 C  
HETATM   33  C   UNL     1     -10.924  11.620  63.166  1.00  0.00    -0.247 C  
ENDBRANCH   6  27
ENDBRANCH   4   5
ENDBRANCH   3   4
ENDBRANCH   2   3
TORSDOF 8
ENDMDL
MODEL      108
REMARK 921   NORMALIZED FREE ENERGY PREDICTED BY IDOCK:   -5.63 KCAL/MOL
REMARK 922        TOTAL FREE ENERGY PREDICTED BY IDOCK:   -8.79 KCAL/MOL
REMARK 923 INTER-LIGAND FREE ENERGY PREDICTED BY IDOCK:   -8.11 KCAL/MOL
REMARK 924 INTRA-LIGAND FREE ENERGY PREDICTED BY IDOCK:   -0.68 KCAL/MOL
REMARK 927      BINDING AFFINITY PREDICTED BY RF-SCORE:    0.00 PKD
ROOT
HETATM    1  C   UNL     1     -10.326   5.027  65.667  1.00  0.00    -0.086 C  
HETATM    2  C   UNL     1      -9.590   3.965  66.458  1.00  0.00    -0.211 C  
ENDROOT
BRANCH   2   3
HETATM    3  C   UNL     1      -9.881   4.041  67.959  1.00  0.00    -0.068 C  
BRANCH   3   4
HETATM    4  C   UNL     1     -10.019   5.508  68.369  1.00  0.00    -0.210 C  
BRANCH   4   5
HETATM    5  C   UNL     1      -9.390   5.842  69.705  1.00  0.00    -0.140 C  
HETATM    6  N   UNL     1      -9.978   6.831  70.492  1.00  0.00    -0.183 N  
HETATM    7  O   UNL     1      -8.367   5.258  70.075  1.00  0.00    -0.095 OA 
BRANCH   6   8
HETATM    8  C   UNL     1     -11.234   7.530  70.093  1.00  0.00    -0.196 C  
BRANCH   8   9
HETATM    9  C   UNL     1     -11.024   8.839  69.350  1.00  0.00    -0.046 A  
HETATM   10  C   UNL     1     -11.735   9.980  69.722  1.00  0.00    -0.144 A  
HETATM   11  C   UNL     1     -11.798  11.090  68.865  1.00  0.00    -0.378 A  
HETATM   12  C   UNL     1     -11.092  11.154  67.650  1.00  0.00    -0.348 A  
HETATM   13  C   UNL     1     -10.185   8.957  68.239  1.00  0.00    -0.239 A  
HETATM   14  C   UNL     1     -10.193  10.102  67.421  1.00  0.00    -0.267 A  
BRANCH  12  15
HETATM   15  C   UNL     1     -11.320  12.283  66.684  1.00  0.00    -0.398 A  
HETATM   16  C   UNL     1     -11.378  11.943  65.301  1.00  0.00    -0.333 A  
HETATM   17  C   UNL     1     -11.446  12.891  64.279  1.00  0.00    -0.427 A  
HETATM   18  C   UNL     1     -11.509  14.234  64.598  1.00  0.00    -0.389 A  
HETATM   19  C   UNL     1     -11.506  14.612  65.939  1.00  0.00    -0.338 A  
HETATM   20  C   UNL     1     -11.407  13.668  66.996  1.00  0.00    -0.344 A  
BRANCH  20  21
HETATM   21  C   UNL     1     -11.379  14.263  68.331  1.00  0.00    -0.283 A  
HETATM   22  N   UNL     1     -12.457  14.321  69.142  1.00  0.00    -0.528 NA 
HETATM   23  N   UNL     1     -11.957  15.007  70.176  1.00  0.00    -0.299 NA 
HETATM   24  H   UNL     1     -13.394  13.945  69.005  1.00  0.00     0.000 HD 
HETATM   25  N   UNL     1     -10.666  15.350  70.080  1.00  0.00    -0.293 NA 
HETATM   26  N   UNL     1     -10.296  14.909  68.883  1.00  0.00    -0.238 NA 
ENDBRANCH  20  21
ENDBRANCH  12  15
ENDBRANCH   8   9
ENDBRANCH   6   8
BRANCH   6  27
HETATM   27  C   UNL     1      -9.492   7.057  71.904  1.00  0.00    -0.140 C  
HETATM   28  C   UNL     1     -10.485   7.430  73.049  1.00  0.00    -0.323 C  
HETATM   29  O   UNL     1     -10.314   7.045  74.205  1.00  0.00    -0.346 OA 
HETATM   30  C   UNL     1      -8.166   7.877  71.978  1.00  0.00    -0.149 C  
HETATM   31  O   UNL     1     -11.491   8.276  72.774  1.00  0.00    -0.391 OA 
HETATM   32  C   UNL     1      -8.180   9.210  71.238  1.00  0.00    -0.084 C  
HETATM   33  C   UNL     1      -7.606   8.044  73.392  1.00  0.00    -0.201 C  
ENDBRANCH   6  27
ENDBRANCH   4   5
ENDBRANCH   3   4
ENDBRANCH   2   3
TORSDOF 8
ENDMDL
MODEL      109
REMARK 921   NORMALIZED FREE ENERGY PREDICTED BY IDOCK:   -5.63 KCAL/MOL
REMARK 922        TOTAL FREE ENERGY PREDICTED BY IDOCK:   -8.79 KCAL/MOL
REMARK 923 INTER-LIGAND FREE ENERGY PREDICTED BY IDOCK:   -8.14 KCAL/MOL
REMARK 924 INTRA-LIGAND FREE ENERGY PREDICTED BY IDOCK:   -0.64 KCAL/MOL
REMARK 927      BINDING AFFINITY PREDICTED BY RF-SCORE:    0.00 PKD
ROOT
HETATM    1  C   UNL     1     -11.135  14.296  65.119  1.00  0.00    -0.354 C  
HETATM    2  C   UNL     1     -12.079  13.687  64.102  1.00  0.00    -0.484 C  
ENDROOT
BRANCH   2   3
HETATM    3  C   UNL     1     -11.600  12.324  63.596  1.00  0.00    -0.581 C  
BRANCH   3   4
HETATM    4  C   UNL     1     -10.094  12.204  63.830  1.00  0.00    -0.387 C  
BRANCH   4   5
HETATM    5  C   UNL     1      -9.561  10.790  63.743  1.00  0.00    -0.295 C  
HETATM    6  N   UNL     1      -8.684  10.343  64.730  1.00  0.00    -0.179 N  
HETATM    7  O   UNL     1      -9.890  10.057  62.805  1.00  0.00    -0.085 OA 
BRANCH   6   8
HETATM    8  C   UNL     1      -8.295  11.188  65.897  1.00  0.00    -0.076 C  
BRANCH   8   9
HETATM    9  C   UNL     1      -9.254  11.125  67.075  1.00  0.00    -0.172 A  
HETATM   10  C   UNL     1      -8.762  11.032  68.377  1.00  0.00    -0.150 A  
HETATM   11  C   UNL     1      -9.609  10.654  69.431  1.00  0.00    -0.120 A  
HETATM   12  C   UNL     1     -10.988  10.440  69.260  1.00  0.00    -0.287 A  
HETATM   13  C   UNL     1     -10.643  11.087  66.923  1.00  0.00    -0.307 A  
HETATM   14  C   UNL     1     -11.498  10.781  67.998  1.00  0.00    -0.333 A  
BRANCH  12  15
HETATM   15  C   UNL     1     -11.825   9.872  70.372  1.00  0.00    -0.310 A  
HETATM   16  C   UNL     1     -12.640  10.791  71.097  1.00  0.00    -0.532 A  
HETATM   17  C   UNL     1     -13.362  10.442  72.238  1.00  0.00    -0.255 A  
HETATM   18  C   UNL     1     -13.342   9.133  72.684  1.00  0.00    -0.382 A  
HETATM   19  C   UNL     1     -12.600   8.189  71.978  1.00  0.00    -0.366 A  
HETATM   20  C   UNL     1     -11.832   8.526  70.832  1.00  0.00    -0.243 A  
BRANCH  20  21
HETATM   21  C   UNL     1     -11.091   7.406  70.256  1.00  0.00    -0.258 A  
HETATM   22  N   UNL     1     -11.561   6.644  69.245  1.00  0.00    -0.646 NA 
HETATM   23  N   UNL     1     -10.585   5.735  69.140  1.00  0.00    -0.279 NA 
HETATM   24  H   UNL     1     -12.423   6.736  68.709  1.00  0.00     0.000 HD 
HETATM   25  N   UNL     1      -9.551   5.890  69.977  1.00  0.00    -0.160 NA 
HETATM   26  N   UNL     1      -9.883   6.937  70.722  1.00  0.00    -0.182 NA 
ENDBRANCH  20  21
ENDBRANCH  12  15
ENDBRANCH   8   9
ENDBRANCH   6   8
BRANCH   6  27
HETATM   27  C   UNL     1      -8.284   8.888  64.779  1.00  0.00    -0.163 C  
HETATM   28  C   UNL     1      -7.600   8.281  66.045  1.00  0.00    -0.078 C  
HETATM   29  O   UNL     1      -7.801   7.120  66.396  1.00  0.00    -0.103 OA 
HETATM   30  C   UNL     1      -7.635   8.379  63.454  1.00  0.00    -0.129 C  
HETATM   31  O   UNL     1      -6.693   9.025  66.701  1.00  0.00    -0.073 OA 
HETATM   32  C   UNL     1      -6.457   9.201  62.945  1.00  0.00    -0.094 C  
HETATM   33  C   UNL     1      -7.303   6.885  63.449  1.00  0.00    -0.080 C  
ENDBRANCH   6  27
ENDBRANCH   4   5
ENDBRANCH   3   4
ENDBRANCH   2   3
TORSDOF 8
ENDMDL
MODEL      110
REMARK 921   NORMALIZED FREE ENERGY PREDICTED BY IDOCK:   -5.62 KCAL/MOL
REMARK 922        TOTAL FREE ENERGY PREDICTED BY IDOCK:   -8.78 KCAL/MOL
REMARK 923 INTER-LIGAND FREE ENERGY PREDICTED BY IDOCK:   -8.06 KCAL/MOL
REMARK 924 INTRA-LIGAND FREE ENERGY PREDICTED BY IDOCK:   -0.71 KCAL/MOL
REMARK 927      BINDING AFFINITY PREDICTED BY RF-SCORE:    0.00 PKD
ROOT
HETATM    1  C   UNL     1     -12.150  12.971  69.685  1.00  0.00    -0.304 C  
HETATM    2  C   UNL     1     -12.412  12.095  70.893  1.00  0.00    -0.374 C  
ENDROOT
BRANCH   2   3
HETATM    3  C   UNL     1     -12.547  10.615  70.528  1.00  0.00    -0.433 C  
BRANCH   3   4
HETATM    4  C   UNL     1     -11.554   9.800  71.357  1.00  0.00    -0.452 C  
BRANCH   4   5
HETATM    5  C   UNL     1     -11.595   8.311  71.093  1.00  0.00    -0.279 C  
HETATM    6  N   UNL     1     -10.526   7.720  70.422  1.00  0.00    -0.217 N  
HETATM    7  O   UNL     1     -12.568   7.641  71.453  1.00  0.00    -0.329 OA 
BRANCH   6   8
HETATM    8  C   UNL     1      -9.318   8.492  70.005  1.00  0.00    -0.163 C  
BRANCH   8   9
HETATM    9  C   UNL     1      -9.549   9.465  68.862  1.00  0.00    -0.155 A  
HETATM   10  C   UNL     1      -8.901  10.701  68.849  1.00  0.00    -0.160 A  
HETATM   11  C   UNL     1      -9.338  11.724  67.993  1.00  0.00    -0.184 A  
HETATM   12  C   UNL     1     -10.370  11.543  67.055  1.00  0.00    -0.254 A  
HETATM   13  C   UNL     1     -10.451   9.219  67.823  1.00  0.00    -0.313 A  
HETATM   14  C   UNL     1     -10.833  10.226  66.918  1.00  0.00    -0.205 A  
BRANCH  12  15
HETATM   15  C   UNL     1     -10.921  12.707  66.280  1.00  0.00    -0.314 A  
HETATM   16  C   UNL     1     -11.958  12.422  65.343  1.00  0.00    -0.457 A  
HETATM   17  C   UNL     1     -12.473  13.368  64.456  1.00  0.00    -0.359 A  
HETATM   18  C   UNL     1     -12.004  14.668  64.498  1.00  0.00    -0.473 A  
HETATM   19  C   UNL     1     -11.027  15.005  65.431  1.00  0.00    -0.380 A  
HETATM   20  C   UNL     1     -10.465  14.053  66.325  1.00  0.00    -0.286 A  
BRANCH  20  21
HETATM   21  C   UNL     1      -9.426  14.592  67.199  1.00  0.00    -0.231 A  
HETATM   22  N   UNL     1      -9.686  15.339  68.293  1.00  0.00    -0.208 NA 
HETATM   23  N   UNL     1      -8.447  15.646  68.690  1.00  0.00    -0.168 NA 
HETATM   24  H   UNL     1     -10.583  15.598  68.704  1.00  0.00     0.000 HD 
HETATM   25  N   UNL     1      -7.454  15.132  67.952  1.00  0.00    -0.124 NA 
HETATM   26  N   UNL     1      -8.072  14.485  66.972  1.00  0.00    -0.160 NA 
ENDBRANCH  20  21
ENDBRANCH  12  15
ENDBRANCH   8   9
ENDBRANCH   6   8
BRANCH   6  27
HETATM   27  C   UNL     1     -10.446   6.216  70.309  1.00  0.00    -0.229 C  
HETATM   28  C   UNL     1      -9.943   5.343  71.502  1.00  0.00    -0.181 C  
HETATM   29  O   UNL     1     -10.397   4.221  71.718  1.00  0.00    -0.145 OA 
HETATM   30  C   UNL     1      -9.882   5.727  68.938  1.00  0.00    -0.191 C  
HETATM   31  O   UNL     1      -8.919   5.799  72.242  1.00  0.00    -0.139 OA 
HETATM   32  C   UNL     1      -8.542   6.328  68.530  1.00  0.00    -0.114 C  
HETATM   33  C   UNL     1      -9.874   4.207  68.766  1.00  0.00    -0.087 C  
ENDBRANCH   6  27
ENDBRANCH   4   5
ENDBRANCH   3   4
ENDBRANCH   2   3
TORSDOF 8
ENDMDL
MODEL      111
REMARK 921   NORMALIZED FREE ENERGY PREDICTED BY IDOCK:   -5.61 KCAL/MOL
REMARK 922        TOTAL FREE ENERGY PREDICTED BY IDOCK:   -8.76 KCAL/MOL
REMARK 923 INTER-LIGAND FREE ENERGY PREDICTED BY IDOCK:   -7.58 KCAL/MOL
REMARK 924 INTRA-LIGAND FREE ENERGY PREDICTED BY IDOCK:   -1.18 KCAL/MOL
REMARK 927      BINDING AFFINITY PREDICTED BY RF-SCORE:    0.00 PKD
ROOT
HETATM    1  C   UNL     1      -6.261  13.818  70.079  1.00  0.00    -0.120 C  
HETATM    2  C   UNL     1      -5.204  12.743  69.922  1.00  0.00    -0.087 C  
ENDROOT
BRANCH   2   3
HETATM    3  C   UNL     1      -5.792  11.401  69.477  1.00  0.00    -0.070 C  
BRANCH   3   4
HETATM    4  C   UNL     1      -7.224  11.618  68.989  1.00  0.00    -0.094 C  
BRANCH   4   5
HETATM    5  C   UNL     1      -7.486  11.118  67.585  1.00  0.00    -0.100 C  
HETATM    6  N   UNL     1      -8.720  11.390  66.997  1.00  0.00    -0.155 N  
HETATM    7  O   UNL     1      -6.624  10.470  66.984  1.00  0.00    -0.071 OA 
BRANCH   6   8
HETATM    8  C   UNL     1      -9.770  12.202  67.679  1.00  0.00    -0.188 C  
BRANCH   8   9
HETATM    9  C   UNL     1      -9.452  13.684  67.796  1.00  0.00    -0.221 A  
HETATM   10  C   UNL     1      -8.705  14.322  66.805  1.00  0.00    -0.161 A  
HETATM   11  C   UNL     1      -8.136  15.582  67.046  1.00  0.00    -0.272 A  
HETATM   12  C   UNL     1      -8.353  16.301  68.235  1.00  0.00    -0.185 A  
HETATM   13  C   UNL     1      -9.817  14.455  68.903  1.00  0.00    -0.164 A  
HETATM   14  C   UNL     1      -9.304  15.749  69.106  1.00  0.00    -0.258 A  
BRANCH  12  15
HETATM   15  C   UNL     1      -7.591  17.564  68.523  1.00  0.00    -0.266 A  
HETATM   16  C   UNL     1      -6.415  17.438  69.319  1.00  0.00    -0.245 A  
HETATM   17  C   UNL     1      -5.681  18.530  69.785  1.00  0.00    -0.250 A  
HETATM   18  C   UNL     1      -6.065  19.810  69.431  1.00  0.00    -0.338 A  
HETATM   19  C   UNL     1      -7.179  19.980  68.613  1.00  0.00    -0.270 A  
HETATM   20  C   UNL     1      -7.960  18.887  68.151  1.00  0.00    -0.330 A  
BRANCH  20  21
HETATM   21  C   UNL     1      -9.111  19.273  67.338  1.00  0.00    -0.295 A  
HETATM   22  N   UNL     1     -10.243  19.798  67.852  1.00  0.00    -0.427 NA 
HETATM   23  N   UNL     1     -10.997  19.899  66.752  1.00  0.00    -0.260 NA 
HETATM   24  H   UNL     1     -10.463  20.049  68.816  1.00  0.00     0.000 HD 
HETATM   25  N   UNL     1     -10.418  19.508  65.610  1.00  0.00    -0.501 NA 
HETATM   26  N   UNL     1      -9.221  19.070  65.980  1.00  0.00    -0.460 NA 
ENDBRANCH  20  21
ENDBRANCH  12  15
ENDBRANCH   8   9
ENDBRANCH   6   8
BRANCH   6  27
HETATM   27  C   UNL     1      -8.945  11.074  65.537  1.00  0.00    -0.194 C  
HETATM   28  C   UNL     1     -10.124  11.721  64.744  1.00  0.00    -0.263 C  
HETATM   29  O   UNL     1     -10.022  12.006  63.551  1.00  0.00    -0.399 OA 
HETATM   30  C   UNL     1      -8.760   9.562  65.196  1.00  0.00    -0.200 C  
HETATM   31  O   UNL     1     -11.306  11.874  65.364  1.00  0.00    -0.323 OA 
HETATM   32  C   UNL     1      -9.577   8.595  66.045  1.00  0.00    -0.265 C  
HETATM   33  C   UNL     1      -8.896   9.231  63.708  1.00  0.00    -0.150 C  
ENDBRANCH   6  27
ENDBRANCH   4   5
ENDBRANCH   3   4
ENDBRANCH   2   3
TORSDOF 8
ENDMDL
MODEL      112
REMARK 921   NORMALIZED FREE ENERGY PREDICTED BY IDOCK:   -5.59 KCAL/MOL
REMARK 922        TOTAL FREE ENERGY PREDICTED BY IDOCK:   -8.73 KCAL/MOL
REMARK 923 INTER-LIGAND FREE ENERGY PREDICTED BY IDOCK:   -7.70 KCAL/MOL
REMARK 924 INTRA-LIGAND FREE ENERGY PREDICTED BY IDOCK:   -1.03 KCAL/MOL
REMARK 927      BINDING AFFINITY PREDICTED BY RF-SCORE:    0.00 PKD
ROOT
HETATM    1  C   UNL     1      -5.408  12.973  70.139  1.00  0.00    -0.110 C  
HETATM    2  C   UNL     1      -5.488  11.467  70.285  1.00  0.00    -0.116 C  
ENDROOT
BRANCH   2   3
HETATM    3  C   UNL     1      -6.673  10.864  69.526  1.00  0.00    -0.117 C  
BRANCH   3   4
HETATM    4  C   UNL     1      -7.602  11.990  69.071  1.00  0.00     0.056 C  
BRANCH   4   5
HETATM    5  C   UNL     1      -8.006  11.912  67.614  1.00  0.00    -0.146 C  
HETATM    6  N   UNL     1      -9.363  11.869  67.298  1.00  0.00    -0.174 N  
HETATM    7  O   UNL     1      -7.145  11.873  66.730  1.00  0.00    -0.107 OA 
BRANCH   6   8
HETATM    8  C   UNL     1     -10.430  11.952  68.337  1.00  0.00    -0.217 C  
BRANCH   8   9
HETATM    9  C   UNL     1     -10.687  10.657  69.090  1.00  0.00    -0.264 A  
HETATM   10  C   UNL     1     -11.434  10.665  70.268  1.00  0.00    -0.422 A  
HETATM   11  C   UNL     1     -11.411   9.560  71.132  1.00  0.00    -0.440 A  
HETATM   12  C   UNL     1     -10.723   8.371  70.829  1.00  0.00    -0.244 A  
HETATM   13  C   UNL     1     -10.147   9.430  68.697  1.00  0.00    -0.208 A  
HETATM   14  C   UNL     1     -10.189   8.299  69.533  1.00  0.00    -0.210 A  
BRANCH  12  15
HETATM   15  C   UNL     1     -10.581   7.279  71.852  1.00  0.00    -0.238 A  
HETATM   16  C   UNL     1     -11.660   6.355  71.961  1.00  0.00    -0.368 A  
HETATM   17  C   UNL     1     -11.737   5.375  72.952  1.00  0.00    -0.232 A  
HETATM   18  C   UNL     1     -10.703   5.242  73.860  1.00  0.00    -0.320 A  
HETATM   19  C   UNL     1      -9.604   6.091  73.762  1.00  0.00    -0.158 A  
HETATM   20  C   UNL     1      -9.516   7.115  72.781  1.00  0.00    -0.176 A  
BRANCH  20  21
HETATM   21  C   UNL     1      -8.303   7.926  72.868  1.00  0.00    -0.152 A  
HETATM   22  N   UNL     1      -7.394   8.013  71.874  1.00  0.00    -0.075 NA 
HETATM   23  N   UNL     1      -6.463   8.781  72.450  1.00  0.00    -0.212 NA 
HETATM   24  H   UNL     1      -7.412   7.604  70.940  1.00  0.00     0.000 HD 
HETATM   25  N   UNL     1      -6.735   9.193  73.695  1.00  0.00    -0.270 NA 
HETATM   26  N   UNL     1      -7.896   8.620  73.985  1.00  0.00    -0.408 NA 
ENDBRANCH  20  21
ENDBRANCH  12  15
ENDBRANCH   8   9
ENDBRANCH   6   8
BRANCH   6  27
HETATM   27  C   UNL     1      -9.804  11.982  65.858  1.00  0.00    -0.238 C  
HETATM   28  C   UNL     1     -11.242  12.469  65.490  1.00  0.00    -0.314 C  
HETATM   29  O   UNL     1     -11.460  13.134  64.479  1.00  0.00    -0.325 OA 
HETATM   30  C   UNL     1      -9.340  10.783  64.972  1.00  0.00    -0.261 C  
HETATM   31  O   UNL     1     -12.271  12.059  66.251  1.00  0.00    -0.548 OA 
HETATM   32  C   UNL     1      -9.708   9.401  65.498  1.00  0.00    -0.300 C  
HETATM   33  C   UNL     1      -9.699  10.918  63.491  1.00  0.00    -0.384 C  
ENDBRANCH   6  27
ENDBRANCH   4   5
ENDBRANCH   3   4
ENDBRANCH   2   3
TORSDOF 8
ENDMDL
MODEL      113
REMARK 921   NORMALIZED FREE ENERGY PREDICTED BY IDOCK:   -5.57 KCAL/MOL
REMARK 922        TOTAL FREE ENERGY PREDICTED BY IDOCK:   -8.70 KCAL/MOL
REMARK 923 INTER-LIGAND FREE ENERGY PREDICTED BY IDOCK:   -8.80 KCAL/MOL
REMARK 924 INTRA-LIGAND FREE ENERGY PREDICTED BY IDOCK:    0.10 KCAL/MOL
REMARK 927      BINDING AFFINITY PREDICTED BY RF-SCORE:    0.00 PKD
ROOT
HETATM    1  C   UNL     1     -12.341  11.810  63.968  1.00  0.00    -0.341 C  
HETATM    2  C   UNL     1     -12.286  13.197  63.361  1.00  0.00    -0.521 C  
ENDROOT
BRANCH   2   3
HETATM    3  C   UNL     1     -12.020  14.285  64.405  1.00  0.00    -0.476 C  
BRANCH   3   4
HETATM    4  C   UNL     1     -10.528  14.305  64.740  1.00  0.00    -0.421 C  
BRANCH   4   5
HETATM    5  C   UNL     1     -10.116  15.418  65.678  1.00  0.00    -0.376 C  
HETATM    6  N   UNL     1      -9.190  15.139  66.682  1.00  0.00    -0.252 N  
HETATM    7  O   UNL     1     -10.605  16.546  65.560  1.00  0.00    -0.436 OA 
BRANCH   6   8
HETATM    8  C   UNL     1      -8.550  13.799  66.831  1.00  0.00    -0.109 C  
BRANCH   8   9
HETATM    9  C   UNL     1      -9.190  12.902  67.878  1.00  0.00    -0.208 A  
HETATM   10  C   UNL     1      -8.436  11.917  68.515  1.00  0.00    -0.113 A  
HETATM   11  C   UNL     1      -9.069  10.888  69.230  1.00  0.00     0.003 A  
HETATM   12  C   UNL     1     -10.461  10.838  69.420  1.00  0.00    -0.229 A  
HETATM   13  C   UNL     1     -10.548  12.961  68.202  1.00  0.00    -0.249 A  
HETATM   14  C   UNL     1     -11.168  11.968  68.983  1.00  0.00    -0.313 A  
BRANCH  12  15
HETATM   15  C   UNL     1     -11.113   9.635  70.041  1.00  0.00    -0.293 A  
HETATM   16  C   UNL     1     -11.860   9.853  71.235  1.00  0.00    -0.479 A  
HETATM   17  C   UNL     1     -12.405   8.821  72.001  1.00  0.00    -0.444 A  
HETATM   18  C   UNL     1     -12.267   7.512  71.577  1.00  0.00    -0.359 A  
HETATM   19  C   UNL     1     -11.587   7.254  70.389  1.00  0.00    -0.253 A  
HETATM   20  C   UNL     1     -10.998   8.284  69.608  1.00  0.00    -0.092 A  
BRANCH  20  21
HETATM   21  C   UNL     1     -10.294   7.808  68.419  1.00  0.00    -0.196 A  
HETATM   22  N   UNL     1     -10.844   7.789  67.186  1.00  0.00    -0.515 NA 
HETATM   23  N   UNL     1      -9.866   7.210  66.483  1.00  0.00    -0.160 NA 
HETATM   24  H   UNL     1     -11.756   8.125  66.877  1.00  0.00     0.000 HD 
HETATM   25  N   UNL     1      -8.759   6.898  67.169  1.00  0.00    -0.119 NA 
HETATM   26  N   UNL     1      -9.038   7.244  68.420  1.00  0.00    -0.136 NA 
ENDBRANCH  20  21
ENDBRANCH  12  15
ENDBRANCH   8   9
ENDBRANCH   6   8
BRANCH   6  27
HETATM   27  C   UNL     1      -8.616  16.264  67.512  1.00  0.00    -0.177 C  
HETATM   28  C   UNL     1      -8.419  17.691  66.909  1.00  0.00    -0.241 C  
HETATM   29  O   UNL     1      -8.557  18.705  67.591  1.00  0.00    -0.267 OA 
HETATM   30  C   UNL     1      -7.412  15.825  68.401  1.00  0.00    -0.121 C  
HETATM   31  O   UNL     1      -7.991  17.797  65.640  1.00  0.00    -0.532 OA 
HETATM   32  C   UNL     1      -6.277  15.121  67.665  1.00  0.00    -0.145 C  
HETATM   33  C   UNL     1      -6.870  16.925  69.316  1.00  0.00    -0.228 C  
ENDBRANCH   6  27
ENDBRANCH   4   5
ENDBRANCH   3   4
ENDBRANCH   2   3
TORSDOF 8
ENDMDL
MODEL      114
REMARK 921   NORMALIZED FREE ENERGY PREDICTED BY IDOCK:   -5.54 KCAL/MOL
REMARK 922        TOTAL FREE ENERGY PREDICTED BY IDOCK:   -8.65 KCAL/MOL
REMARK 923 INTER-LIGAND FREE ENERGY PREDICTED BY IDOCK:   -7.49 KCAL/MOL
REMARK 924 INTRA-LIGAND FREE ENERGY PREDICTED BY IDOCK:   -1.16 KCAL/MOL
REMARK 927      BINDING AFFINITY PREDICTED BY RF-SCORE:    0.00 PKD
ROOT
HETATM    1  C   UNL     1      -7.684   9.803  70.293  1.00  0.00    -0.187 C  
HETATM    2  C   UNL     1      -7.571  10.675  69.060  1.00  0.00    -0.122 C  
ENDROOT
BRANCH   2   3
HETATM    3  C   UNL     1      -6.362  10.316  68.193  1.00  0.00    -0.056 C  
BRANCH   3   4
HETATM    4  C   UNL     1      -6.824   9.450  67.021  1.00  0.00    -0.084 C  
BRANCH   4   5
HETATM    5  C   UNL     1      -6.956   7.978  67.349  1.00  0.00    -0.075 C  
HETATM    6  N   UNL     1      -8.122   7.311  66.977  1.00  0.00    -0.115 N  
HETATM    7  O   UNL     1      -6.050   7.390  67.947  1.00  0.00    -0.033 OA 
BRANCH   6   8
HETATM    8  C   UNL     1      -9.221   7.981  66.221  1.00  0.00    -0.184 C  
BRANCH   8   9
HETATM    9  C   UNL     1     -10.147   8.836  67.069  1.00  0.00    -0.335 A  
HETATM   10  C   UNL     1     -10.611  10.061  66.588  1.00  0.00    -0.196 A  
HETATM   11  C   UNL     1     -11.190  10.994  67.461  1.00  0.00    -0.372 A  
HETATM   12  C   UNL     1     -11.417  10.724  68.823  1.00  0.00    -0.364 A  
HETATM   13  C   UNL     1     -10.522   8.490  68.371  1.00  0.00    -0.215 A  
HETATM   14  C   UNL     1     -11.171   9.402  69.223  1.00  0.00     0.017 A  
BRANCH  12  15
HETATM   15  C   UNL     1     -11.880  11.807  69.757  1.00  0.00    -0.420 A  
HETATM   16  C   UNL     1     -12.383  11.390  71.025  1.00  0.00    -0.448 A  
HETATM   17  C   UNL     1     -12.974  12.261  71.941  1.00  0.00    -0.411 A  
HETATM   18  C   UNL     1     -13.046  13.611  71.650  1.00  0.00    -0.455 A  
HETATM   19  C   UNL     1     -12.523  14.071  70.444  1.00  0.00    -0.418 A  
HETATM   20  C   UNL     1     -11.943  13.201  69.482  1.00  0.00    -0.354 A  
BRANCH  20  21
HETATM   21  C   UNL     1     -11.488  13.870  68.265  1.00  0.00    -0.311 A  
HETATM   22  N   UNL     1     -12.317  14.244  67.267  1.00  0.00    -0.592 NA 
HETATM   23  N   UNL     1     -11.440  14.719  66.376  1.00  0.00    -0.343 NA 
HETATM   24  H   UNL     1     -13.333  14.181  67.209  1.00  0.00     0.000 HD 
HETATM   25  N   UNL     1     -10.154  14.694  66.752  1.00  0.00    -0.260 NA 
HETATM   26  N   UNL     1     -10.171  14.116  67.947  1.00  0.00    -0.232 NA 
ENDBRANCH  20  21
ENDBRANCH  12  15
ENDBRANCH   8   9
ENDBRANCH   6   8
BRANCH   6  27
HETATM   27  C   UNL     1      -8.209   5.810  67.118  1.00  0.00    -0.102 C  
HETATM   28  C   UNL     1      -9.335   4.997  66.404  1.00  0.00    -0.145 C  
HETATM   29  O   UNL     1      -9.139   3.861  65.974  1.00  0.00    -0.133 OA 
HETATM   30  C   UNL     1      -7.946   5.308  68.572  1.00  0.00    -0.087 C  
HETATM   31  O   UNL     1     -10.571   5.522  66.355  1.00  0.00    -0.264 OA 
HETATM   32  C   UNL     1      -8.801   5.958  69.653  1.00  0.00    -0.131 C  
HETATM   33  C   UNL     1      -7.941   3.785  68.721  1.00  0.00    -0.065 C  
ENDBRANCH   6  27
ENDBRANCH   4   5
ENDBRANCH   3   4
ENDBRANCH   2   3
TORSDOF 8
ENDMDL
MODEL      115
REMARK 921   NORMALIZED FREE ENERGY PREDICTED BY IDOCK:   -5.53 KCAL/MOL
REMARK 922        TOTAL FREE ENERGY PREDICTED BY IDOCK:   -8.65 KCAL/MOL
REMARK 923 INTER-LIGAND FREE ENERGY PREDICTED BY IDOCK:   -8.57 KCAL/MOL
REMARK 924 INTRA-LIGAND FREE ENERGY PREDICTED BY IDOCK:   -0.08 KCAL/MOL
REMARK 927      BINDING AFFINITY PREDICTED BY RF-SCORE:    0.00 PKD
ROOT
HETATM    1  C   UNL     1     -12.853  15.013  73.577  1.00  0.00    -0.636 C  
HETATM    2  C   UNL     1     -13.129  14.839  72.097  1.00  0.00    -0.426 C  
ENDROOT
BRANCH   2   3
HETATM    3  C   UNL     1     -11.847  14.697  71.273  1.00  0.00    -0.378 C  
BRANCH   3   4
HETATM    4  C   UNL     1     -12.142  13.866  70.024  1.00  0.00    -0.411 C  
BRANCH   4   5
HETATM    5  C   UNL     1     -11.879  14.586  68.720  1.00  0.00    -0.315 C  
HETATM    6  N   UNL     1     -11.924  13.858  67.532  1.00  0.00    -0.394 N  
HETATM    7  O   UNL     1     -11.614  15.792  68.717  1.00  0.00    -0.363 OA 
BRANCH   6   8
HETATM    8  C   UNL     1     -12.277  12.409  67.495  1.00  0.00     0.258 C  
BRANCH   8   9
HETATM    9  C   UNL     1     -11.219  11.482  68.071  1.00  0.00    -0.335 A  
HETATM   10  C   UNL     1     -11.514  10.678  69.173  1.00  0.00    -0.349 A  
HETATM   11  C   UNL     1     -10.483  10.071  69.906  1.00  0.00    -0.317 A  
HETATM   12  C   UNL     1      -9.130  10.158  69.533  1.00  0.00    -0.213 A  
HETATM   13  C   UNL     1      -9.907  11.434  67.592  1.00  0.00    -0.189 A  
HETATM   14  C   UNL     1      -8.887  10.761  68.289  1.00  0.00    -0.139 A  
BRANCH  12  15
HETATM   15  C   UNL     1      -8.045   9.641  70.436  1.00  0.00    -0.198 A  
HETATM   16  C   UNL     1      -6.763  10.254  70.318  1.00  0.00    -0.143 A  
HETATM   17  C   UNL     1      -5.627   9.794  70.985  1.00  0.00    -0.071 A  
HETATM   18  C   UNL     1      -5.732   8.719  71.847  1.00  0.00    -0.058 A  
HETATM   19  C   UNL     1      -6.975   8.119  72.033  1.00  0.00    -0.086 A  
HETATM   20  C   UNL     1      -8.140   8.549  71.343  1.00  0.00    -0.176 A  
BRANCH  20  21
HETATM   21  C   UNL     1      -9.338   7.767  71.642  1.00  0.00    -0.140 A  
HETATM   22  N   UNL     1      -9.782   6.758  70.863  1.00  0.00    -0.178 NA 
HETATM   23  N   UNL     1     -10.913   6.430  71.496  1.00  0.00    -0.253 NA 
HETATM   24  H   UNL     1      -9.367   6.356  70.022  1.00  0.00     0.000 HD 
HETATM   25  N   UNL     1     -11.185   7.129  72.605  1.00  0.00    -0.291 NA 
HETATM   26  N   UNL     1     -10.200   8.015  72.687  1.00  0.00    -0.291 NA 
ENDBRANCH  20  21
ENDBRANCH  12  15
ENDBRANCH   8   9
ENDBRANCH   6   8
BRANCH   6  27
HETATM   27  C   UNL     1     -11.853  14.576  66.206  1.00  0.00    -0.344 C  
HETATM   28  C   UNL     1     -12.116  13.821  64.864  1.00  0.00    -0.403 C  
HETATM   29  O   UNL     1     -12.657  14.372  63.907  1.00  0.00    -0.814 OA 
HETATM   30  C   UNL     1     -10.653  15.569  66.101  1.00  0.00    -0.321 C  
HETATM   31  O   UNL     1     -11.643  12.570  64.731  1.00  0.00    -0.314 OA 
HETATM   32  C   UNL     1      -9.285  14.976  66.419  1.00  0.00    -0.328 C  
HETATM   33  C   UNL     1     -10.612  16.373  64.801  1.00  0.00     0.048 C  
ENDBRANCH   6  27
ENDBRANCH   4   5
ENDBRANCH   3   4
ENDBRANCH   2   3
TORSDOF 8
ENDMDL
MODEL      116
REMARK 921   NORMALIZED FREE ENERGY PREDICTED BY IDOCK:   -5.53 KCAL/MOL
REMARK 922        TOTAL FREE ENERGY PREDICTED BY IDOCK:   -8.65 KCAL/MOL
REMARK 923 INTER-LIGAND FREE ENERGY PREDICTED BY IDOCK:   -8.91 KCAL/MOL
REMARK 924 INTRA-LIGAND FREE ENERGY PREDICTED BY IDOCK:    0.26 KCAL/MOL
REMARK 927      BINDING AFFINITY PREDICTED BY RF-SCORE:    0.00 PKD
ROOT
HETATM    1  C   UNL     1     -11.466  11.986  63.549  1.00  0.00    -0.536 C  
HETATM    2  C   UNL     1     -12.772  12.361  64.219  1.00  0.00    -0.437 C  
ENDROOT
BRANCH   2   3
HETATM    3  C   UNL     1     -12.650  13.618  65.084  1.00  0.00    -0.474 C  
BRANCH   3   4
HETATM    4  C   UNL     1     -12.214  13.217  66.493  1.00  0.00    -0.358 C  
BRANCH   4   5
HETATM    5  C   UNL     1     -11.162  14.121  67.101  1.00  0.00    -0.317 C  
HETATM    6  N   UNL     1      -9.827  13.723  67.050  1.00  0.00    -0.245 N  
HETATM    7  O   UNL     1     -11.490  15.180  67.643  1.00  0.00    -0.332 OA 
BRANCH   6   8
HETATM    8  C   UNL     1      -9.392  12.468  66.370  1.00  0.00    -0.209 C  
BRANCH   8   9
HETATM    9  C   UNL     1      -9.707  11.190  67.130  1.00  0.00    -0.199 A  
HETATM   10  C   UNL     1      -9.006  10.874  68.294  1.00  0.00    -0.150 A  
HETATM   11  C   UNL     1      -9.053   9.574  68.821  1.00  0.00    -0.133 A  
HETATM   12  C   UNL     1      -9.861   8.560  68.275  1.00  0.00    -0.190 A  
HETATM   13  C   UNL     1     -10.641  10.251  66.684  1.00  0.00    -0.232 A  
HETATM   14  C   UNL     1     -10.740   8.972  67.262  1.00  0.00    -0.222 A  
BRANCH  12  15
HETATM   15  C   UNL     1      -9.753   7.142  68.761  1.00  0.00    -0.145 A  
HETATM   16  C   UNL     1      -8.926   6.263  68.002  1.00  0.00    -0.114 A  
HETATM   17  C   UNL     1      -8.834   4.892  68.245  1.00  0.00    -0.114 A  
HETATM   18  C   UNL     1      -9.535   4.339  69.300  1.00  0.00    -0.254 A  
HETATM   19  C   UNL     1     -10.318   5.167  70.101  1.00  0.00    -0.340 A  
HETATM   20  C   UNL     1     -10.452   6.560  69.855  1.00  0.00    -0.258 A  
BRANCH  20  21
HETATM   21  C   UNL     1     -11.349   7.249  70.781  1.00  0.00    -0.285 A  
HETATM   22  N   UNL     1     -12.695   7.170  70.710  1.00  0.00    -0.602 NA 
HETATM   23  N   UNL     1     -13.048   8.012  71.687  1.00  0.00    -0.331 NA 
HETATM   24  H   UNL     1     -13.281   6.619  70.084  1.00  0.00     0.000 HD 
HETATM   25  N   UNL     1     -12.040   8.577  72.364  1.00  0.00    -0.383 NA 
HETATM   26  N   UNL     1     -10.946   8.122  71.766  1.00  0.00    -0.247 NA 
ENDBRANCH  20  21
ENDBRANCH  12  15
ENDBRANCH   8   9
ENDBRANCH   6   8
BRANCH   6  27
HETATM   27  C   UNL     1      -8.740  14.681  67.474  1.00  0.00    -0.186 C  
HETATM   28  C   UNL     1      -8.584  15.115  68.966  1.00  0.00    -0.219 C  
HETATM   29  O   UNL     1      -7.482  15.343  69.462  1.00  0.00    -0.204 OA 
HETATM   30  C   UNL     1      -8.545  15.873  66.486  1.00  0.00    -0.345 C  
HETATM   31  O   UNL     1      -9.696  15.340  69.687  1.00  0.00    -0.249 OA 
HETATM   32  C   UNL     1      -9.806  16.666  66.161  1.00  0.00    -0.340 C  
HETATM   33  C   UNL     1      -7.390  16.809  66.848  1.00  0.00    -0.257 C  
ENDBRANCH   6  27
ENDBRANCH   4   5
ENDBRANCH   3   4
ENDBRANCH   2   3
TORSDOF 8
ENDMDL
MODEL      117
REMARK 921   NORMALIZED FREE ENERGY PREDICTED BY IDOCK:   -5.50 KCAL/MOL
REMARK 922        TOTAL FREE ENERGY PREDICTED BY IDOCK:   -8.60 KCAL/MOL
REMARK 923 INTER-LIGAND FREE ENERGY PREDICTED BY IDOCK:   -7.67 KCAL/MOL
REMARK 924 INTRA-LIGAND FREE ENERGY PREDICTED BY IDOCK:   -0.93 KCAL/MOL
REMARK 927      BINDING AFFINITY PREDICTED BY RF-SCORE:    0.00 PKD
ROOT
HETATM    1  C   UNL     1     -12.246  11.082  69.850  1.00  0.00    -0.408 C  
HETATM    2  C   UNL     1     -11.367  10.133  69.061  1.00  0.00    -0.188 C  
ENDROOT
BRANCH   2   3
HETATM    3  C   UNL     1     -10.148   9.662  69.857  1.00  0.00    -0.279 C  
BRANCH   3   4
HETATM    4  C   UNL     1      -9.322   8.707  68.993  1.00  0.00    -0.146 C  
BRANCH   4   5
HETATM    5  C   UNL     1      -9.540   8.869  67.504  1.00  0.00    -0.145 C  
HETATM    6  N   UNL     1      -8.651   9.662  66.780  1.00  0.00    -0.133 N  
HETATM    7  O   UNL     1     -10.498   8.320  66.951  1.00  0.00    -0.319 OA 
BRANCH   6   8
HETATM    8  C   UNL     1      -7.462  10.309  67.408  1.00  0.00    -0.094 C  
BRANCH   8   9
HETATM    9  C   UNL     1      -7.629  11.790  67.707  1.00  0.00    -0.127 A  
HETATM   10  C   UNL     1      -8.771  12.250  68.362  1.00  0.00    -0.139 A  
HETATM   11  C   UNL     1      -9.090  13.616  68.360  1.00  0.00    -0.165 A  
HETATM   12  C   UNL     1      -8.253  14.593  67.790  1.00  0.00    -0.169 A  
HETATM   13  C   UNL     1      -6.709  12.757  67.293  1.00  0.00    -0.089 A  
HETATM   14  C   UNL     1      -6.999  14.133  67.360  1.00  0.00    -0.070 A  
BRANCH  12  15
HETATM   15  C   UNL     1      -8.710  16.018  67.657  1.00  0.00    -0.180 A  
HETATM   16  C   UNL     1      -7.978  16.999  68.387  1.00  0.00    -0.239 A  
HETATM   17  C   UNL     1      -8.361  18.338  68.474  1.00  0.00    -0.327 A  
HETATM   18  C   UNL     1      -9.480  18.772  67.788  1.00  0.00    -0.333 A  
HETATM   19  C   UNL     1     -10.200  17.859  67.021  1.00  0.00    -0.359 A  
HETATM   20  C   UNL     1      -9.847  16.486  66.940  1.00  0.00    -0.262 A  
BRANCH  20  21
HETATM   21  C   UNL     1     -10.748  15.682  66.117  1.00  0.00    -0.303 A  
HETATM   22  N   UNL     1     -10.763  15.727  64.768  1.00  0.00    -0.709 NA 
HETATM   23  N   UNL     1     -11.782  14.903  64.500  1.00  0.00    -0.406 NA 
HETATM   24  H   UNL     1     -10.163  16.247  64.129  1.00  0.00     0.000 HD 
HETATM   25  N   UNL     1     -12.371  14.338  65.561  1.00  0.00    -0.420 NA 
HETATM   26  N   UNL     1     -11.740  14.860  66.606  1.00  0.00    -0.280 NA 
ENDBRANCH  20  21
ENDBRANCH  12  15
ENDBRANCH   8   9
ENDBRANCH   6   8
BRANCH   6  27
HETATM   27  C   UNL     1      -8.726   9.692  65.272  1.00  0.00    -0.160 C  
HETATM   28  C   UNL     1      -7.431   9.744  64.400  1.00  0.00    -0.132 C  
HETATM   29  O   UNL     1      -7.365   9.185  63.307  1.00  0.00    -0.095 OA 
HETATM   30  C   UNL     1      -9.845  10.634  64.727  1.00  0.00    -0.372 C  
HETATM   31  O   UNL     1      -6.406  10.504  64.821  1.00  0.00    -0.102 OA 
HETATM   32  C   UNL     1      -9.808  12.065  65.252  1.00  0.00    -0.236 C  
HETATM   33  C   UNL     1      -9.999  10.615  63.205  1.00  0.00    -0.286 C  
ENDBRANCH   6  27
ENDBRANCH   4   5
ENDBRANCH   3   4
ENDBRANCH   2   3
TORSDOF 8
ENDMDL
MODEL      118
REMARK 921   NORMALIZED FREE ENERGY PREDICTED BY IDOCK:   -5.50 KCAL/MOL
REMARK 922        TOTAL FREE ENERGY PREDICTED BY IDOCK:   -8.60 KCAL/MOL
REMARK 923 INTER-LIGAND FREE ENERGY PREDICTED BY IDOCK:   -7.42 KCAL/MOL
REMARK 924 INTRA-LIGAND FREE ENERGY PREDICTED BY IDOCK:   -1.18 KCAL/MOL
REMARK 927      BINDING AFFINITY PREDICTED BY RF-SCORE:    0.00 PKD
ROOT
HETATM    1  C   UNL     1      -8.674   3.897  66.995  1.00  0.00    -0.116 C  
HETATM    2  C   UNL     1      -9.569   4.447  68.086  1.00  0.00    -0.200 C  
ENDROOT
BRANCH   2   3
HETATM    3  C   UNL     1     -10.406   5.639  67.616  1.00  0.00    -0.266 C  
BRANCH   3   4
HETATM    4  C   UNL     1      -9.490   6.661  66.943  1.00  0.00    -0.184 C  
BRANCH   4   5
HETATM    5  C   UNL     1      -8.482   7.301  67.873  1.00  0.00    -0.118 C  
HETATM    6  N   UNL     1      -8.932   8.226  68.814  1.00  0.00    -0.144 N  
HETATM    7  O   UNL     1      -7.284   7.016  67.783  1.00  0.00    -0.086 OA 
BRANCH   6   8
HETATM    8  C   UNL     1     -10.376   8.565  68.975  1.00  0.00    -0.216 C  
BRANCH   8   9
HETATM    9  C   UNL     1     -10.838   9.772  68.175  1.00  0.00    -0.264 A  
HETATM   10  C   UNL     1     -10.495   9.895  66.828  1.00  0.00    -0.261 A  
HETATM   11  C   UNL     1     -10.631  11.127  66.170  1.00  0.00    -0.305 A  
HETATM   12  C   UNL     1     -11.191  12.261  66.785  1.00  0.00    -0.371 A  
HETATM   13  C   UNL     1     -11.551  10.832  68.741  1.00  0.00    -0.350 A  
HETATM   14  C   UNL     1     -11.753  12.042  68.052  1.00  0.00    -0.398 A  
BRANCH  12  15
HETATM   15  C   UNL     1     -11.161  13.602  66.105  1.00  0.00    -0.309 A  
HETATM   16  C   UNL     1     -12.099  13.809  65.052  1.00  0.00    -0.424 A  
HETATM   17  C   UNL     1     -12.103  14.943  64.238  1.00  0.00    -0.373 A  
HETATM   18  C   UNL     1     -11.190  15.954  64.475  1.00  0.00    -0.324 A  
HETATM   19  C   UNL     1     -10.287  15.818  65.526  1.00  0.00    -0.430 A  
HETATM   20  C   UNL     1     -10.243  14.660  66.348  1.00  0.00    -0.296 A  
BRANCH  20  21
HETATM   21  C   UNL     1      -9.199  14.689  67.370  1.00  0.00    -0.198 A  
HETATM   22  N   UNL     1      -9.436  14.971  68.669  1.00  0.00    -0.205 NA 
HETATM   23  N   UNL     1      -8.193  14.954  69.162  1.00  0.00    -0.169 NA 
HETATM   24  H   UNL     1     -10.321  15.147  69.144  1.00  0.00     0.000 HD 
HETATM   25  N   UNL     1      -7.222  14.662  68.287  1.00  0.00    -0.108 NA 
HETATM   26  N   UNL     1      -7.853  14.527  67.127  1.00  0.00    -0.164 NA 
ENDBRANCH  20  21
ENDBRANCH  12  15
ENDBRANCH   8   9
ENDBRANCH   6   8
BRANCH   6  27
HETATM   27  C   UNL     1      -7.989   8.738  69.876  1.00  0.00    -0.106 C  
HETATM   28  C   UNL     1      -8.466   8.940  71.349  1.00  0.00    -0.153 C  
HETATM   29  O   UNL     1      -7.713   8.752  72.304  1.00  0.00    -0.332 OA 
HETATM   30  C   UNL     1      -7.077   9.906  69.384  1.00  0.00    -0.067 C  
HETATM   31  O   UNL     1      -9.699   9.427  71.562  1.00  0.00    -0.226 OA 
HETATM   32  C   UNL     1      -7.809  11.087  68.756  1.00  0.00    -0.138 C  
HETATM   33  C   UNL     1      -6.052  10.383  70.414  1.00  0.00    -0.118 C  
ENDBRANCH   6  27
ENDBRANCH   4   5
ENDBRANCH   3   4
ENDBRANCH   2   3
TORSDOF 8
ENDMDL
MODEL      119
REMARK 921   NORMALIZED FREE ENERGY PREDICTED BY IDOCK:   -5.49 KCAL/MOL
REMARK 922        TOTAL FREE ENERGY PREDICTED BY IDOCK:   -8.59 KCAL/MOL
REMARK 923 INTER-LIGAND FREE ENERGY PREDICTED BY IDOCK:   -8.68 KCAL/MOL
REMARK 924 INTRA-LIGAND FREE ENERGY PREDICTED BY IDOCK:    0.10 KCAL/MOL
REMARK 927      BINDING AFFINITY PREDICTED BY RF-SCORE:    0.00 PKD
ROOT
HETATM    1  C   UNL     1     -14.113  14.333  71.777  1.00  0.00    -0.535 C  
HETATM    2  C   UNL     1     -12.888  13.488  71.496  1.00  0.00    -0.440 C  
ENDROOT
BRANCH   2   3
HETATM    3  C   UNL     1     -12.301  13.747  70.106  1.00  0.00    -0.390 C  
BRANCH   3   4
HETATM    4  C   UNL     1     -11.211  14.814  70.213  1.00  0.00    -0.239 C  
BRANCH   4   5
HETATM    5  C   UNL     1     -11.402  15.994  69.285  1.00  0.00    -0.356 C  
HETATM    6  N   UNL     1     -10.282  16.548  68.668  1.00  0.00    -0.248 N  
HETATM    7  O   UNL     1     -12.529  16.461  69.096  1.00  0.00     0.248 OA 
BRANCH   6   8
HETATM    8  C   UNL     1      -8.911  15.986  68.843  1.00  0.00    -0.233 C  
BRANCH   8   9
HETATM    9  C   UNL     1      -8.678  14.651  68.157  1.00  0.00    -0.168 A  
HETATM   10  C   UNL     1      -9.728  14.005  67.503  1.00  0.00    -0.232 A  
HETATM   11  C   UNL     1      -9.619  12.651  67.150  1.00  0.00    -0.207 A  
HETATM   12  C   UNL     1      -8.444  11.904  67.347  1.00  0.00    -0.166 A  
HETATM   13  C   UNL     1      -7.455  13.976  68.200  1.00  0.00    -0.131 A  
HETATM   14  C   UNL     1      -7.329  12.641  67.776  1.00  0.00    -0.128 A  
BRANCH  12  15
HETATM   15  C   UNL     1      -8.425  10.419  67.115  1.00  0.00    -0.126 A  
HETATM   16  C   UNL     1      -8.106   9.598  68.236  1.00  0.00    -0.105 A  
HETATM   17  C   UNL     1      -7.915   8.218  68.148  1.00  0.00    -0.123 A  
HETATM   18  C   UNL     1      -8.082   7.583  66.932  1.00  0.00    -0.116 A  
HETATM   19  C   UNL     1      -8.442   8.338  65.818  1.00  0.00    -0.164 A  
HETATM   20  C   UNL     1      -8.614   9.747  65.876  1.00  0.00    -0.149 A  
BRANCH  20  21
HETATM   21  C   UNL     1      -8.952  10.363  64.594  1.00  0.00    -0.209 A  
HETATM   22  N   UNL     1      -8.037  10.658  63.646  1.00  0.00    -0.351 NA 
HETATM   23  N   UNL     1      -8.806  11.261  62.733  1.00  0.00    -0.241 NA 
HETATM   24  H   UNL     1      -7.035  10.472  63.630  1.00  0.00     0.000 HD 
HETATM   25  N   UNL     1     -10.110  11.336  63.026  1.00  0.00    -0.314 NA 
HETATM   26  N   UNL     1     -10.208  10.797  64.235  1.00  0.00    -0.353 NA 
ENDBRANCH  20  21
ENDBRANCH  12  15
ENDBRANCH   8   9
ENDBRANCH   6   8
BRANCH   6  27
HETATM   27  C   UNL     1     -10.456  17.598  67.596  1.00  0.00    -0.372 C  
HETATM   28  C   UNL     1     -10.160  17.278  66.097  1.00  0.00    -0.302 C  
HETATM   29  O   UNL     1     -10.808  17.791  65.186  1.00  0.00    -0.671 OA 
HETATM   30  C   UNL     1      -9.927  19.005  68.017  1.00  0.00    -0.436 C  
HETATM   31  O   UNL     1      -9.105  16.499  65.804  1.00  0.00    -0.487 OA 
HETATM   32  C   UNL     1      -8.487  19.040  68.518  1.00  0.00    -0.387 C  
HETATM   33  C   UNL     1     -10.171  20.106  66.982  1.00  0.00    -0.558 C  
ENDBRANCH   6  27
ENDBRANCH   4   5
ENDBRANCH   3   4
ENDBRANCH   2   3
TORSDOF 8
ENDMDL
MODEL      120
REMARK 921   NORMALIZED FREE ENERGY PREDICTED BY IDOCK:   -5.49 KCAL/MOL
REMARK 922        TOTAL FREE ENERGY PREDICTED BY IDOCK:   -8.58 KCAL/MOL
REMARK 923 INTER-LIGAND FREE ENERGY PREDICTED BY IDOCK:   -8.50 KCAL/MOL
REMARK 924 INTRA-LIGAND FREE ENERGY PREDICTED BY IDOCK:   -0.08 KCAL/MOL
REMARK 927      BINDING AFFINITY PREDICTED BY RF-SCORE:    0.00 PKD
ROOT
HETATM    1  C   UNL     1     -13.100  11.307  71.784  1.00  0.00    -0.527 C  
HETATM    2  C   UNL     1     -12.309  10.061  71.442  1.00  0.00    -0.512 C  
ENDROOT
BRANCH   2   3
HETATM    3  C   UNL     1     -11.363  10.272  70.257  1.00  0.00    -0.398 C  
BRANCH   3   4
HETATM    4  C   UNL     1     -10.116   9.409  70.451  1.00  0.00    -0.310 C  
BRANCH   4   5
HETATM    5  C   UNL     1     -10.131   8.110  69.675  1.00  0.00    -0.199 C  
HETATM    6  N   UNL     1      -9.138   7.887  68.723  1.00  0.00    -0.141 N  
HETATM    7  O   UNL     1     -11.018   7.275  69.877  1.00  0.00    -0.255 OA 
BRANCH   6   8
HETATM    8  C   UNL     1      -8.030   8.856  68.480  1.00  0.00    -0.104 C  
BRANCH   8   9
HETATM    9  C   UNL     1      -8.417  10.068  67.648  1.00  0.00    -0.114 A  
HETATM   10  C   UNL     1      -7.508  11.108  67.456  1.00  0.00    -0.104 A  
HETATM   11  C   UNL     1      -7.944  12.353  66.976  1.00  0.00    -0.106 A  
HETATM   12  C   UNL     1      -9.272  12.595  66.582  1.00  0.00    -0.218 A  
HETATM   13  C   UNL     1      -9.692  10.239  67.101  1.00  0.00    -0.210 A  
HETATM   14  C   UNL     1     -10.105  11.466  66.551  1.00  0.00    -0.250 A  
BRANCH  12  15
HETATM   15  C   UNL     1      -9.734  13.983  66.237  1.00  0.00    -0.311 A  
HETATM   16  C   UNL     1      -9.026  15.065  66.840  1.00  0.00    -0.276 A  
HETATM   17  C   UNL     1      -9.420  16.398  66.727  1.00  0.00    -0.265 A  
HETATM   18  C   UNL     1     -10.523  16.721  65.960  1.00  0.00    -0.300 A  
HETATM   19  C   UNL     1     -11.217  15.702  65.312  1.00  0.00    -0.236 A  
HETATM   20  C   UNL     1     -10.854  14.334  65.435  1.00  0.00    -0.348 A  
BRANCH  20  21
HETATM   21  C   UNL     1     -11.730  13.414  64.712  1.00  0.00    -0.361 A  
HETATM   22  N   UNL     1     -12.728  12.720  65.299  1.00  0.00    -0.691 NA 
HETATM   23  N   UNL     1     -13.163  11.984  64.270  1.00  0.00    -0.648 NA 
HETATM   24  H   UNL     1     -13.059  12.749  66.263  1.00  0.00     0.000 HD 
HETATM   25  N   UNL     1     -12.538  12.186  63.103  1.00  0.00    -0.540 NA 
HETATM   26  N   UNL     1     -11.592  13.074  63.384  1.00  0.00    -0.433 NA 
ENDBRANCH  20  21
ENDBRANCH  12  15
ENDBRANCH   8   9
ENDBRANCH   6   8
BRANCH   6  27
HETATM   27  C   UNL     1      -9.012   6.531  68.070  1.00  0.00    -0.116 C  
HETATM   28  C   UNL     1      -7.704   5.689  68.203  1.00  0.00    -0.089 C  
HETATM   29  O   UNL     1      -7.728   4.461  68.257  1.00  0.00    -0.074 OA 
HETATM   30  C   UNL     1      -9.603   6.482  66.626  1.00  0.00    -0.201 C  
HETATM   31  O   UNL     1      -6.523   6.329  68.155  1.00  0.00    -0.044 OA 
HETATM   32  C   UNL     1      -9.079   7.545  65.668  1.00  0.00     0.060 C  
HETATM   33  C   UNL     1      -9.568   5.097  65.977  1.00  0.00    -0.176 C  
ENDBRANCH   6  27
ENDBRANCH   4   5
ENDBRANCH   3   4
ENDBRANCH   2   3
TORSDOF 8
ENDMDL
MODEL      121
REMARK 921   NORMALIZED FREE ENERGY PREDICTED BY IDOCK:   -5.48 KCAL/MOL
REMARK 922        TOTAL FREE ENERGY PREDICTED BY IDOCK:   -8.57 KCAL/MOL
REMARK 923 INTER-LIGAND FREE ENERGY PREDICTED BY IDOCK:   -9.10 KCAL/MOL
REMARK 924 INTRA-LIGAND FREE ENERGY PREDICTED BY IDOCK:    0.54 KCAL/MOL
REMARK 927      BINDING AFFINITY PREDICTED BY RF-SCORE:    0.00 PKD
ROOT
HETATM    1  C   UNL     1     -13.549  13.414  72.239  1.00  0.00    -0.703 C  
HETATM    2  C   UNL     1     -13.664  14.924  72.189  1.00  0.00    -0.550 C  
ENDROOT
BRANCH   2   3
HETATM    3  C   UNL     1     -12.814  15.541  71.075  1.00  0.00    -0.543 C  
BRANCH   3   4
HETATM    4  C   UNL     1     -11.468  14.819  71.012  1.00  0.00    -0.263 C  
BRANCH   4   5
HETATM    5  C   UNL     1     -10.709  15.029  69.720  1.00  0.00    -0.244 C  
HETATM    6  N   UNL     1     -10.975  14.185  68.642  1.00  0.00    -0.249 N  
HETATM    7  O   UNL     1      -9.861  15.922  69.634  1.00  0.00    -0.268 OA 
BRANCH   6   8
HETATM    8  C   UNL     1     -12.019  13.120  68.698  1.00  0.00    -0.284 C  
BRANCH   8   9
HETATM    9  C   UNL     1     -11.519  11.765  69.170  1.00  0.00    -0.358 A  
HETATM   10  C   UNL     1     -10.375  11.202  68.604  1.00  0.00    -0.219 A  
HETATM   11  C   UNL     1     -10.087   9.841  68.788  1.00  0.00    -0.187 A  
HETATM   12  C   UNL     1     -10.863   9.002  69.607  1.00  0.00    -0.196 A  
HETATM   13  C   UNL     1     -12.195  10.993  70.118  1.00  0.00    -0.424 A  
HETATM   14  C   UNL     1     -11.858   9.648  70.357  1.00  0.00    -0.219 A  
BRANCH  12  15
HETATM   15  C   UNL     1     -10.623   7.519  69.641  1.00  0.00    -0.243 A  
HETATM   16  C   UNL     1     -11.173   6.803  70.745  1.00  0.00    -0.352 A  
HETATM   17  C   UNL     1     -10.920   5.453  70.989  1.00  0.00    -0.120 A  
HETATM   18  C   UNL     1     -10.137   4.736  70.104  1.00  0.00    -0.310 A  
HETATM   19  C   UNL     1      -9.619   5.380  68.984  1.00  0.00    -0.191 A  
HETATM   20  C   UNL     1      -9.836   6.761  68.730  1.00  0.00    -0.143 A  
BRANCH  20  21
HETATM   21  C   UNL     1      -9.176   7.261  67.526  1.00  0.00    -0.130 A  
HETATM   22  N   UNL     1      -9.835   7.566  66.387  1.00  0.00    -0.426 NA 
HETATM   23  N   UNL     1      -8.816   7.888  65.584  1.00  0.00    -0.127 NA 
HETATM   24  H   UNL     1     -10.836   7.553  66.194  1.00  0.00     0.000 HD 
HETATM   25  N   UNL     1      -7.597   7.833  66.137  1.00  0.00    -0.085 NA 
HETATM   26  N   UNL     1      -7.815   7.396  67.372  1.00  0.00    -0.110 NA 
ENDBRANCH  20  21
ENDBRANCH  12  15
ENDBRANCH   8   9
ENDBRANCH   6   8
BRANCH   6  27
HETATM   27  C   UNL     1     -10.377  14.483  67.288  1.00  0.00    -0.260 C  
HETATM   28  C   UNL     1     -10.119  15.952  66.825  1.00  0.00    -0.271 C  
HETATM   29  O   UNL     1      -9.162  16.247  66.111  1.00  0.00    -0.297 OA 
HETATM   30  C   UNL     1     -10.962  13.597  66.144  1.00  0.00    -0.285 C  
HETATM   31  O   UNL     1     -11.028  16.891  67.139  1.00  0.00    -0.149 OA 
HETATM   32  C   UNL     1     -12.482  13.598  66.028  1.00  0.00    -0.477 C  
HETATM   33  C   UNL     1     -10.310  13.818  64.778  1.00  0.00    -0.422 C  
ENDBRANCH   6  27
ENDBRANCH   4   5
ENDBRANCH   3   4
ENDBRANCH   2   3
TORSDOF 8
ENDMDL
MODEL      122
REMARK 921   NORMALIZED FREE ENERGY PREDICTED BY IDOCK:   -5.47 KCAL/MOL
REMARK 922        TOTAL FREE ENERGY PREDICTED BY IDOCK:   -8.56 KCAL/MOL
REMARK 923 INTER-LIGAND FREE ENERGY PREDICTED BY IDOCK:   -7.38 KCAL/MOL
REMARK 924 INTRA-LIGAND FREE ENERGY PREDICTED BY IDOCK:   -1.18 KCAL/MOL
REMARK 927      BINDING AFFINITY PREDICTED BY RF-SCORE:    0.00 PKD
ROOT
HETATM    1  C   UNL     1      -9.705   3.117  72.080  1.00  0.00    -0.233 C  
HETATM    2  C   UNL     1      -9.706   4.528  71.527  1.00  0.00    -0.243 C  
ENDROOT
BRANCH   2   3
HETATM    3  C   UNL     1      -9.909   4.565  70.010  1.00  0.00    -0.296 C  
BRANCH   3   4
HETATM    4  C   UNL     1      -8.612   4.145  69.319  1.00  0.00    -0.109 C  
BRANCH   4   5
HETATM    5  C   UNL     1      -8.792   3.659  67.898  1.00  0.00    -0.117 C  
HETATM    6  N   UNL     1      -8.340   4.463  66.853  1.00  0.00    -0.102 N  
HETATM    7  O   UNL     1      -9.343   2.577  67.675  1.00  0.00    -0.187 OA 
BRANCH   6   8
HETATM    8  C   UNL     1      -7.637   5.758  67.086  1.00  0.00    -0.099 C  
BRANCH   8   9
HETATM    9  C   UNL     1      -8.493   6.842  67.720  1.00  0.00    -0.122 A  
HETATM   10  C   UNL     1      -8.019   7.560  68.817  1.00  0.00    -0.126 A  
HETATM   11  C   UNL     1      -8.899   8.321  69.602  1.00  0.00    -0.139 A  
HETATM   12  C   UNL     1     -10.260   8.477  69.287  1.00  0.00    -0.211 A  
HETATM   13  C   UNL     1      -9.795   7.125  67.298  1.00  0.00    -0.217 A  
HETATM   14  C   UNL     1     -10.654   7.950  68.048  1.00  0.00    -0.194 A  
BRANCH  12  15
HETATM   15  C   UNL     1     -11.201   9.155  70.243  1.00  0.00    -0.249 A  
HETATM   16  C   UNL     1     -11.679   8.376  71.337  1.00  0.00    -0.332 A  
HETATM   17  C   UNL     1     -12.659   8.819  72.226  1.00  0.00    -0.460 A  
HETATM   18  C   UNL     1     -13.177  10.094  72.089  1.00  0.00    -0.463 A  
HETATM   19  C   UNL     1     -12.704  10.910  71.065  1.00  0.00    -0.505 A  
HETATM   20  C   UNL     1     -11.729  10.471  70.129  1.00  0.00    -0.410 A  
BRANCH  20  21
HETATM   21  C   UNL     1     -11.393  11.459  69.106  1.00  0.00    -0.288 A  
HETATM   22  N   UNL     1     -10.585  12.517  69.329  1.00  0.00    -0.437 NA 
HETATM   23  N   UNL     1     -10.656  13.142  68.149  1.00  0.00    -0.238 NA 
HETATM   24  H   UNL     1     -10.063  12.769  70.168  1.00  0.00     0.000 HD 
HETATM   25  N   UNL     1     -11.413  12.548  67.218  1.00  0.00    -0.331 NA 
HETATM   26  N   UNL     1     -11.920  11.487  67.834  1.00  0.00    -0.641 NA 
ENDBRANCH  20  21
ENDBRANCH  12  15
ENDBRANCH   8   9
ENDBRANCH   6   8
BRANCH   6  27
HETATM   27  C   UNL     1      -8.333   3.928  65.440  1.00  0.00    -0.105 C  
HETATM   28  C   UNL     1      -7.527   4.645  64.311  1.00  0.00    -0.071 C  
HETATM   29  O   UNL     1      -6.991   4.016  63.400  1.00  0.00    -0.042 OA 
HETATM   30  C   UNL     1      -9.734   3.445  64.953  1.00  0.00    -0.135 C  
HETATM   31  O   UNL     1      -7.511   5.988  64.289  1.00  0.00    -0.064 OA 
HETATM   32  C   UNL     1     -10.861   4.462  65.093  1.00  0.00    -0.100 C  
HETATM   33  C   UNL     1      -9.735   2.818  63.558  1.00  0.00    -0.111 C  
ENDBRANCH   6  27
ENDBRANCH   4   5
ENDBRANCH   3   4
ENDBRANCH   2   3
TORSDOF 8
ENDMDL
MODEL      123
REMARK 921   NORMALIZED FREE ENERGY PREDICTED BY IDOCK:   -5.46 KCAL/MOL
REMARK 922        TOTAL FREE ENERGY PREDICTED BY IDOCK:   -8.54 KCAL/MOL
REMARK 923 INTER-LIGAND FREE ENERGY PREDICTED BY IDOCK:   -8.66 KCAL/MOL
REMARK 924 INTRA-LIGAND FREE ENERGY PREDICTED BY IDOCK:    0.12 KCAL/MOL
REMARK 927      BINDING AFFINITY PREDICTED BY RF-SCORE:    0.00 PKD
ROOT
HETATM    1  C   UNL     1     -13.613   9.079  71.840  1.00  0.00    -0.486 C  
HETATM    2  C   UNL     1     -13.299  10.191  70.860  1.00  0.00    -0.272 C  
ENDROOT
BRANCH   2   3
HETATM    3  C   UNL     1     -11.795  10.413  70.683  1.00  0.00    -0.445 C  
BRANCH   3   4
HETATM    4  C   UNL     1     -11.559  11.305  69.465  1.00  0.00    -0.398 C  
BRANCH   4   5
HETATM    5  C   UNL     1     -10.648  10.702  68.418  1.00  0.00    -0.199 C  
HETATM    6  N   UNL     1     -10.272  11.484  67.327  1.00  0.00    -0.199 N  
HETATM    7  O   UNL     1     -10.261   9.534  68.527  1.00  0.00    -0.185 OA 
BRANCH   6   8
HETATM    8  C   UNL     1     -10.690  12.909  67.182  1.00  0.00    -0.253 C  
BRANCH   8   9
HETATM    9  C   UNL     1      -9.608  13.924  67.509  1.00  0.00    -0.229 A  
HETATM   10  C   UNL     1      -9.177  14.092  68.826  1.00  0.00    -0.080 A  
HETATM   11  C   UNL     1      -8.431  15.223  69.190  1.00  0.00    -0.234 A  
HETATM   12  C   UNL     1      -8.004  16.187  68.259  1.00  0.00    -0.152 A  
HETATM   13  C   UNL     1      -9.048  14.775  66.552  1.00  0.00    -0.291 A  
HETATM   14  C   UNL     1      -8.237  15.867  66.913  1.00  0.00    -0.283 A  
BRANCH  12  15
HETATM   15  C   UNL     1      -7.358  17.466  68.713  1.00  0.00    -0.257 A  
HETATM   16  C   UNL     1      -6.227  17.344  69.574  1.00  0.00    -0.249 A  
HETATM   17  C   UNL     1      -5.607  18.434  70.186  1.00  0.00    -0.243 A  
HETATM   18  C   UNL     1      -6.063  19.713  69.925  1.00  0.00    -0.342 A  
HETATM   19  C   UNL     1      -7.134  19.884  69.052  1.00  0.00    -0.306 A  
HETATM   20  C   UNL     1      -7.801  18.789  68.439  1.00  0.00    -0.351 A  
BRANCH  20  21
HETATM   21  C   UNL     1      -8.925  19.172  67.587  1.00  0.00    -0.298 A  
HETATM   22  N   UNL     1      -8.781  19.820  66.412  1.00  0.00    -0.358 NA 
HETATM   23  N   UNL     1     -10.060  20.009  66.070  1.00  0.00    -0.482 NA 
HETATM   24  H   UNL     1      -7.930  20.091  65.920  1.00  0.00     0.000 HD 
HETATM   25  N   UNL     1     -10.970  19.511  66.917  1.00  0.00    -0.412 NA 
HETATM   26  N   UNL     1     -10.253  19.005  67.912  1.00  0.00    -0.380 NA 
ENDBRANCH  20  21
ENDBRANCH  12  15
ENDBRANCH   8   9
ENDBRANCH   6   8
BRANCH   6  27
HETATM   27  C   UNL     1      -9.220  10.981  66.368  1.00  0.00    -0.175 C  
HETATM   28  C   UNL     1      -9.432   9.666  65.553  1.00  0.00    -0.266 C  
HETATM   29  O   UNL     1      -8.989   9.532  64.413  1.00  0.00    -0.224 OA 
HETATM   30  C   UNL     1      -7.766  11.105  66.922  1.00  0.00    -0.148 C  
HETATM   31  O   UNL     1     -10.029   8.626  66.159  1.00  0.00    -0.260 OA 
HETATM   32  C   UNL     1      -7.533  10.476  68.291  1.00  0.00    -0.090 C  
HETATM   33  C   UNL     1      -6.676  10.685  65.935  1.00  0.00    -0.116 C  
ENDBRANCH   6  27
ENDBRANCH   4   5
ENDBRANCH   3   4
ENDBRANCH   2   3
TORSDOF 8
ENDMDL
MODEL      124
REMARK 921   NORMALIZED FREE ENERGY PREDICTED BY IDOCK:   -5.46 KCAL/MOL
REMARK 922        TOTAL FREE ENERGY PREDICTED BY IDOCK:   -8.54 KCAL/MOL
REMARK 923 INTER-LIGAND FREE ENERGY PREDICTED BY IDOCK:   -7.46 KCAL/MOL
REMARK 924 INTRA-LIGAND FREE ENERGY PREDICTED BY IDOCK:   -1.08 KCAL/MOL
REMARK 927      BINDING AFFINITY PREDICTED BY RF-SCORE:    0.00 PKD
ROOT
HETATM    1  C   UNL     1      -9.491   6.803  74.138  1.00  0.00    -0.268 C  
HETATM    2  C   UNL     1      -8.768   8.082  73.767  1.00  0.00    -0.329 C  
ENDROOT
BRANCH   2   3
HETATM    3  C   UNL     1      -8.365   8.124  72.292  1.00  0.00    -0.214 C  
BRANCH   3   4
HETATM    4  C   UNL     1      -9.611   7.933  71.425  1.00  0.00    -0.187 C  
BRANCH   4   5
HETATM    5  C   UNL     1      -9.538   6.752  70.482  1.00  0.00    -0.169 C  
HETATM    6  N   UNL     1      -8.937   6.927  69.236  1.00  0.00    -0.138 N  
HETATM    7  O   UNL     1     -10.017   5.662  70.810  1.00  0.00    -0.178 OA 
BRANCH   6   8
HETATM    8  C   UNL     1      -8.315   8.218  68.822  1.00  0.00    -0.124 C  
BRANCH   8   9
HETATM    9  C   UNL     1      -9.205   9.108  67.969  1.00  0.00    -0.142 A  
HETATM   10  C   UNL     1      -8.796   9.495  66.693  1.00  0.00    -0.150 A  
HETATM   11  C   UNL     1      -9.436  10.554  66.032  1.00  0.00    -0.227 A  
HETATM   12  C   UNL     1     -10.559  11.214  66.562  1.00  0.00    -0.314 A  
HETATM   13  C   UNL     1     -10.416   9.634  68.427  1.00  0.00    -0.258 A  
HETATM   14  C   UNL     1     -11.099  10.644  67.725  1.00  0.00    -0.385 A  
BRANCH  12  15
HETATM   15  C   UNL     1     -11.108  12.450  65.906  1.00  0.00    -0.349 A  
HETATM   16  C   UNL     1     -12.116  12.259  64.915  1.00  0.00    -0.422 A  
HETATM   17  C   UNL     1     -12.622  13.291  64.124  1.00  0.00    -0.231 A  
HETATM   18  C   UNL     1     -12.175  14.584  64.323  1.00  0.00    -0.441 A  
HETATM   19  C   UNL     1     -11.227  14.827  65.314  1.00  0.00    -0.366 A  
HETATM   20  C   UNL     1     -10.675  13.789  66.111  1.00  0.00    -0.283 A  
BRANCH  20  21
HETATM   21  C   UNL     1      -9.666  14.240  67.068  1.00  0.00    -0.253 A  
HETATM   22  N   UNL     1      -8.347  14.296  66.788  1.00  0.00    -0.412 NA 
HETATM   23  N   UNL     1      -7.854  14.678  67.971  1.00  0.00    -0.122 NA 
HETATM   24  H   UNL     1      -7.860  14.101  65.914  1.00  0.00     0.000 HD 
HETATM   25  N   UNL     1      -8.755  14.886  68.940  1.00  0.00    -0.180 NA 
HETATM   26  N   UNL     1      -9.918  14.571  68.381  1.00  0.00    -0.234 NA 
ENDBRANCH  20  21
ENDBRANCH  12  15
ENDBRANCH   8   9
ENDBRANCH   6   8
BRANCH   6  27
HETATM   27  C   UNL     1      -8.679   5.731  68.350  1.00  0.00    -0.111 C  
HETATM   28  C   UNL     1      -7.391   5.640  67.473  1.00  0.00    -0.077 C  
HETATM   29  O   UNL     1      -6.836   4.566  67.248  1.00  0.00    -0.053 OA 
HETATM   30  C   UNL     1      -9.950   5.239  67.589  1.00  0.00    -0.202 C  
HETATM   31  O   UNL     1      -6.944   6.756  66.873  1.00  0.00    -0.066 OA 
HETATM   32  C   UNL     1     -10.684   6.304  66.784  1.00  0.00    -0.364 C  
HETATM   33  C   UNL     1      -9.734   3.975  66.754  1.00  0.00    -0.216 C  
ENDBRANCH   6  27
ENDBRANCH   4   5
ENDBRANCH   3   4
ENDBRANCH   2   3
TORSDOF 8
ENDMDL
MODEL      125
REMARK 921   NORMALIZED FREE ENERGY PREDICTED BY IDOCK:   -5.46 KCAL/MOL
REMARK 922        TOTAL FREE ENERGY PREDICTED BY IDOCK:   -8.53 KCAL/MOL
REMARK 923 INTER-LIGAND FREE ENERGY PREDICTED BY IDOCK:   -7.26 KCAL/MOL
REMARK 924 INTRA-LIGAND FREE ENERGY PREDICTED BY IDOCK:   -1.27 KCAL/MOL
REMARK 927      BINDING AFFINITY PREDICTED BY RF-SCORE:    0.00 PKD
ROOT
HETATM    1  C   UNL     1      -9.215   7.289  66.584  1.00  0.00    -0.193 C  
HETATM    2  C   UNL     1     -10.662   7.322  67.032  1.00  0.00    -0.406 C  
ENDROOT
BRANCH   2   3
HETATM    3  C   UNL     1     -11.035   6.122  67.904  1.00  0.00    -0.399 C  
BRANCH   3   4
HETATM    4  C   UNL     1     -11.072   6.558  69.369  1.00  0.00    -0.407 C  
BRANCH   4   5
HETATM    5  C   UNL     1      -9.793   6.289  70.132  1.00  0.00    -0.170 C  
HETATM    6  N   UNL     1      -9.389   7.202  71.104  1.00  0.00    -0.157 N  
HETATM    7  O   UNL     1      -9.118   5.286  69.881  1.00  0.00    -0.125 OA 
BRANCH   6   8
HETATM    8  C   UNL     1     -10.198   8.405  71.459  1.00  0.00    -0.228 C  
BRANCH   8   9
HETATM    9  C   UNL     1     -10.337   9.428  70.345  1.00  0.00    -0.318 A  
HETATM   10  C   UNL     1      -9.206   9.903  69.680  1.00  0.00    -0.246 A  
HETATM   11  C   UNL     1      -9.279  11.060  68.890  1.00  0.00    -0.139 A  
HETATM   12  C   UNL     1     -10.484  11.745  68.651  1.00  0.00    -0.242 A  
HETATM   13  C   UNL     1     -11.563   9.992  69.979  1.00  0.00    -0.279 A  
HETATM   14  C   UNL     1     -11.641  11.108  69.125  1.00  0.00    -0.393 A  
BRANCH  12  15
HETATM   15  C   UNL     1     -10.491  13.071  67.944  1.00  0.00    -0.234 A  
HETATM   16  C   UNL     1     -10.648  14.232  68.756  1.00  0.00    -0.255 A  
HETATM   17  C   UNL     1     -10.812  15.517  68.237  1.00  0.00    -0.292 A  
HETATM   18  C   UNL     1     -10.776  15.708  66.868  1.00  0.00    -0.307 A  
HETATM   19  C   UNL     1     -10.574  14.610  66.036  1.00  0.00    -0.314 A  
HETATM   20  C   UNL     1     -10.436  13.288  66.539  1.00  0.00    -0.282 A  
BRANCH  20  21
HETATM   21  C   UNL     1     -10.272  12.267  65.506  1.00  0.00    -0.269 A  
HETATM   22  N   UNL     1     -11.296  11.780  64.773  1.00  0.00    -0.284 NA 
HETATM   23  N   UNL     1     -10.667  10.845  64.052  1.00  0.00    -0.272 NA 
HETATM   24  H   UNL     1     -12.279  12.051  64.770  1.00  0.00     0.000 HD 
HETATM   25  N   UNL     1      -9.348  10.737  64.259  1.00  0.00    -0.229 NA 
HETATM   26  N   UNL     1      -9.092  11.620  65.217  1.00  0.00    -0.034 NA 
ENDBRANCH  20  21
ENDBRANCH  12  15
ENDBRANCH   8   9
ENDBRANCH   6   8
BRANCH   6  27
HETATM   27  C   UNL     1      -8.226   6.872  72.010  1.00  0.00    -0.099 C  
HETATM   28  C   UNL     1      -8.161   7.419  73.471  1.00  0.00    -0.130 C  
HETATM   29  O   UNL     1      -7.658   6.767  74.384  1.00  0.00    -0.100 OA 
HETATM   30  C   UNL     1      -6.843   6.938  71.291  1.00  0.00    -0.061 C  
HETATM   31  O   UNL     1      -8.577   8.676  73.703  1.00  0.00    -0.319 OA 
HETATM   32  C   UNL     1      -6.547   8.242  70.559  1.00  0.00    -0.036 C  
HETATM   33  C   UNL     1      -5.658   6.521  72.164  1.00  0.00    -0.037 C  
ENDBRANCH   6  27
ENDBRANCH   4   5
ENDBRANCH   3   4
ENDBRANCH   2   3
TORSDOF 8
ENDMDL
MODEL      126
REMARK 921   NORMALIZED FREE ENERGY PREDICTED BY IDOCK:   -5.42 KCAL/MOL
REMARK 922        TOTAL FREE ENERGY PREDICTED BY IDOCK:   -8.48 KCAL/MOL
REMARK 923 INTER-LIGAND FREE ENERGY PREDICTED BY IDOCK:   -8.48 KCAL/MOL
REMARK 924 INTRA-LIGAND FREE ENERGY PREDICTED BY IDOCK:    0.00 KCAL/MOL
REMARK 927      BINDING AFFINITY PREDICTED BY RF-SCORE:    0.00 PKD
ROOT
HETATM    1  C   UNL     1     -14.171  15.089  72.203  1.00  0.00    -0.636 C  
HETATM    2  C   UNL     1     -13.213  13.916  72.162  1.00  0.00    -0.536 C  
ENDROOT
BRANCH   2   3
HETATM    3  C   UNL     1     -12.636  13.677  70.764  1.00  0.00    -0.397 C  
BRANCH   3   4
HETATM    4  C   UNL     1     -11.443  14.607  70.548  1.00  0.00    -0.273 C  
BRANCH   4   5
HETATM    5  C   UNL     1     -11.287  15.100  69.126  1.00  0.00    -0.298 C  
HETATM    6  N   UNL     1     -10.233  14.608  68.358  1.00  0.00    -0.229 N  
HETATM    7  O   UNL     1     -12.073  15.935  68.667  1.00  0.00    -0.252 OA 
BRANCH   6   8
HETATM    8  C   UNL     1      -9.288  13.572  68.867  1.00  0.00     0.193 C  
BRANCH   8   9
HETATM    9  C   UNL     1      -9.563  12.162  68.373  1.00  0.00    -0.186 A  
HETATM   10  C   UNL     1     -10.819  11.584  68.562  1.00  0.00    -0.254 A  
HETATM   11  C   UNL     1     -10.994  10.200  68.409  1.00  0.00    -0.293 A  
HETATM   12  C   UNL     1      -9.964   9.344  67.979  1.00  0.00    -0.209 A  
HETATM   13  C   UNL     1      -8.584  11.358  67.782  1.00  0.00    -0.129 A  
HETATM   14  C   UNL     1      -8.788   9.984  67.559  1.00  0.00    -0.130 A  
BRANCH  12  15
HETATM   15  C   UNL     1     -10.144   7.852  67.993  1.00  0.00    -0.235 A  
HETATM   16  C   UNL     1      -9.900   7.163  66.769  1.00  0.00    -0.272 A  
HETATM   17  C   UNL     1     -10.156   5.804  66.588  1.00  0.00    -0.235 A  
HETATM   18  C   UNL     1     -10.626   5.052  67.648  1.00  0.00     0.008 A  
HETATM   19  C   UNL     1     -10.832   5.671  68.878  1.00  0.00    -0.229 A  
HETATM   20  C   UNL     1     -10.608   7.060  69.079  1.00  0.00    -0.234 A  
BRANCH  20  21
HETATM   21  C   UNL     1     -10.919   7.528  70.428  1.00  0.00    -0.251 A  
HETATM   22  N   UNL     1     -12.178   7.663  70.897  1.00  0.00    -0.489 NA 
HETATM   23  N   UNL     1     -11.942   8.183  72.106  1.00  0.00    -0.337 NA 
HETATM   24  H   UNL     1     -13.065   7.431  70.451  1.00  0.00     0.000 HD 
HETATM   25  N   UNL     1     -10.653   8.353  72.428  1.00  0.00    -0.337 NA 
HETATM   26  N   UNL     1      -9.990   7.970  71.343  1.00  0.00    -0.174 NA 
ENDBRANCH  20  21
ENDBRANCH  12  15
ENDBRANCH   8   9
ENDBRANCH   6   8
BRANCH   6  27
HETATM   27  C   UNL     1     -10.160  14.932  66.885  1.00  0.00    -0.242 C  
HETATM   28  C   UNL     1     -10.126  16.411  66.385  1.00  0.00    -0.316 C  
HETATM   29  O   UNL     1      -9.491  16.741  65.385  1.00  0.00    -0.408 OA 
HETATM   30  C   UNL     1     -11.081  14.031  66.005  1.00  0.00    -0.303 C  
HETATM   31  O   UNL     1     -10.894  17.317  67.012  1.00  0.00    -0.202 OA 
HETATM   32  C   UNL     1     -12.545  13.980  66.430  1.00  0.00    -0.287 C  
HETATM   33  C   UNL     1     -10.958  14.281  64.501  1.00  0.00    -0.311 C  
ENDBRANCH   6  27
ENDBRANCH   4   5
ENDBRANCH   3   4
ENDBRANCH   2   3
TORSDOF 8
ENDMDL
MODEL      127
REMARK 921   NORMALIZED FREE ENERGY PREDICTED BY IDOCK:   -5.41 KCAL/MOL
REMARK 922        TOTAL FREE ENERGY PREDICTED BY IDOCK:   -8.47 KCAL/MOL
REMARK 923 INTER-LIGAND FREE ENERGY PREDICTED BY IDOCK:   -8.37 KCAL/MOL
REMARK 924 INTRA-LIGAND FREE ENERGY PREDICTED BY IDOCK:   -0.10 KCAL/MOL
REMARK 927      BINDING AFFINITY PREDICTED BY RF-SCORE:    0.00 PKD
ROOT
HETATM    1  C   UNL     1     -13.482  16.332  73.256  1.00  0.00    -0.274 C  
HETATM    2  C   UNL     1     -13.837  15.435  72.087  1.00  0.00    -0.636 C  
ENDROOT
BRANCH   2   3
HETATM    3  C   UNL     1     -12.602  14.873  71.380  1.00  0.00    -0.402 C  
BRANCH   3   4
HETATM    4  C   UNL     1     -12.878  14.786  69.879  1.00  0.00    -0.023 C  
BRANCH   4   5
HETATM    5  C   UNL     1     -11.851  15.485  69.015  1.00  0.00    -0.354 C  
HETATM    6  N   UNL     1     -11.559  14.953  67.760  1.00  0.00    -0.338 N  
HETATM    7  O   UNL     1     -11.276  16.497  69.427  1.00  0.00    -0.286 OA 
BRANCH   6   8
HETATM    8  C   UNL     1     -12.261  13.754  67.216  1.00  0.00    -0.278 C  
BRANCH   8   9
HETATM    9  C   UNL     1     -11.730  12.423  67.720  1.00  0.00    -0.413 A  
HETATM   10  C   UNL     1     -11.583  12.198  69.089  1.00  0.00    -0.374 A  
HETATM   11  C   UNL     1     -10.808  11.124  69.554  1.00  0.00    -0.241 A  
HETATM   12  C   UNL     1     -10.222  10.179  68.694  1.00  0.00    -0.193 A  
HETATM   13  C   UNL     1     -11.303  11.402  66.867  1.00  0.00    -0.284 A  
HETATM   14  C   UNL     1     -10.590  10.286  67.344  1.00  0.00    -0.324 A  
BRANCH  12  15
HETATM   15  C   UNL     1      -9.262   9.148  69.218  1.00  0.00    -0.146 A  
HETATM   16  C   UNL     1      -9.101   9.081  70.633  1.00  0.00    -0.280 A  
HETATM   17  C   UNL     1      -8.150   8.276  71.261  1.00  0.00    -0.138 A  
HETATM   18  C   UNL     1      -7.341   7.455  70.497  1.00  0.00    -0.076 A  
HETATM   19  C   UNL     1      -7.497   7.450  69.113  1.00  0.00    -0.099 A  
HETATM   20  C   UNL     1      -8.437   8.282  68.449  1.00  0.00    -0.129 A  
BRANCH  20  21
HETATM   21  C   UNL     1      -8.421   8.161  66.993  1.00  0.00    -0.120 A  
HETATM   22  N   UNL     1      -8.968   7.122  66.326  1.00  0.00    -0.157 NA 
HETATM   23  N   UNL     1      -8.631   7.424  65.068  1.00  0.00     0.023 NA 
HETATM   24  H   UNL     1      -9.494   6.325  66.685  1.00  0.00     0.000 HD 
HETATM   25  N   UNL     1      -7.952   8.567  64.904  1.00  0.00    -0.129 NA 
HETATM   26  N   UNL     1      -7.780   9.028  66.136  1.00  0.00    -0.098 NA 
ENDBRANCH  20  21
ENDBRANCH  12  15
ENDBRANCH   8   9
ENDBRANCH   6   8
BRANCH   6  27
HETATM   27  C   UNL     1     -10.684  15.724  66.801  1.00  0.00    -0.293 C  
HETATM   28  C   UNL     1     -11.028  15.801  65.279  1.00  0.00    -0.344 C  
HETATM   29  O   UNL     1     -10.786  16.805  64.611  1.00  0.00    -0.835 OA 
HETATM   30  C   UNL     1      -9.158  15.521  67.053  1.00  0.00    -0.250 C  
HETATM   31  O   UNL     1     -11.508  14.701  64.675  1.00  0.00    -0.393 OA 
HETATM   32  C   UNL     1      -8.690  14.070  67.096  1.00  0.00    -0.234 C  
HETATM   33  C   UNL     1      -8.252  16.361  66.151  1.00  0.00    -0.250 C  
ENDBRANCH   6  27
ENDBRANCH   4   5
ENDBRANCH   3   4
ENDBRANCH   2   3
TORSDOF 8
ENDMDL
MODEL      128
REMARK 921   NORMALIZED FREE ENERGY PREDICTED BY IDOCK:   -5.40 KCAL/MOL
REMARK 922        TOTAL FREE ENERGY PREDICTED BY IDOCK:   -8.45 KCAL/MOL
REMARK 923 INTER-LIGAND FREE ENERGY PREDICTED BY IDOCK:   -7.03 KCAL/MOL
REMARK 924 INTRA-LIGAND FREE ENERGY PREDICTED BY IDOCK:   -1.42 KCAL/MOL
REMARK 927      BINDING AFFINITY PREDICTED BY RF-SCORE:    0.00 PKD
ROOT
HETATM    1  C   UNL     1      -6.774   8.445  65.090  1.00  0.00    -0.063 C  
HETATM    2  C   UNL     1      -5.921   9.301  66.005  1.00  0.00    -0.055 C  
ENDROOT
BRANCH   2   3
HETATM    3  C   UNL     1      -6.281   9.124  67.482  1.00  0.00    -0.058 C  
BRANCH   3   4
HETATM    4  C   UNL     1      -6.834   7.715  67.698  1.00  0.00    -0.069 C  
BRANCH   4   5
HETATM    5  C   UNL     1      -7.296   7.437  69.112  1.00  0.00    -0.090 C  
HETATM    6  N   UNL     1      -8.639   7.132  69.329  1.00  0.00    -0.136 N  
HETATM    7  O   UNL     1      -6.497   7.497  70.051  1.00  0.00    -0.034 OA 
BRANCH   6   8
HETATM    8  C   UNL     1      -9.624   7.013  68.215  1.00  0.00    -0.134 C  
BRANCH   8   9
HETATM    9  C   UNL     1     -10.190   8.336  67.724  1.00  0.00    -0.282 A  
HETATM   10  C   UNL     1      -9.983   8.743  66.406  1.00  0.00    -0.346 A  
HETATM   11  C   UNL     1     -10.212  10.076  66.030  1.00  0.00    -0.277 A  
HETATM   12  C   UNL     1     -10.736  11.037  66.913  1.00  0.00    -0.325 A  
HETATM   13  C   UNL     1     -10.870   9.228  68.559  1.00  0.00    -0.119 A  
HETATM   14  C   UNL     1     -11.166  10.542  68.154  1.00  0.00    -0.357 A  
BRANCH  12  15
HETATM   15  C   UNL     1     -10.805  12.487  66.523  1.00  0.00    -0.287 A  
HETATM   16  C   UNL     1     -11.925  12.890  65.738  1.00  0.00    -0.496 A  
HETATM   17  C   UNL     1     -12.057  14.164  65.185  1.00  0.00    -0.416 A  
HETATM   18  C   UNL     1     -11.090  15.119  65.435  1.00  0.00    -0.371 A  
HETATM   19  C   UNL     1     -10.002  14.787  66.239  1.00  0.00    -0.308 A  
HETATM   20  C   UNL     1      -9.829  13.488  66.788  1.00  0.00    -0.267 A  
BRANCH  20  21
HETATM   21  C   UNL     1      -8.605  13.325  67.569  1.00  0.00    -0.200 A  
HETATM   22  N   UNL     1      -8.413  13.895  68.778  1.00  0.00    -0.337 NA 
HETATM   23  N   UNL     1      -7.152  13.527  69.032  1.00  0.00    -0.097 NA 
HETATM   24  H   UNL     1      -9.053  14.453  69.343  1.00  0.00     0.000 HD 
HETATM   25  N   UNL     1      -6.568  12.763  68.100  1.00  0.00    -0.077 NA 
HETATM   26  N   UNL     1      -7.479  12.658  67.141  1.00  0.00    -0.101 NA 
ENDBRANCH  20  21
ENDBRANCH  12  15
ENDBRANCH   8   9
ENDBRANCH   6   8
BRANCH   6  27
HETATM   27  C   UNL     1      -9.093   6.666  70.692  1.00  0.00    -0.155 C  
HETATM   28  C   UNL     1     -10.318   5.711  70.852  1.00  0.00    -0.238 C  
HETATM   29  O   UNL     1     -10.364   4.861  71.740  1.00  0.00    -0.201 OA 
HETATM   30  C   UNL     1      -9.081   7.797  71.769  1.00  0.00    -0.171 C  
HETATM   31  O   UNL     1     -11.384   5.897  70.055  1.00  0.00    -0.352 OA 
HETATM   32  C   UNL     1      -9.843   9.063  71.396  1.00  0.00    -0.381 C  
HETATM   33  C   UNL     1      -9.453   7.330  73.177  1.00  0.00    -0.228 C  
ENDBRANCH   6  27
ENDBRANCH   4   5
ENDBRANCH   3   4
ENDBRANCH   2   3
TORSDOF 8
ENDMDL
MODEL      129
REMARK 921   NORMALIZED FREE ENERGY PREDICTED BY IDOCK:   -5.40 KCAL/MOL
REMARK 922        TOTAL FREE ENERGY PREDICTED BY IDOCK:   -8.45 KCAL/MOL
REMARK 923 INTER-LIGAND FREE ENERGY PREDICTED BY IDOCK:   -8.55 KCAL/MOL
REMARK 924 INTRA-LIGAND FREE ENERGY PREDICTED BY IDOCK:    0.10 KCAL/MOL
REMARK 927      BINDING AFFINITY PREDICTED BY RF-SCORE:    0.00 PKD
ROOT
HETATM    1  C   UNL     1      -6.001  10.989  66.522  1.00  0.00    -0.131 C  
HETATM    2  C   UNL     1      -6.201  11.138  68.016  1.00  0.00    -0.049 C  
ENDROOT
BRANCH   2   3
HETATM    3  C   UNL     1      -7.605  11.631  68.375  1.00  0.00    -0.126 C  
BRANCH   3   4
HETATM    4  C   UNL     1      -8.218  12.328  67.160  1.00  0.00    -0.179 C  
BRANCH   4   5
HETATM    5  C   UNL     1      -8.384  13.824  67.318  1.00  0.00    -0.174 C  
HETATM    6  N   UNL     1      -9.587  14.409  66.927  1.00  0.00    -0.246 N  
HETATM    7  O   UNL     1      -7.461  14.508  67.771  1.00  0.00    -0.134 OA 
BRANCH   6   8
HETATM    8  C   UNL     1     -10.736  13.608  66.412  1.00  0.00    -0.281 C  
BRANCH   8   9
HETATM    9  C   UNL     1     -11.098  12.399  67.257  1.00  0.00    -0.329 A  
HETATM   10  C   UNL     1     -11.488  12.562  68.587  1.00  0.00    -0.348 A  
HETATM   11  C   UNL     1     -11.512  11.463  69.460  1.00  0.00    -0.381 A  
HETATM   12  C   UNL     1     -11.239  10.149  69.039  1.00  0.00    -0.223 A  
HETATM   13  C   UNL     1     -10.995  11.086  66.789  1.00  0.00    -0.279 A  
HETATM   14  C   UNL     1     -11.094   9.980  67.654  1.00  0.00    -0.222 A  
BRANCH  12  15
HETATM   15  C   UNL     1     -11.107   9.032  70.035  1.00  0.00    -0.197 A  
HETATM   16  C   UNL     1     -11.337   9.359  71.404  1.00  0.00    -0.451 A  
HETATM   17  C   UNL     1     -11.119   8.468  72.455  1.00  0.00    -0.397 A  
HETATM   18  C   UNL     1     -10.704   7.178  72.179  1.00  0.00    -0.245 A  
HETATM   19  C   UNL     1     -10.514   6.797  70.853  1.00  0.00    -0.239 A  
HETATM   20  C   UNL     1     -10.700   7.695  69.768  1.00  0.00    -0.243 A  
BRANCH  20  21
HETATM   21  C   UNL     1     -10.413   7.118  68.456  1.00  0.00    -0.204 A  
HETATM   22  N   UNL     1     -11.344   6.506  67.693  1.00  0.00    -0.702 NA 
HETATM   23  N   UNL     1     -10.594   6.093  66.665  1.00  0.00    -0.248 NA 
HETATM   24  H   UNL     1     -12.344   6.391  67.855  1.00  0.00     0.000 HD 
HETATM   25  N   UNL     1      -9.296   6.420  66.721  1.00  0.00    -0.143 NA 
HETATM   26  N   UNL     1      -9.163   7.046  67.883  1.00  0.00    -0.126 NA 
ENDBRANCH  20  21
ENDBRANCH  12  15
ENDBRANCH   8   9
ENDBRANCH   6   8
BRANCH   6  27
HETATM   27  C   UNL     1      -9.856  15.861  67.244  1.00  0.00    -0.234 C  
HETATM   28  C   UNL     1     -10.867  16.269  68.362  1.00  0.00    -0.334 C  
HETATM   29  O   UNL     1     -10.695  17.270  69.056  1.00  0.00    -0.292 OA 
HETATM   30  C   UNL     1      -9.984  16.758  65.974  1.00  0.00    -0.334 C  
HETATM   31  O   UNL     1     -11.998  15.557  68.493  1.00  0.00    -0.319 OA 
HETATM   32  C   UNL     1     -10.993  16.281  64.935  1.00  0.00    -0.321 C  
HETATM   33  C   UNL     1     -10.169  18.248  66.271  1.00  0.00    -0.414 C  
ENDBRANCH   6  27
ENDBRANCH   4   5
ENDBRANCH   3   4
ENDBRANCH   2   3
TORSDOF 8
ENDMDL
MODEL      130
REMARK 921   NORMALIZED FREE ENERGY PREDICTED BY IDOCK:   -5.40 KCAL/MOL
REMARK 922        TOTAL FREE ENERGY PREDICTED BY IDOCK:   -8.44 KCAL/MOL
REMARK 923 INTER-LIGAND FREE ENERGY PREDICTED BY IDOCK:   -7.44 KCAL/MOL
REMARK 924 INTRA-LIGAND FREE ENERGY PREDICTED BY IDOCK:   -1.00 KCAL/MOL
REMARK 927      BINDING AFFINITY PREDICTED BY RF-SCORE:    0.00 PKD
ROOT
HETATM    1  C   UNL     1      -9.119   7.835  71.220  1.00  0.00    -0.153 C  
HETATM    2  C   UNL     1     -10.397   7.037  71.384  1.00  0.00    -0.211 C  
ENDROOT
BRANCH   2   3
HETATM    3  C   UNL     1     -10.251   5.589  70.909  1.00  0.00    -0.293 C  
BRANCH   3   4
HETATM    4  C   UNL     1      -8.902   5.425  70.208  1.00  0.00    -0.143 C  
BRANCH   4   5
HETATM    5  C   UNL     1      -8.960   4.623  68.926  1.00  0.00    -0.108 C  
HETATM    6  N   UNL     1      -8.333   5.132  67.789  1.00  0.00    -0.105 N  
HETATM    7  O   UNL     1      -9.566   3.548  68.890  1.00  0.00    -0.165 OA 
BRANCH   6   8
HETATM    8  C   UNL     1      -7.561   6.409  67.805  1.00  0.00    -0.102 C  
BRANCH   8   9
HETATM    9  C   UNL     1      -8.402   7.662  67.628  1.00  0.00    -0.118 A  
HETATM   10  C   UNL     1      -9.759   7.561  67.322  1.00  0.00    -0.217 A  
HETATM   11  C   UNL     1     -10.465   8.676  66.845  1.00  0.00    -0.329 A  
HETATM   12  C   UNL     1      -9.887   9.953  66.735  1.00  0.00    -0.256 A  
HETATM   13  C   UNL     1      -7.866   8.952  67.689  1.00  0.00    -0.101 A  
HETATM   14  C   UNL     1      -8.601  10.080  67.281  1.00  0.00    -0.125 A  
BRANCH  12  15
HETATM   15  C   UNL     1     -10.623  11.077  66.061  1.00  0.00    -0.275 A  
HETATM   16  C   UNL     1     -10.441  11.212  64.653  1.00  0.00    -0.400 A  
HETATM   17  C   UNL     1     -10.944  12.282  63.912  1.00  0.00    -0.464 A  
HETATM   18  C   UNL     1     -11.701  13.251  64.543  1.00  0.00    -0.420 A  
HETATM   19  C   UNL     1     -11.947  13.135  65.908  1.00  0.00    -0.479 A  
HETATM   20  C   UNL     1     -11.421  12.072  66.690  1.00  0.00    -0.411 A  
BRANCH  20  21
HETATM   21  C   UNL     1     -11.758  12.148  68.110  1.00  0.00    -0.341 A  
HETATM   22  N   UNL     1     -11.533  13.240  68.871  1.00  0.00    -0.277 NA 
HETATM   23  N   UNL     1     -11.922  12.796  70.071  1.00  0.00    -0.335 NA 
HETATM   24  H   UNL     1     -11.166  14.154  68.604  1.00  0.00     0.000 HD 
HETATM   25  N   UNL     1     -12.389  11.542  70.106  1.00  0.00    -0.271 NA 
HETATM   26  N   UNL     1     -12.253  11.105  68.860  1.00  0.00    -0.517 NA 
ENDBRANCH  20  21
ENDBRANCH  12  15
ENDBRANCH   8   9
ENDBRANCH   6   8
BRANCH   6  27
HETATM   27  C   UNL     1      -8.210   4.276  66.551  1.00  0.00    -0.102 C  
HETATM   28  C   UNL     1      -7.239   4.669  65.393  1.00  0.00    -0.068 C  
HETATM   29  O   UNL     1      -6.652   3.819  64.724  1.00  0.00    -0.040 OA 
HETATM   30  C   UNL     1      -9.581   3.751  66.022  1.00  0.00    -0.168 C  
HETATM   31  O   UNL     1      -7.127   5.967  65.063  1.00  0.00    -0.060 OA 
HETATM   32  C   UNL     1     -10.643   4.818  65.785  1.00  0.00    -0.262 C  
HETATM   33  C   UNL     1      -9.474   2.810  64.820  1.00  0.00    -0.128 C  
ENDBRANCH   6  27
ENDBRANCH   4   5
ENDBRANCH   3   4
ENDBRANCH   2   3
TORSDOF 8
ENDMDL
MODEL      131
REMARK 921   NORMALIZED FREE ENERGY PREDICTED BY IDOCK:   -5.37 KCAL/MOL
REMARK 922        TOTAL FREE ENERGY PREDICTED BY IDOCK:   -8.40 KCAL/MOL
REMARK 923 INTER-LIGAND FREE ENERGY PREDICTED BY IDOCK:   -7.12 KCAL/MOL
REMARK 924 INTRA-LIGAND FREE ENERGY PREDICTED BY IDOCK:   -1.28 KCAL/MOL
REMARK 927      BINDING AFFINITY PREDICTED BY RF-SCORE:    0.00 PKD
ROOT
HETATM    1  C   UNL     1      -7.774   9.761  70.269  1.00  0.00    -0.187 C  
HETATM    2  C   UNL     1      -7.568  10.514  68.971  1.00  0.00    -0.117 C  
ENDROOT
BRANCH   2   3
HETATM    3  C   UNL     1      -6.272  10.117  68.260  1.00  0.00    -0.049 C  
BRANCH   3   4
HETATM    4  C   UNL     1      -6.611   9.254  67.044  1.00  0.00    -0.068 C  
BRANCH   4   5
HETATM    5  C   UNL     1      -6.689   7.771  67.336  1.00  0.00    -0.068 C  
HETATM    6  N   UNL     1      -7.768   7.046  66.832  1.00  0.00    -0.101 N  
HETATM    7  O   UNL     1      -5.818   7.224  68.020  1.00  0.00    -0.027 OA 
BRANCH   6   8
HETATM    8  C   UNL     1      -8.817   7.666  65.972  1.00  0.00    -0.155 C  
BRANCH   8   9
HETATM    9  C   UNL     1      -9.804   8.553  66.712  1.00  0.00    -0.327 A  
HETATM   10  C   UNL     1     -10.119   9.819  66.218  1.00  0.00    -0.313 A  
HETATM   11  C   UNL     1     -10.761  10.761  67.036  1.00  0.00    -0.320 A  
HETATM   12  C   UNL     1     -11.198  10.466  68.339  1.00  0.00    -0.318 A  
HETATM   13  C   UNL     1     -10.382   8.193  67.933  1.00  0.00    -0.280 A  
HETATM   14  C   UNL     1     -11.092   9.120  68.718  1.00  0.00     0.100 A  
BRANCH  12  15
HETATM   15  C   UNL     1     -11.726  11.548  69.240  1.00  0.00    -0.397 A  
HETATM   16  C   UNL     1     -11.583  12.891  68.783  1.00  0.00    -0.351 A  
HETATM   17  C   UNL     1     -11.896  14.006  69.562  1.00  0.00    -0.378 A  
HETATM   18  C   UNL     1     -12.418  13.826  70.830  1.00  0.00    -0.441 A  
HETATM   19  C   UNL     1     -12.621  12.531  71.300  1.00  0.00    -0.332 A  
HETATM   20  C   UNL     1     -12.283  11.381  70.538  1.00  0.00    -0.478 A  
BRANCH  20  21
HETATM   21  C   UNL     1     -12.534  10.113  71.220  1.00  0.00    -0.406 A  
HETATM   22  N   UNL     1     -11.578   9.416  71.872  1.00  0.00    -0.355 NA 
HETATM   23  N   UNL     1     -12.266   8.330  72.240  1.00  0.00    -0.362 NA 
HETATM   24  H   UNL     1     -10.601   9.654  72.037  1.00  0.00     0.000 HD 
HETATM   25  N   UNL     1     -13.560   8.313  71.896  1.00  0.00    -0.356 NA 
HETATM   26  N   UNL     1     -13.733   9.436  71.209  1.00  0.00    -0.282 NA 
ENDBRANCH  20  21
ENDBRANCH  12  15
ENDBRANCH   8   9
ENDBRANCH   6   8
BRANCH   6  27
HETATM   27  C   UNL     1      -7.779   5.539  66.942  1.00  0.00    -0.100 C  
HETATM   28  C   UNL     1      -8.483   4.657  65.863  1.00  0.00    -0.116 C  
HETATM   29  O   UNL     1      -8.048   3.550  65.549  1.00  0.00    -0.092 OA 
HETATM   30  C   UNL     1      -8.045   5.026  68.392  1.00  0.00    -0.086 C  
HETATM   31  O   UNL     1      -9.647   5.085  65.346  1.00  0.00    -0.138 OA 
HETATM   32  C   UNL     1      -9.295   5.583  69.064  1.00  0.00    -0.152 C  
HETATM   33  C   UNL     1      -7.974   3.506  68.546  1.00  0.00    -0.069 C  
ENDBRANCH   6  27
ENDBRANCH   4   5
ENDBRANCH   3   4
ENDBRANCH   2   3
TORSDOF 8
ENDMDL
MODEL      132
REMARK 921   NORMALIZED FREE ENERGY PREDICTED BY IDOCK:   -5.35 KCAL/MOL
REMARK 922        TOTAL FREE ENERGY PREDICTED BY IDOCK:   -8.37 KCAL/MOL
REMARK 923 INTER-LIGAND FREE ENERGY PREDICTED BY IDOCK:   -8.56 KCAL/MOL
REMARK 924 INTRA-LIGAND FREE ENERGY PREDICTED BY IDOCK:    0.19 KCAL/MOL
REMARK 927      BINDING AFFINITY PREDICTED BY RF-SCORE:    0.00 PKD
ROOT
HETATM    1  C   UNL     1     -11.997   9.302  71.100  1.00  0.00    -0.394 C  
HETATM    2  C   UNL     1     -11.316  10.445  70.375  1.00  0.00    -0.417 C  
ENDROOT
BRANCH   2   3
HETATM    3  C   UNL     1     -12.193  11.696  70.293  1.00  0.00    -0.401 C  
BRANCH   3   4
HETATM    4  C   UNL     1     -11.437  12.791  69.539  1.00  0.00    -0.293 C  
BRANCH   4   5
HETATM    5  C   UNL     1     -11.271  12.526  68.059  1.00  0.00    -0.270 C  
HETATM    6  N   UNL     1      -9.999  12.636  67.497  1.00  0.00    -0.203 N  
HETATM    7  O   UNL     1     -12.249  12.234  67.365  1.00  0.00    -0.478 OA 
BRANCH   6   8
HETATM    8  C   UNL     1      -8.789  12.951  68.312  1.00  0.00    -0.168 C  
BRANCH   8   9
HETATM    9  C   UNL     1      -8.293  14.381  68.187  1.00  0.00    -0.158 A  
HETATM   10  C   UNL     1      -6.995  14.639  67.745  1.00  0.00    -0.194 A  
HETATM   11  C   UNL     1      -6.421  15.906  67.927  1.00  0.00    -0.163 A  
HETATM   12  C   UNL     1      -7.129  16.993  68.470  1.00  0.00    -0.202 A  
HETATM   13  C   UNL     1      -9.059  15.488  68.565  1.00  0.00    -0.196 A  
HETATM   14  C   UNL     1      -8.500  16.774  68.675  1.00  0.00    -0.259 A  
BRANCH  12  15
HETATM   15  C   UNL     1      -6.429  18.280  68.806  1.00  0.00    -0.228 A  
HETATM   16  C   UNL     1      -6.110  18.499  70.179  1.00  0.00    -0.087 A  
HETATM   17  C   UNL     1      -5.588  19.698  70.664  1.00  0.00    -0.284 A  
HETATM   18  C   UNL     1      -5.312  20.728  69.784  1.00  0.00    -0.413 A  
HETATM   19  C   UNL     1      -5.561  20.541  68.426  1.00  0.00    -0.312 A  
HETATM   20  C   UNL     1      -6.120  19.341  67.911  1.00  0.00    -0.218 A  
BRANCH  20  21
HETATM   21  C   UNL     1      -6.343  19.355  66.467  1.00  0.00    -0.185 A  
HETATM   22  N   UNL     1      -5.741  18.500  65.613  1.00  0.00    -0.180 NA 
HETATM   23  N   UNL     1      -6.192  18.956  64.440  1.00  0.00    -0.419 NA 
HETATM   24  H   UNL     1      -5.114  17.720  65.809  1.00  0.00     0.000 HD 
HETATM   25  N   UNL     1      -7.036  19.994  64.502  1.00  0.00    -0.170 NA 
HETATM   26  N   UNL     1      -7.110  20.281  65.796  1.00  0.00    -0.279 NA 
ENDBRANCH  20  21
ENDBRANCH  12  15
ENDBRANCH   8   9
ENDBRANCH   6   8
BRANCH   6  27
HETATM   27  C   UNL     1      -9.765  12.198  66.071  1.00  0.00    -0.244 C  
HETATM   28  C   UNL     1     -10.639  12.755  64.903  1.00  0.00    -0.314 C  
HETATM   29  O   UNL     1     -10.173  12.943  63.780  1.00  0.00    -0.378 OA 
HETATM   30  C   UNL     1      -9.494  10.667  65.931  1.00  0.00    -0.239 C  
HETATM   31  O   UNL     1     -11.953  12.933  65.114  1.00  0.00    -0.362 OA 
HETATM   32  C   UNL     1     -10.539   9.757  66.566  1.00  0.00    -0.150 C  
HETATM   33  C   UNL     1      -9.167  10.213  64.507  1.00  0.00    -0.305 C  
ENDBRANCH   6  27
ENDBRANCH   4   5
ENDBRANCH   3   4
ENDBRANCH   2   3
TORSDOF 8
ENDMDL
MODEL      133
REMARK 921   NORMALIZED FREE ENERGY PREDICTED BY IDOCK:   -5.34 KCAL/MOL
REMARK 922        TOTAL FREE ENERGY PREDICTED BY IDOCK:   -8.36 KCAL/MOL
REMARK 923 INTER-LIGAND FREE ENERGY PREDICTED BY IDOCK:   -7.83 KCAL/MOL
REMARK 924 INTRA-LIGAND FREE ENERGY PREDICTED BY IDOCK:   -0.53 KCAL/MOL
REMARK 927      BINDING AFFINITY PREDICTED BY RF-SCORE:    0.00 PKD
ROOT
HETATM    1  C   UNL     1     -13.311  10.579  71.710  1.00  0.00    -0.446 C  
HETATM    2  C   UNL     1     -13.177   9.154  72.206  1.00  0.00    -0.528 C  
ENDROOT
BRANCH   2   3
HETATM    3  C   UNL     1     -12.319   8.287  71.281  1.00  0.00    -0.285 C  
BRANCH   3   4
HETATM    4  C   UNL     1     -12.262   6.864  71.837  1.00  0.00    -0.370 C  
BRANCH   4   5
HETATM    5  C   UNL     1     -10.988   6.538  72.585  1.00  0.00    -0.255 C  
HETATM    6  N   UNL     1      -9.997   5.805  71.933  1.00  0.00    -0.174 N  
HETATM    7  O   UNL     1     -10.842   6.904  73.755  1.00  0.00    -0.289 OA 
BRANCH   6   8
HETATM    8  C   UNL     1     -10.124   5.378  70.509  1.00  0.00    -0.236 C  
BRANCH   8   9
HETATM    9  C   UNL     1     -10.182   6.519  69.507  1.00  0.00    -0.219 A  
HETATM   10  C   UNL     1     -11.023   6.438  68.397  1.00  0.00    -0.390 A  
HETATM   11  C   UNL     1     -10.856   7.314  67.313  1.00  0.00    -0.354 A  
HETATM   12  C   UNL     1      -9.915   8.359  67.316  1.00  0.00    -0.291 A  
HETATM   13  C   UNL     1      -9.368   7.652  69.597  1.00  0.00    -0.156 A  
HETATM   14  C   UNL     1      -9.258   8.572  68.537  1.00  0.00    -0.135 A  
BRANCH  12  15
HETATM   15  C   UNL     1      -9.651   9.163  66.074  1.00  0.00    -0.342 A  
HETATM   16  C   UNL     1      -8.881   8.534  65.052  1.00  0.00    -0.074 A  
HETATM   17  C   UNL     1      -8.438   9.195  63.906  1.00  0.00    -0.189 A  
HETATM   18  C   UNL     1      -8.788  10.517  63.704  1.00  0.00    -0.210 A  
HETATM   19  C   UNL     1      -9.581  11.159  64.652  1.00  0.00    -0.289 A  
HETATM   20  C   UNL     1     -10.020  10.517  65.841  1.00  0.00    -0.313 A  
BRANCH  20  21
HETATM   21  C   UNL     1     -10.807  11.370  66.728  1.00  0.00    -0.286 A  
HETATM   22  N   UNL     1     -11.927  12.017  66.338  1.00  0.00    -0.593 NA 
HETATM   23  N   UNL     1     -12.219  12.705  67.447  1.00  0.00    -0.363 NA 
HETATM   24  H   UNL     1     -12.414  11.989  65.443  1.00  0.00     0.000 HD 
HETATM   25  N   UNL     1     -11.396  12.515  68.486  1.00  0.00    -0.272 NA 
HETATM   26  N   UNL     1     -10.466  11.689  68.023  1.00  0.00    -0.188 NA 
ENDBRANCH  20  21
ENDBRANCH  12  15
ENDBRANCH   8   9
ENDBRANCH   6   8
BRANCH   6  27
HETATM   27  C   UNL     1      -8.645   5.625  72.580  1.00  0.00    -0.120 C  
HETATM   28  C   UNL     1      -7.352   5.476  71.718  1.00  0.00    -0.091 C  
HETATM   29  O   UNL     1      -6.269   5.922  72.093  1.00  0.00    -0.039 OA 
HETATM   30  C   UNL     1      -8.664   4.644  73.794  1.00  0.00    -0.105 C  
HETATM   31  O   UNL     1      -7.415   4.752  70.588  1.00  0.00    -0.055 OA 
HETATM   32  C   UNL     1      -9.268   3.272  73.516  1.00  0.00    -0.103 C  
HETATM   33  C   UNL     1      -7.324   4.514  74.521  1.00  0.00    -0.073 C  
ENDBRANCH   6  27
ENDBRANCH   4   5
ENDBRANCH   3   4
ENDBRANCH   2   3
TORSDOF 8
ENDMDL
MODEL      134
REMARK 921   NORMALIZED FREE ENERGY PREDICTED BY IDOCK:   -5.32 KCAL/MOL
REMARK 922        TOTAL FREE ENERGY PREDICTED BY IDOCK:   -8.34 KCAL/MOL
REMARK 923 INTER-LIGAND FREE ENERGY PREDICTED BY IDOCK:   -7.97 KCAL/MOL
REMARK 924 INTRA-LIGAND FREE ENERGY PREDICTED BY IDOCK:   -0.36 KCAL/MOL
REMARK 927      BINDING AFFINITY PREDICTED BY RF-SCORE:    0.00 PKD
ROOT
HETATM    1  C   UNL     1      -9.606   7.027  70.580  1.00  0.00    -0.169 C  
HETATM    2  C   UNL     1     -10.052   6.035  69.524  1.00  0.00    -0.246 C  
ENDROOT
BRANCH   2   3
HETATM    3  C   UNL     1      -9.128   6.021  68.304  1.00  0.00    -0.111 C  
BRANCH   3   4
HETATM    4  C   UNL     1      -8.759   7.458  67.937  1.00  0.00    -0.123 C  
BRANCH   4   5
HETATM    5  C   UNL     1      -8.724   7.731  66.448  1.00  0.00    -0.150 C  
HETATM    6  N   UNL     1      -8.394   9.013  66.011  1.00  0.00    -0.118 N  
HETATM    7  O   UNL     1      -8.999   6.836  65.644  1.00  0.00    -0.085 OA 
BRANCH   6   8
HETATM    8  C   UNL     1      -8.019  10.109  66.952  1.00  0.00    -0.114 C  
BRANCH   8   9
HETATM    9  C   UNL     1      -9.196  10.838  67.579  1.00  0.00    -0.150 A  
HETATM   10  C   UNL     1      -9.028  12.115  68.113  1.00  0.00    -0.195 A  
HETATM   11  C   UNL     1      -9.998  12.663  68.967  1.00  0.00     0.218 A  
HETATM   12  C   UNL     1     -11.211  12.012  69.257  1.00  0.00    -0.291 A  
HETATM   13  C   UNL     1     -10.462  10.261  67.717  1.00  0.00    -0.269 A  
HETATM   14  C   UNL     1     -11.462  10.849  68.514  1.00  0.00    -0.380 A  
BRANCH  12  15
HETATM   15  C   UNL     1     -12.143  12.551  70.306  1.00  0.00    -0.373 A  
HETATM   16  C   UNL     1     -12.288  13.967  70.372  1.00  0.00    -0.429 A  
HETATM   17  C   UNL     1     -13.005  14.621  71.374  1.00  0.00    -0.404 A  
HETATM   18  C   UNL     1     -13.659  13.878  72.339  1.00  0.00    -0.676 A  
HETATM   19  C   UNL     1     -13.588  12.488  72.286  1.00  0.00    -0.443 A  
HETATM   20  C   UNL     1     -12.839  11.800  71.294  1.00  0.00    -0.409 A  
BRANCH  20  21
HETATM   21  C   UNL     1     -12.854  10.346  71.432  1.00  0.00    -0.452 A  
HETATM   22  N   UNL     1     -13.830   9.560  70.926  1.00  0.00    -0.474 NA 
HETATM   23  N   UNL     1     -13.445   8.360  71.374  1.00  0.00    -0.265 NA 
HETATM   24  H   UNL     1     -14.638   9.814  70.359  1.00  0.00     0.000 HD 
HETATM   25  N   UNL     1     -12.309   8.339  72.084  1.00  0.00    -0.345 NA 
HETATM   26  N   UNL     1     -11.943   9.613  72.158  1.00  0.00    -0.139 NA 
ENDBRANCH  20  21
ENDBRANCH  12  15
ENDBRANCH   8   9
ENDBRANCH   6   8
BRANCH   6  27
HETATM   27  C   UNL     1      -8.166   9.271  64.540  1.00  0.00    -0.151 C  
HETATM   28  C   UNL     1      -6.774   9.742  64.010  1.00  0.00    -0.120 C  
HETATM   29  O   UNL     1      -6.351   9.396  62.909  1.00  0.00    -0.094 OA 
HETATM   30  C   UNL     1      -9.347  10.024  63.853  1.00  0.00    -0.315 C  
HETATM   31  O   UNL     1      -6.077  10.627  64.741  1.00  0.00    -0.093 OA 
HETATM   32  C   UNL     1      -9.773  11.324  64.525  1.00  0.00    -0.293 C  
HETATM   33  C   UNL     1      -9.179  10.219  62.345  1.00  0.00    -0.311 C  
ENDBRANCH   6  27
ENDBRANCH   4   5
ENDBRANCH   3   4
ENDBRANCH   2   3
TORSDOF 8
ENDMDL
MODEL      135
REMARK 921   NORMALIZED FREE ENERGY PREDICTED BY IDOCK:   -5.31 KCAL/MOL
REMARK 922        TOTAL FREE ENERGY PREDICTED BY IDOCK:   -8.32 KCAL/MOL
REMARK 923 INTER-LIGAND FREE ENERGY PREDICTED BY IDOCK:   -7.34 KCAL/MOL
REMARK 924 INTRA-LIGAND FREE ENERGY PREDICTED BY IDOCK:   -0.98 KCAL/MOL
REMARK 927      BINDING AFFINITY PREDICTED BY RF-SCORE:    0.00 PKD
ROOT
HETATM    1  C   UNL     1      -5.768   7.532  65.727  1.00  0.00    -0.037 C  
HETATM    2  C   UNL     1      -6.902   7.356  64.738  1.00  0.00    -0.050 C  
ENDROOT
BRANCH   2   3
HETATM    3  C   UNL     1      -7.827   6.194  65.105  1.00  0.00    -0.108 C  
BRANCH   3   4
HETATM    4  C   UNL     1      -9.123   6.751  65.696  1.00  0.00     0.093 C  
BRANCH   4   5
HETATM    5  C   UNL     1      -9.627   5.999  66.909  1.00  0.00    -0.140 C  
HETATM    6  N   UNL     1      -9.273   6.459  68.176  1.00  0.00    -0.113 N  
HETATM    7  O   UNL     1     -10.325   4.990  66.771  1.00  0.00    -0.236 OA 
BRANCH   6   8
HETATM    8  C   UNL     1      -8.462   7.695  68.381  1.00  0.00    -0.125 C  
BRANCH   8   9
HETATM    9  C   UNL     1      -9.126   8.977  67.905  1.00  0.00    -0.141 A  
HETATM   10  C   UNL     1      -8.368   9.973  67.289  1.00  0.00    -0.121 A  
HETATM   11  C   UNL     1      -8.886  11.269  67.138  1.00  0.00    -0.153 A  
HETATM   12  C   UNL     1     -10.200  11.611  67.505  1.00  0.00    -0.216 A  
HETATM   13  C   UNL     1     -10.480   9.255  68.113  1.00  0.00    -0.263 A  
HETATM   14  C   UNL     1     -11.016  10.536  67.889  1.00  0.00    -0.352 A  
BRANCH  12  15
HETATM   15  C   UNL     1     -10.658  13.042  67.487  1.00  0.00    -0.237 A  
HETATM   16  C   UNL     1     -10.388  13.819  68.652  1.00  0.00    -0.225 A  
HETATM   17  C   UNL     1     -10.870  15.115  68.840  1.00  0.00    -0.241 A  
HETATM   18  C   UNL     1     -11.610  15.719  67.841  1.00  0.00    -0.153 A  
HETATM   19  C   UNL     1     -11.857  15.017  66.664  1.00  0.00    -0.071 A  
HETATM   20  C   UNL     1     -11.404  13.686  66.460  1.00  0.00    -0.335 A  
BRANCH  20  21
HETATM   21  C   UNL     1     -11.798  13.107  65.178  1.00  0.00    -0.359 A  
HETATM   22  N   UNL     1     -11.031  13.164  64.068  1.00  0.00    -0.505 NA 
HETATM   23  N   UNL     1     -11.840  12.587  63.173  1.00  0.00    -0.375 NA 
HETATM   24  H   UNL     1     -10.093  13.544  63.946  1.00  0.00     0.000 HD 
HETATM   25  N   UNL     1     -13.019  12.159  63.642  1.00  0.00    -0.790 NA 
HETATM   26  N   UNL     1     -13.017  12.521  64.919  1.00  0.00    -0.805 NA 
ENDBRANCH  20  21
ENDBRANCH  12  15
ENDBRANCH   8   9
ENDBRANCH   6   8
BRANCH   6  27
HETATM   27  C   UNL     1      -9.909   5.850  69.403  1.00  0.00    -0.161 C  
HETATM   28  C   UNL     1     -10.377   6.743  70.596  1.00  0.00    -0.201 C  
HETATM   29  O   UNL     1     -11.368   6.457  71.267  1.00  0.00    -0.282 OA 
HETATM   30  C   UNL     1      -9.204   4.543  69.882  1.00  0.00    -0.193 C  
HETATM   31  O   UNL     1      -9.614   7.789  70.951  1.00  0.00    -0.167 OA 
HETATM   32  C   UNL     1      -7.700   4.655  70.106  1.00  0.00    -0.054 C  
HETATM   33  C   UNL     1      -9.884   3.860  71.071  1.00  0.00    -0.219 C  
ENDBRANCH   6  27
ENDBRANCH   4   5
ENDBRANCH   3   4
ENDBRANCH   2   3
TORSDOF 8
ENDMDL
MODEL      136
REMARK 921   NORMALIZED FREE ENERGY PREDICTED BY IDOCK:   -5.27 KCAL/MOL
REMARK 922        TOTAL FREE ENERGY PREDICTED BY IDOCK:   -8.27 KCAL/MOL
REMARK 923 INTER-LIGAND FREE ENERGY PREDICTED BY IDOCK:   -7.99 KCAL/MOL
REMARK 924 INTRA-LIGAND FREE ENERGY PREDICTED BY IDOCK:   -0.27 KCAL/MOL
REMARK 927      BINDING AFFINITY PREDICTED BY RF-SCORE:    0.00 PKD
ROOT
HETATM    1  C   UNL     1     -13.042  11.077  71.392  1.00  0.00    -0.441 C  
HETATM    2  C   UNL     1     -11.863  10.306  70.835  1.00  0.00    -0.473 C  
ENDROOT
BRANCH   2   3
HETATM    3  C   UNL     1     -11.461  10.777  69.435  1.00  0.00    -0.366 C  
BRANCH   3   4
HETATM    4  C   UNL     1     -10.004  10.394  69.176  1.00  0.00    -0.237 C  
BRANCH   4   5
HETATM    5  C   UNL     1      -9.763   9.728  67.839  1.00  0.00    -0.144 C  
HETATM    6  N   UNL     1      -8.660  10.123  67.084  1.00  0.00    -0.125 N  
HETATM    7  O   UNL     1     -10.542   8.865  67.423  1.00  0.00    -0.277 OA 
BRANCH   6   8
HETATM    8  C   UNL     1      -7.677  11.136  67.571  1.00  0.00    -0.116 C  
BRANCH   8   9
HETATM    9  C   UNL     1      -8.012  12.572  67.205  1.00  0.00    -0.173 A  
HETATM   10  C   UNL     1      -7.137  13.605  67.542  1.00  0.00    -0.166 A  
HETATM   11  C   UNL     1      -7.566  14.941  67.506  1.00  0.00    -0.218 A  
HETATM   12  C   UNL     1      -8.843  15.318  67.053  1.00  0.00    -0.261 A  
HETATM   13  C   UNL     1      -9.214  12.941  66.594  1.00  0.00    -0.222 A  
HETATM   14  C   UNL     1      -9.610  14.287  66.490  1.00  0.00    -0.313 A  
BRANCH  12  15
HETATM   15  C   UNL     1      -9.323  16.736  67.191  1.00  0.00    -0.236 A  
HETATM   16  C   UNL     1      -8.719  17.705  66.337  1.00  0.00    -0.263 A  
HETATM   17  C   UNL     1      -8.958  19.076  66.441  1.00  0.00    -0.331 A  
HETATM   18  C   UNL     1      -9.857  19.542  67.381  1.00  0.00    -0.470 A  
HETATM   19  C   UNL     1     -10.509  18.627  68.205  1.00  0.00    -0.361 A  
HETATM   20  C   UNL     1     -10.261  17.230  68.139  1.00  0.00    -0.343 A  
BRANCH  20  21
HETATM   21  C   UNL     1     -11.013  16.441  69.112  1.00  0.00    -0.324 A  
HETATM   22  N   UNL     1     -12.001  15.585  68.773  1.00  0.00    -0.552 NA 
HETATM   23  N   UNL     1     -12.415  15.186  69.981  1.00  0.00    -0.306 NA 
HETATM   24  H   UNL     1     -12.339  15.317  67.849  1.00  0.00     0.000 HD 
HETATM   25  N   UNL     1     -11.751  15.700  71.024  1.00  0.00    -0.363 NA 
HETATM   26  N   UNL     1     -10.874  16.534  70.479  1.00  0.00    -0.117 NA 
ENDBRANCH  20  21
ENDBRANCH  12  15
ENDBRANCH   8   9
ENDBRANCH   6   8
BRANCH   6  27
HETATM   27  C   UNL     1      -8.284   9.353  65.840  1.00  0.00    -0.115 C  
HETATM   28  C   UNL     1      -7.988   7.821  65.898  1.00  0.00    -0.107 C  
HETATM   29  O   UNL     1      -8.276   7.070  64.967  1.00  0.00    -0.131 OA 
HETATM   30  C   UNL     1      -7.281  10.115  64.919  1.00  0.00    -0.131 C  
HETATM   31  O   UNL     1      -7.310   7.339  66.954  1.00  0.00    -0.087 OA 
HETATM   32  C   UNL     1      -6.010  10.607  65.601  1.00  0.00    -0.128 C  
HETATM   33  C   UNL     1      -6.954   9.394  63.610  1.00  0.00    -0.095 C  
ENDBRANCH   6  27
ENDBRANCH   4   5
ENDBRANCH   3   4
ENDBRANCH   2   3
TORSDOF 8
ENDMDL
MODEL      137
REMARK 921   NORMALIZED FREE ENERGY PREDICTED BY IDOCK:   -5.25 KCAL/MOL
REMARK 922        TOTAL FREE ENERGY PREDICTED BY IDOCK:   -8.23 KCAL/MOL
REMARK 923 INTER-LIGAND FREE ENERGY PREDICTED BY IDOCK:   -8.44 KCAL/MOL
REMARK 924 INTRA-LIGAND FREE ENERGY PREDICTED BY IDOCK:    0.21 KCAL/MOL
REMARK 927      BINDING AFFINITY PREDICTED BY RF-SCORE:    0.00 PKD
ROOT
HETATM    1  C   UNL     1     -10.213   4.427  66.284  1.00  0.00    -0.211 C  
HETATM    2  C   UNL     1     -10.549   5.411  67.386  1.00  0.00    -0.228 C  
ENDROOT
BRANCH   2   3
HETATM    3  C   UNL     1     -10.966   6.780  66.844  1.00  0.00    -0.370 C  
BRANCH   3   4
HETATM    4  C   UNL     1      -9.836   7.781  67.085  1.00  0.00    -0.270 C  
BRANCH   4   5
HETATM    5  C   UNL     1      -9.061   7.548  68.364  1.00  0.00    -0.133 C  
HETATM    6  N   UNL     1      -9.538   8.111  69.547  1.00  0.00    -0.167 N  
HETATM    7  O   UNL     1      -8.019   6.886  68.350  1.00  0.00    -0.118 OA 
BRANCH   6   8
HETATM    8  C   UNL     1     -10.812   8.885  69.609  1.00  0.00    -0.178 C  
BRANCH   8   9
HETATM    9  C   UNL     1     -10.742  10.273  68.993  1.00  0.00    -0.257 A  
HETATM   10  C   UNL     1      -9.507  10.878  68.763  1.00  0.00    -0.196 A  
HETATM   11  C   UNL     1      -9.428  12.255  68.504  1.00  0.00    -0.115 A  
HETATM   12  C   UNL     1     -10.565  13.072  68.373  1.00  0.00    -0.264 A  
HETATM   13  C   UNL     1     -11.878  11.030  68.696  1.00  0.00    -0.318 A  
HETATM   14  C   UNL     1     -11.794  12.394  68.362  1.00  0.00    -0.361 A  
BRANCH  12  15
HETATM   15  C   UNL     1     -10.435  14.566  68.266  1.00  0.00    -0.242 A  
HETATM   16  C   UNL     1      -9.626  15.067  67.204  1.00  0.00    -0.222 A  
HETATM   17  C   UNL     1      -9.298  16.415  67.058  1.00  0.00    -0.241 A  
HETATM   18  C   UNL     1      -9.809  17.341  67.948  1.00  0.00    -0.283 A  
HETATM   19  C   UNL     1     -10.645  16.905  68.973  1.00  0.00    -0.338 A  
HETATM   20  C   UNL     1     -10.969  15.534  69.161  1.00  0.00    -0.259 A  
BRANCH  20  21
HETATM   21  C   UNL     1     -11.827  15.273  70.315  1.00  0.00    -0.318 A  
HETATM   22  N   UNL     1     -13.171  15.170  70.235  1.00  0.00    -0.660 NA 
HETATM   23  N   UNL     1     -13.489  15.018  71.525  1.00  0.00    -0.400 NA 
HETATM   24  H   UNL     1     -13.777  15.201  69.415  1.00  0.00     0.000 HD 
HETATM   25  N   UNL     1     -12.459  14.991  72.381  1.00  0.00    -0.330 NA 
HETATM   26  N   UNL     1     -11.391  15.192  71.619  1.00  0.00    -0.374 NA 
ENDBRANCH  20  21
ENDBRANCH  12  15
ENDBRANCH   8   9
ENDBRANCH   6   8
BRANCH   6  27
HETATM   27  C   UNL     1      -8.899   7.744  70.866  1.00  0.00    -0.142 C  
HETATM   28  C   UNL     1      -8.559   6.260  71.213  1.00  0.00    -0.124 C  
HETATM   29  O   UNL     1      -7.574   5.963  71.888  1.00  0.00    -0.093 OA 
HETATM   30  C   UNL     1      -9.503   8.514  72.082  1.00  0.00    -0.375 C  
HETATM   31  O   UNL     1      -9.426   5.302  70.846  1.00  0.00    -0.154 OA 
HETATM   32  C   UNL     1     -11.018   8.427  72.223  1.00  0.00    -0.431 C  
HETATM   33  C   UNL     1      -8.813   8.226  73.416  1.00  0.00    -0.270 C  
ENDBRANCH   6  27
ENDBRANCH   4   5
ENDBRANCH   3   4
ENDBRANCH   2   3
TORSDOF 8
ENDMDL
MODEL      138
REMARK 921   NORMALIZED FREE ENERGY PREDICTED BY IDOCK:   -5.25 KCAL/MOL
REMARK 922        TOTAL FREE ENERGY PREDICTED BY IDOCK:   -8.22 KCAL/MOL
REMARK 923 INTER-LIGAND FREE ENERGY PREDICTED BY IDOCK:   -9.06 KCAL/MOL
REMARK 924 INTRA-LIGAND FREE ENERGY PREDICTED BY IDOCK:    0.83 KCAL/MOL
REMARK 927      BINDING AFFINITY PREDICTED BY RF-SCORE:    0.00 PKD
ROOT
HETATM    1  C   UNL     1     -12.182  14.298  63.856  1.00  0.00    -0.233 C  
HETATM    2  C   UNL     1     -12.596  14.177  65.308  1.00  0.00    -0.460 C  
ENDROOT
BRANCH   2   3
HETATM    3  C   UNL     1     -12.069  12.899  65.965  1.00  0.00    -0.484 C  
BRANCH   3   4
HETATM    4  C   UNL     1     -12.250  13.002  67.480  1.00  0.00    -0.127 C  
BRANCH   4   5
HETATM    5  C   UNL     1     -11.320  13.988  68.152  1.00  0.00    -0.292 C  
HETATM    6  N   UNL     1      -9.973  13.654  68.285  1.00  0.00    -0.233 N  
HETATM    7  O   UNL     1     -11.755  15.059  68.585  1.00  0.00    -0.329 OA 
BRANCH   6   8
HETATM    8  C   UNL     1      -9.405  12.387  67.741  1.00  0.00    -0.196 C  
BRANCH   8   9
HETATM    9  C   UNL     1      -9.545  11.182  68.656  1.00  0.00    -0.200 A  
HETATM   10  C   UNL     1     -10.742  10.951  69.335  1.00  0.00    -0.265 A  
HETATM   11  C   UNL     1     -10.787  10.051  70.411  1.00  0.00    -0.380 A  
HETATM   12  C   UNL     1      -9.680   9.278  70.804  1.00  0.00    -0.348 A  
HETATM   13  C   UNL     1      -8.493  10.301  68.921  1.00  0.00    -0.138 A  
HETATM   14  C   UNL     1      -8.567   9.346  69.952  1.00  0.00    -0.201 A  
BRANCH  12  15
HETATM   15  C   UNL     1      -9.719   8.457  72.062  1.00  0.00    -0.353 A  
HETATM   16  C   UNL     1      -8.465   8.145  72.666  1.00  0.00    -0.251 A  
HETATM   17  C   UNL     1      -8.330   7.281  73.753  1.00  0.00    -0.180 A  
HETATM   18  C   UNL     1      -9.458   6.722  74.324  1.00  0.00    -0.282 A  
HETATM   19  C   UNL     1     -10.709   7.038  73.800  1.00  0.00    -0.220 A  
HETATM   20  C   UNL     1     -10.871   7.890  72.675  1.00  0.00    -0.428 A  
BRANCH  20  21
HETATM   21  C   UNL     1     -12.258   8.067  72.250  1.00  0.00    -0.318 A  
HETATM   22  N   UNL     1     -13.112   8.932  72.838  1.00  0.00    -0.749 NA 
HETATM   23  N   UNL     1     -14.239   8.669  72.167  1.00  0.00    -0.449 NA 
HETATM   24  H   UNL     1     -12.943   9.603  73.588  1.00  0.00     0.000 HD 
HETATM   25  N   UNL     1     -14.143   7.742  71.206  1.00  0.00    -0.308 NA 
HETATM   26  N   UNL     1     -12.885   7.322  71.277  1.00  0.00    -0.367 NA 
ENDBRANCH  20  21
ENDBRANCH  12  15
ENDBRANCH   8   9
ENDBRANCH   6   8
BRANCH   6  27
HETATM   27  C   UNL     1      -8.986  14.687  68.777  1.00  0.00    -0.173 C  
HETATM   28  C   UNL     1      -9.006  16.148  68.226  1.00  0.00    -0.189 C  
HETATM   29  O   UNL     1      -8.717  17.111  68.935  1.00  0.00    -0.259 OA 
HETATM   30  C   UNL     1      -7.536  14.133  68.933  1.00  0.00    -0.112 C  
HETATM   31  O   UNL     1      -9.248  16.336  66.918  1.00  0.00    -0.203 OA 
HETATM   32  C   UNL     1      -6.962  13.445  67.700  1.00  0.00    -0.168 C  
HETATM   33  C   UNL     1      -6.537  15.135  69.514  1.00  0.00    -0.163 C  
ENDBRANCH   6  27
ENDBRANCH   4   5
ENDBRANCH   3   4
ENDBRANCH   2   3
TORSDOF 8
ENDMDL
MODEL      139
REMARK 921   NORMALIZED FREE ENERGY PREDICTED BY IDOCK:   -5.24 KCAL/MOL
REMARK 922        TOTAL FREE ENERGY PREDICTED BY IDOCK:   -8.22 KCAL/MOL
REMARK 923 INTER-LIGAND FREE ENERGY PREDICTED BY IDOCK:   -7.46 KCAL/MOL
REMARK 924 INTRA-LIGAND FREE ENERGY PREDICTED BY IDOCK:   -0.76 KCAL/MOL
REMARK 927      BINDING AFFINITY PREDICTED BY RF-SCORE:    0.00 PKD
ROOT
HETATM    1  C   UNL     1     -12.737   7.565  71.385  1.00  0.00    -0.382 C  
HETATM    2  C   UNL     1     -11.473   8.284  71.810  1.00  0.00    -0.353 C  
ENDROOT
BRANCH   2   3
HETATM    3  C   UNL     1     -10.872   9.132  70.686  1.00  0.00    -0.321 C  
BRANCH   3   4
HETATM    4  C   UNL     1     -10.623   8.245  69.466  1.00  0.00    -0.216 C  
BRANCH   4   5
HETATM    5  C   UNL     1      -9.163   7.947  69.201  1.00  0.00    -0.144 C  
HETATM    6  N   UNL     1      -8.601   8.371  67.998  1.00  0.00    -0.134 N  
HETATM    7  O   UNL     1      -8.493   7.326  70.032  1.00  0.00    -0.136 OA 
BRANCH   6   8
HETATM    8  C   UNL     1      -9.370   9.156  66.988  1.00  0.00    -0.148 C  
BRANCH   8   9
HETATM    9  C   UNL     1      -9.999  10.433  67.520  1.00  0.00    -0.215 A  
HETATM   10  C   UNL     1      -9.239  11.333  68.266  1.00  0.00    -0.176 A  
HETATM   11  C   UNL     1      -9.864  12.334  69.025  1.00  0.00     0.218 A  
HETATM   12  C   UNL     1     -11.255  12.545  69.009  1.00  0.00    -0.321 A  
HETATM   13  C   UNL     1     -11.354  10.738  67.359  1.00  0.00    -0.239 A  
HETATM   14  C   UNL     1     -11.966  11.791  68.063  1.00  0.00    -0.195 A  
BRANCH  12  15
HETATM   15  C   UNL     1     -11.900  13.511  69.962  1.00  0.00    -0.371 A  
HETATM   16  C   UNL     1     -12.593  12.951  71.075  1.00  0.00    -0.376 A  
HETATM   17  C   UNL     1     -13.354  13.707  71.966  1.00  0.00    -0.548 A  
HETATM   18  C   UNL     1     -13.420  15.079  71.813  1.00  0.00    -0.504 A  
HETATM   19  C   UNL     1     -12.719  15.677  70.769  1.00  0.00    -0.483 A  
HETATM   20  C   UNL     1     -11.961  14.926  69.831  1.00  0.00    -0.376 A  
BRANCH  20  21
HETATM   21  C   UNL     1     -11.332  15.731  68.786  1.00  0.00    -0.362 A  
HETATM   22  N   UNL     1     -10.847  16.974  68.994  1.00  0.00    -0.295 NA 
HETATM   23  N   UNL     1     -10.465  17.306  67.757  1.00  0.00    -0.359 NA 
HETATM   24  H   UNL     1     -10.790  17.512  69.859  1.00  0.00     0.000 HD 
HETATM   25  N   UNL     1     -10.646  16.369  66.818  1.00  0.00    -0.277 NA 
HETATM   26  N   UNL     1     -11.236  15.369  67.461  1.00  0.00    -0.324 NA 
ENDBRANCH  20  21
ENDBRANCH  12  15
ENDBRANCH   8   9
ENDBRANCH   6   8
BRANCH   6  27
HETATM   27  C   UNL     1      -7.111   8.259  67.782  1.00  0.00    -0.083 C  
HETATM   28  C   UNL     1      -6.309   9.399  67.078  1.00  0.00    -0.066 C  
HETATM   29  O   UNL     1      -5.152   9.667  67.395  1.00  0.00    -0.035 OA 
HETATM   30  C   UNL     1      -6.658   6.840  67.314  1.00  0.00    -0.054 C  
HETATM   31  O   UNL     1      -6.874  10.028  66.034  1.00  0.00    -0.093 OA 
HETATM   32  C   UNL     1      -7.380   6.295  66.088  1.00  0.00    -0.080 C  
HETATM   33  C   UNL     1      -5.143   6.677  67.174  1.00  0.00    -0.008 C  
ENDBRANCH   6  27
ENDBRANCH   4   5
ENDBRANCH   3   4
ENDBRANCH   2   3
TORSDOF 8
ENDMDL
MODEL      140
REMARK 921   NORMALIZED FREE ENERGY PREDICTED BY IDOCK:   -5.23 KCAL/MOL
REMARK 922        TOTAL FREE ENERGY PREDICTED BY IDOCK:   -8.21 KCAL/MOL
REMARK 923 INTER-LIGAND FREE ENERGY PREDICTED BY IDOCK:   -8.22 KCAL/MOL
REMARK 924 INTRA-LIGAND FREE ENERGY PREDICTED BY IDOCK:    0.02 KCAL/MOL
REMARK 927      BINDING AFFINITY PREDICTED BY RF-SCORE:    0.00 PKD
ROOT
HETATM    1  C   UNL     1      -9.781  19.813  67.159  1.00  0.00    -0.501 C  
HETATM    2  C   UNL     1      -8.668  19.166  66.359  1.00  0.00    -0.336 C  
ENDROOT
BRANCH   2   3
HETATM    3  C   UNL     1      -8.008  18.003  67.103  1.00  0.00    -0.224 C  
BRANCH   3   4
HETATM    4  C   UNL     1      -8.209  16.716  66.302  1.00  0.00    -0.365 C  
BRANCH   4   5
HETATM    5  C   UNL     1      -9.436  15.923  66.695  1.00  0.00    -0.241 C  
HETATM    6  N   UNL     1      -9.265  14.666  67.272  1.00  0.00    -0.197 N  
HETATM    7  O   UNL     1     -10.565  16.380  66.489  1.00  0.00    -0.301 OA 
BRANCH   6   8
HETATM    8  C   UNL     1      -7.917  14.099  67.569  1.00  0.00    -0.188 C  
BRANCH   8   9
HETATM    9  C   UNL     1      -7.892  12.594  67.775  1.00  0.00    -0.154 A  
HETATM   10  C   UNL     1      -8.312  11.738  66.756  1.00  0.00    -0.165 A  
HETATM   11  C   UNL     1      -8.599  10.392  67.031  1.00  0.00    -0.130 A  
HETATM   12  C   UNL     1      -8.399   9.815  68.298  1.00  0.00    -0.106 A  
HETATM   13  C   UNL     1      -7.526  11.997  68.985  1.00  0.00     0.017 A  
HETATM   14  C   UNL     1      -7.745  10.630  69.233  1.00  0.00    -0.142 A  
BRANCH  12  15
HETATM   15  C   UNL     1      -8.878   8.421  68.595  1.00  0.00    -0.136 A  
HETATM   16  C   UNL     1      -8.101   7.348  68.067  1.00  0.00    -0.124 A  
HETATM   17  C   UNL     1      -8.489   6.010  68.140  1.00  0.00    -0.115 A  
HETATM   18  C   UNL     1      -9.661   5.675  68.793  1.00  0.00    -0.178 A  
HETATM   19  C   UNL     1     -10.428   6.685  69.367  1.00  0.00    -0.254 A  
HETATM   20  C   UNL     1     -10.070   8.057  69.281  1.00  0.00    -0.198 A  
BRANCH  20  21
HETATM   21  C   UNL     1     -11.023   8.968  69.911  1.00  0.00    -0.193 A  
HETATM   22  N   UNL     1     -11.743   9.883  69.228  1.00  0.00    -0.460 NA 
HETATM   23  N   UNL     1     -12.381  10.501  70.228  1.00  0.00    -0.308 NA 
HETATM   24  H   UNL     1     -11.786  10.056  68.224  1.00  0.00     0.000 HD 
HETATM   25  N   UNL     1     -12.137  10.027  71.456  1.00  0.00    -0.395 NA 
HETATM   26  N   UNL     1     -11.239   9.068  71.268  1.00  0.00    -0.287 NA 
ENDBRANCH  20  21
ENDBRANCH  12  15
ENDBRANCH   8   9
ENDBRANCH   6   8
BRANCH   6  27
HETATM   27  C   UNL     1     -10.454  13.933  67.846  1.00  0.00    -0.242 C  
HETATM   28  C   UNL     1     -11.641  13.484  66.936  1.00  0.00    -0.363 C  
HETATM   29  O   UNL     1     -12.265  12.446  67.152  1.00  0.00    -0.492 OA 
HETATM   30  C   UNL     1     -10.941  14.514  69.210  1.00  0.00    -0.282 C  
HETATM   31  O   UNL     1     -12.044  14.310  65.956  1.00  0.00    -0.405 OA 
HETATM   32  C   UNL     1     -11.229  16.011  69.218  1.00  0.00    -0.346 C  
HETATM   33  C   UNL     1     -12.088  13.733  69.854  1.00  0.00    -0.412 C  
ENDBRANCH   6  27
ENDBRANCH   4   5
ENDBRANCH   3   4
ENDBRANCH   2   3
TORSDOF 8
ENDMDL
MODEL      141
REMARK 921   NORMALIZED FREE ENERGY PREDICTED BY IDOCK:   -5.21 KCAL/MOL
REMARK 922        TOTAL FREE ENERGY PREDICTED BY IDOCK:   -8.17 KCAL/MOL
REMARK 923 INTER-LIGAND FREE ENERGY PREDICTED BY IDOCK:   -8.66 KCAL/MOL
REMARK 924 INTRA-LIGAND FREE ENERGY PREDICTED BY IDOCK:    0.48 KCAL/MOL
REMARK 927      BINDING AFFINITY PREDICTED BY RF-SCORE:    0.00 PKD
ROOT
HETATM    1  C   UNL     1      -9.545   3.808  70.940  1.00  0.00    -0.256 C  
HETATM    2  C   UNL     1      -9.580   3.896  69.428  1.00  0.00    -0.239 C  
ENDROOT
BRANCH   2   3
HETATM    3  C   UNL     1     -10.382   5.099  68.927  1.00  0.00    -0.186 C  
BRANCH   3   4
HETATM    4  C   UNL     1      -9.672   6.386  69.347  1.00  0.00    -0.160 C  
BRANCH   4   5
HETATM    5  C   UNL     1      -8.734   6.950  68.301  1.00  0.00    -0.123 C  
HETATM    6  N   UNL     1      -9.229   7.882  67.391  1.00  0.00    -0.138 N  
HETATM    7  O   UNL     1      -7.559   6.574  68.252  1.00  0.00    -0.099 OA 
BRANCH   6   8
HETATM    8  C   UNL     1     -10.633   8.386  67.444  1.00  0.00    -0.243 C  
BRANCH   8   9
HETATM    9  C   UNL     1     -10.813   9.681  68.217  1.00  0.00    -0.230 A  
HETATM   10  C   UNL     1     -10.765   9.681  69.611  1.00  0.00    -0.260 A  
HETATM   11  C   UNL     1     -11.241  10.782  70.339  1.00  0.00    -0.270 A  
HETATM   12  C   UNL     1     -11.701  11.961  69.724  1.00  0.00    -0.403 A  
HETATM   13  C   UNL     1     -11.102  10.901  67.599  1.00  0.00    -0.376 A  
HETATM   14  C   UNL     1     -11.508  12.029  68.336  1.00  0.00    -0.356 A  
BRANCH  12  15
HETATM   15  C   UNL     1     -12.360  13.045  70.530  1.00  0.00    -0.365 A  
HETATM   16  C   UNL     1     -13.214  12.627  71.592  1.00  0.00    -0.394 A  
HETATM   17  C   UNL     1     -14.000  13.507  72.337  1.00  0.00    -0.638 A  
HETATM   18  C   UNL     1     -13.931  14.864  72.084  1.00  0.00    -0.598 A  
HETATM   19  C   UNL     1     -13.073  15.324  71.088  1.00  0.00    -0.546 A  
HETATM   20  C   UNL     1     -12.286  14.446  70.296  1.00  0.00    -0.397 A  
BRANCH  20  21
HETATM   21  C   UNL     1     -11.481  15.116  69.277  1.00  0.00    -0.311 A  
HETATM   22  N   UNL     1     -11.997  15.633  68.141  1.00  0.00    -0.380 NA 
HETATM   23  N   UNL     1     -10.885  16.047  67.524  1.00  0.00    -0.313 NA 
HETATM   24  H   UNL     1     -12.969  15.691  67.838  1.00  0.00     0.000 HD 
HETATM   25  N   UNL     1      -9.741  15.854  68.192  1.00  0.00    -0.211 NA 
HETATM   26  N   UNL     1     -10.108  15.224  69.301  1.00  0.00    -0.240 NA 
ENDBRANCH  20  21
ENDBRANCH  12  15
ENDBRANCH   8   9
ENDBRANCH   6   8
BRANCH   6  27
HETATM   27  C   UNL     1      -8.282   8.601  66.460  1.00  0.00    -0.107 C  
HETATM   28  C   UNL     1      -8.763   9.811  65.597  1.00  0.00    -0.148 C  
HETATM   29  O   UNL     1      -8.019  10.755  65.335  1.00  0.00    -0.126 OA 
HETATM   30  C   UNL     1      -7.347   7.640  65.663  1.00  0.00    -0.073 C  
HETATM   31  O   UNL     1      -9.988   9.759  65.049  1.00  0.00    -0.286 OA 
HETATM   32  C   UNL     1      -8.053   6.530  64.892  1.00  0.00    -0.119 C  
HETATM   33  C   UNL     1      -6.318   8.349  64.780  1.00  0.00    -0.064 C  
ENDBRANCH   6  27
ENDBRANCH   4   5
ENDBRANCH   3   4
ENDBRANCH   2   3
TORSDOF 8
ENDMDL
MODEL      142
REMARK 921   NORMALIZED FREE ENERGY PREDICTED BY IDOCK:   -5.18 KCAL/MOL
REMARK 922        TOTAL FREE ENERGY PREDICTED BY IDOCK:   -8.13 KCAL/MOL
REMARK 923 INTER-LIGAND FREE ENERGY PREDICTED BY IDOCK:   -8.62 KCAL/MOL
REMARK 924 INTRA-LIGAND FREE ENERGY PREDICTED BY IDOCK:    0.49 KCAL/MOL
REMARK 927      BINDING AFFINITY PREDICTED BY RF-SCORE:    0.00 PKD
ROOT
HETATM    1  C   UNL     1     -12.856  10.217  70.899  1.00  0.00    -0.463 C  
HETATM    2  C   UNL     1     -11.968  11.305  70.331  1.00  0.00    -0.471 C  
ENDROOT
BRANCH   2   3
HETATM    3  C   UNL     1     -10.637  10.763  69.806  1.00  0.00    -0.191 C  
BRANCH   3   4
HETATM    4  C   UNL     1      -9.891  11.883  69.079  1.00  0.00     0.118 C  
BRANCH   4   5
HETATM    5  C   UNL     1     -10.650  12.484  67.916  1.00  0.00    -0.218 C  
HETATM    6  N   UNL     1     -11.070  13.810  68.005  1.00  0.00    -0.253 N  
HETATM    7  O   UNL     1     -10.902  11.802  66.918  1.00  0.00    -0.244 OA 
BRANCH   6   8
HETATM    8  C   UNL     1     -10.750  14.674  69.179  1.00  0.00    -0.255 C  
BRANCH   8   9
HETATM    9  C   UNL     1      -9.763  15.794  68.895  1.00  0.00    -0.225 A  
HETATM   10  C   UNL     1      -8.393  15.533  68.870  1.00  0.00    -0.205 A  
HETATM   11  C   UNL     1      -7.468  16.587  68.930  1.00  0.00    -0.225 A  
HETATM   12  C   UNL     1      -7.853  17.939  68.928  1.00  0.00    -0.190 A  
HETATM   13  C   UNL     1     -10.153  17.124  68.717  1.00  0.00    -0.329 A  
HETATM   14  C   UNL     1      -9.217  18.175  68.703  1.00  0.00    -0.295 A  
BRANCH  12  15
HETATM   15  C   UNL     1      -6.845  19.029  69.166  1.00  0.00    -0.342 A  
HETATM   16  C   UNL     1      -6.473  19.276  70.520  1.00  0.00     0.172 A  
HETATM   17  C   UNL     1      -5.659  20.339  70.912  1.00  0.00    -0.325 A  
HETATM   18  C   UNL     1      -5.134  21.185  69.953  1.00  0.00    -0.335 A  
HETATM   19  C   UNL     1      -5.429  20.953  68.612  1.00  0.00    -0.375 A  
HETATM   20  C   UNL     1      -6.280  19.896  68.190  1.00  0.00    -0.280 A  
BRANCH  20  21
HETATM   21  C   UNL     1      -6.500  19.842  66.746  1.00  0.00    -0.191 A  
HETATM   22  N   UNL     1      -7.170  20.791  66.060  1.00  0.00    -0.502 NA 
HETATM   23  N   UNL     1      -7.172  20.261  64.832  1.00  0.00    -0.180 NA 
HETATM   24  H   UNL     1      -7.566  21.672  66.387  1.00  0.00     0.000 HD 
HETATM   25  N   UNL     1      -6.540  19.087  64.703  1.00  0.00    -0.388 NA 
HETATM   26  N   UNL     1      -6.138  18.792  65.933  1.00  0.00    -0.180 NA 
ENDBRANCH  20  21
ENDBRANCH  12  15
ENDBRANCH   8   9
ENDBRANCH   6   8
BRANCH   6  27
HETATM   27  C   UNL     1     -11.659  14.496  66.795  1.00  0.00    -0.376 C  
HETATM   28  C   UNL     1     -12.731  13.786  65.909  1.00  0.00    -0.401 C  
HETATM   29  O   UNL     1     -13.635  14.414  65.360  1.00  0.00    -0.428 OA 
HETATM   30  C   UNL     1     -10.603  15.267  65.944  1.00  0.00    -0.345 C  
HETATM   31  O   UNL     1     -12.593  12.472  65.665  1.00  0.00    -0.612 OA 
HETATM   32  C   UNL     1      -9.390  14.452  65.511  1.00  0.00     0.262 C  
HETATM   33  C   UNL     1     -11.190  16.043  64.763  1.00  0.00    -0.348 C  
ENDBRANCH   6  27
ENDBRANCH   4   5
ENDBRANCH   3   4
ENDBRANCH   2   3
TORSDOF 8
ENDMDL
MODEL      143
REMARK 921   NORMALIZED FREE ENERGY PREDICTED BY IDOCK:   -5.18 KCAL/MOL
REMARK 922        TOTAL FREE ENERGY PREDICTED BY IDOCK:   -8.13 KCAL/MOL
REMARK 923 INTER-LIGAND FREE ENERGY PREDICTED BY IDOCK:   -7.32 KCAL/MOL
REMARK 924 INTRA-LIGAND FREE ENERGY PREDICTED BY IDOCK:   -0.81 KCAL/MOL
REMARK 927      BINDING AFFINITY PREDICTED BY RF-SCORE:    0.00 PKD
ROOT
HETATM    1  C   UNL     1     -12.467   9.235  71.780  1.00  0.00    -0.458 C  
HETATM    2  C   UNL     1     -10.980   9.404  71.540  1.00  0.00    -0.429 C  
ENDROOT
BRANCH   2   3
HETATM    3  C   UNL     1     -10.611   9.329  70.057  1.00  0.00    -0.256 C  
BRANCH   3   4
HETATM    4  C   UNL     1     -10.178  10.715  69.577  1.00  0.00    -0.190 C  
BRANCH   4   5
HETATM    5  C   UNL     1     -11.108  11.341  68.560  1.00  0.00    -0.235 C  
HETATM    6  N   UNL     1     -10.569  11.825  67.369  1.00  0.00    -0.217 N  
HETATM    7  O   UNL     1     -12.317  11.431  68.794  1.00  0.00    -0.480 OA 
BRANCH   6   8
HETATM    8  C   UNL     1      -9.120  11.699  67.037  1.00  0.00    -0.179 C  
BRANCH   8   9
HETATM    9  C   UNL     1      -8.623  10.271  66.890  1.00  0.00    -0.127 A  
HETATM   10  C   UNL     1      -9.477   9.275  66.416  1.00  0.00    -0.277 A  
HETATM   11  C   UNL     1      -9.148   7.920  66.575  1.00  0.00    -0.209 A  
HETATM   12  C   UNL     1      -7.926   7.494  67.127  1.00  0.00    -0.117 A  
HETATM   13  C   UNL     1      -7.342   9.867  67.278  1.00  0.00    -0.087 A  
HETATM   14  C   UNL     1      -6.988   8.509  67.366  1.00  0.00    -0.078 A  
BRANCH  12  15
HETATM   15  C   UNL     1      -7.685   6.043  67.438  1.00  0.00    -0.097 A  
HETATM   16  C   UNL     1      -6.633   5.399  66.723  1.00  0.00    -0.056 A  
HETATM   17  C   UNL     1      -6.378   4.029  66.799  1.00  0.00    -0.036 A  
HETATM   18  C   UNL     1      -7.140   3.240  67.639  1.00  0.00    -0.050 A  
HETATM   19  C   UNL     1      -8.148   3.834  68.396  1.00  0.00    -0.079 A  
HETATM   20  C   UNL     1      -8.446   5.220  68.313  1.00  0.00    -0.096 A  
BRANCH  20  21
HETATM   21  C   UNL     1      -9.563   5.644  69.155  1.00  0.00    -0.135 A  
HETATM   22  N   UNL     1      -9.478   5.773  70.496  1.00  0.00    -0.164 NA 
HETATM   23  N   UNL     1     -10.741   6.092  70.799  1.00  0.00    -0.251 NA 
HETATM   24  H   UNL     1      -8.672   5.659  71.109  1.00  0.00     0.000 HD 
HETATM   25  N   UNL     1     -11.582   6.196  69.762  1.00  0.00    -0.316 NA 
HETATM   26  N   UNL     1     -10.845   5.874  68.706  1.00  0.00    -0.296 NA 
ENDBRANCH  20  21
ENDBRANCH  12  15
ENDBRANCH   8   9
ENDBRANCH   6   8
BRANCH   6  27
HETATM   27  C   UNL     1     -11.485  12.281  66.259  1.00  0.00    -0.380 C  
HETATM   28  C   UNL     1     -11.155  11.974  64.764  1.00  0.00    -0.317 C  
HETATM   29  O   UNL     1     -12.040  11.754  63.938  1.00  0.00    -0.377 OA 
HETATM   30  C   UNL     1     -12.030  13.729  66.460  1.00  0.00    -0.470 C  
HETATM   31  O   UNL     1      -9.876  12.055  64.361  1.00  0.00    -0.233 OA 
HETATM   32  C   UNL     1     -10.970  14.799  66.700  1.00  0.00    -0.326 C  
HETATM   33  C   UNL     1     -13.030  14.181  65.393  1.00  0.00    -0.300 C  
ENDBRANCH   6  27
ENDBRANCH   4   5
ENDBRANCH   3   4
ENDBRANCH   2   3
TORSDOF 8
ENDMDL
MODEL      144
REMARK 921   NORMALIZED FREE ENERGY PREDICTED BY IDOCK:   -5.18 KCAL/MOL
REMARK 922        TOTAL FREE ENERGY PREDICTED BY IDOCK:   -8.12 KCAL/MOL
REMARK 923 INTER-LIGAND FREE ENERGY PREDICTED BY IDOCK:   -7.76 KCAL/MOL
REMARK 924 INTRA-LIGAND FREE ENERGY PREDICTED BY IDOCK:   -0.37 KCAL/MOL
REMARK 927      BINDING AFFINITY PREDICTED BY RF-SCORE:    0.00 PKD
ROOT
HETATM    1  C   UNL     1     -13.066   7.652  71.770  1.00  0.00    -0.359 C  
HETATM    2  C   UNL     1     -11.779   7.913  72.526  1.00  0.00    -0.423 C  
ENDROOT
BRANCH   2   3
HETATM    3  C   UNL     1     -10.886   8.942  71.830  1.00  0.00    -0.433 C  
BRANCH   3   4
HETATM    4  C   UNL     1     -10.701   8.539  70.367  1.00  0.00    -0.246 C  
BRANCH   4   5
HETATM    5  C   UNL     1      -9.364   7.898  70.062  1.00  0.00    -0.157 C  
HETATM    6  N   UNL     1      -8.979   7.758  68.729  1.00  0.00    -0.141 N  
HETATM    7  O   UNL     1      -8.642   7.497  70.979  1.00  0.00    -0.130 OA 
BRANCH   6   8
HETATM    8  C   UNL     1      -9.809   8.265  67.598  1.00  0.00    -0.169 C  
BRANCH   8   9
HETATM    9  C   UNL     1      -9.967   9.775  67.552  1.00  0.00    -0.230 A  
HETATM   10  C   UNL     1      -8.945  10.603  68.018  1.00  0.00    -0.140 A  
HETATM   11  C   UNL     1      -9.192  11.959  68.281  1.00  0.00    -0.187 A  
HETATM   12  C   UNL     1     -10.429  12.573  68.013  1.00  0.00    -0.227 A  
HETATM   13  C   UNL     1     -11.138  10.405  67.121  1.00  0.00    -0.195 A  
HETATM   14  C   UNL     1     -11.355  11.781  67.318  1.00  0.00    -0.379 A  
BRANCH  12  15
HETATM   15  C   UNL     1     -10.707  13.979  68.467  1.00  0.00    -0.266 A  
HETATM   16  C   UNL     1     -10.109  15.029  67.710  1.00  0.00    -0.234 A  
HETATM   17  C   UNL     1     -10.159  16.372  68.084  1.00  0.00    -0.251 A  
HETATM   18  C   UNL     1     -10.859  16.737  69.219  1.00  0.00    -0.275 A  
HETATM   19  C   UNL     1     -11.502  15.751  69.964  1.00  0.00    -0.359 A  
HETATM   20  C   UNL     1     -11.440  14.374  69.620  1.00  0.00    -0.331 A  
BRANCH  20  21
HETATM   21  C   UNL     1     -12.145  13.491  70.547  1.00  0.00    -0.335 A  
HETATM   22  N   UNL     1     -12.014  12.147  70.541  1.00  0.00    -0.500 NA 
HETATM   23  N   UNL     1     -12.895  11.804  71.487  1.00  0.00    -0.389 NA 
HETATM   24  H   UNL     1     -11.410  11.556  69.970  1.00  0.00     0.000 HD 
HETATM   25  N   UNL     1     -13.530  12.818  72.088  1.00  0.00    -0.542 NA 
HETATM   26  N   UNL     1     -13.084  13.902  71.467  1.00  0.00    -0.353 NA 
ENDBRANCH  20  21
ENDBRANCH  12  15
ENDBRANCH   8   9
ENDBRANCH   6   8
BRANCH   6  27
HETATM   27  C   UNL     1      -7.579   7.300  68.395  1.00  0.00    -0.118 C  
HETATM   28  C   UNL     1      -6.819   7.867  67.155  1.00  0.00    -0.073 C  
HETATM   29  O   UNL     1      -5.600   8.033  67.164  1.00  0.00    -0.035 OA 
HETATM   30  C   UNL     1      -7.374   5.761  68.562  1.00  0.00    -0.084 C  
HETATM   31  O   UNL     1      -7.510   8.081  66.023  1.00  0.00    -0.075 OA 
HETATM   32  C   UNL     1      -8.375   4.884  67.819  1.00  0.00    -0.104 C  
HETATM   33  C   UNL     1      -5.941   5.285  68.315  1.00  0.00    -0.021 C  
ENDBRANCH   6  27
ENDBRANCH   4   5
ENDBRANCH   3   4
ENDBRANCH   2   3
TORSDOF 8
ENDMDL
MODEL      145
REMARK 921   NORMALIZED FREE ENERGY PREDICTED BY IDOCK:   -5.16 KCAL/MOL
REMARK 922        TOTAL FREE ENERGY PREDICTED BY IDOCK:   -8.09 KCAL/MOL
REMARK 923 INTER-LIGAND FREE ENERGY PREDICTED BY IDOCK:   -8.34 KCAL/MOL
REMARK 924 INTRA-LIGAND FREE ENERGY PREDICTED BY IDOCK:    0.24 KCAL/MOL
REMARK 927      BINDING AFFINITY PREDICTED BY RF-SCORE:    0.00 PKD
ROOT
HETATM    1  C   UNL     1      -8.213   6.459  65.058  1.00  0.00    -0.125 C  
HETATM    2  C   UNL     1      -9.022   7.235  66.076  1.00  0.00    -0.149 C  
ENDROOT
BRANCH   2   3
HETATM    3  C   UNL     1      -8.178   8.254  66.845  1.00  0.00    -0.103 C  
BRANCH   3   4
HETATM    4  C   UNL     1      -8.027   9.520  66.000  1.00  0.00    -0.107 C  
BRANCH   4   5
HETATM    5  C   UNL     1      -9.333  10.082  65.483  1.00  0.00    -0.216 C  
HETATM    6  N   UNL     1      -9.921  11.147  66.165  1.00  0.00    -0.221 N  
HETATM    7  O   UNL     1      -9.870   9.592  64.485  1.00  0.00    -0.085 OA 
BRANCH   6   8
HETATM    8  C   UNL     1      -9.281  11.787  67.351  1.00  0.00    -0.174 C  
BRANCH   8   9
HETATM    9  C   UNL     1      -9.495  11.051  68.663  1.00  0.00    -0.197 A  
HETATM   10  C   UNL     1      -8.401  10.621  69.414  1.00  0.00    -0.073 A  
HETATM   11  C   UNL     1      -8.570   9.678  70.440  1.00  0.00    -0.200 A  
HETATM   12  C   UNL     1      -9.831   9.188  70.824  1.00  0.00    -0.334 A  
HETATM   13  C   UNL     1     -10.762  10.708  69.145  1.00  0.00    -0.264 A  
HETATM   14  C   UNL     1     -10.930   9.819  70.223  1.00  0.00    -0.352 A  
BRANCH  12  15
HETATM   15  C   UNL     1      -9.952   8.055  71.805  1.00  0.00    -0.245 A  
HETATM   16  C   UNL     1      -8.750   7.369  72.147  1.00  0.00    -0.134 A  
HETATM   17  C   UNL     1      -8.720   6.216  72.932  1.00  0.00    -0.122 A  
HETATM   18  C   UNL     1      -9.898   5.719  73.458  1.00  0.00    -0.169 A  
HETATM   19  C   UNL     1     -11.092   6.385  73.193  1.00  0.00    -0.194 A  
HETATM   20  C   UNL     1     -11.152   7.543  72.371  1.00  0.00    -0.349 A  
BRANCH  20  21
HETATM   21  C   UNL     1     -12.501   8.073  72.179  1.00  0.00    -0.296 A  
HETATM   22  N   UNL     1     -13.378   7.569  71.285  1.00  0.00    -0.558 NA 
HETATM   23  N   UNL     1     -14.400   8.419  71.428  1.00  0.00    -0.384 NA 
HETATM   24  H   UNL     1     -13.286   6.761  70.669  1.00  0.00     0.000 HD 
HETATM   25  N   UNL     1     -14.236   9.379  72.347  1.00  0.00    -0.319 NA 
HETATM   26  N   UNL     1     -13.006   9.188  72.809  1.00  0.00    -0.268 NA 
ENDBRANCH  20  21
ENDBRANCH  12  15
ENDBRANCH   8   9
ENDBRANCH   6   8
BRANCH   6  27
HETATM   27  C   UNL     1     -11.118  11.852  65.572  1.00  0.00    -0.304 C  
HETATM   28  C   UNL     1     -11.221  12.113  64.036  1.00  0.00    -0.390 C  
HETATM   29  O   UNL     1     -12.301  12.093  63.448  1.00  0.00    -0.552 OA 
HETATM   30  C   UNL     1     -11.595  13.075  66.415  1.00  0.00    -0.413 C  
HETATM   31  O   UNL     1     -10.109  12.467  63.370  1.00  0.00    -0.393 OA 
HETATM   32  C   UNL     1     -10.521  14.107  66.738  1.00  0.00    -0.277 C  
HETATM   33  C   UNL     1     -12.860  13.752  65.882  1.00  0.00    -0.369 C  
ENDBRANCH   6  27
ENDBRANCH   4   5
ENDBRANCH   3   4
ENDBRANCH   2   3
TORSDOF 8
ENDMDL
MODEL      146
REMARK 921   NORMALIZED FREE ENERGY PREDICTED BY IDOCK:   -5.16 KCAL/MOL
REMARK 922        TOTAL FREE ENERGY PREDICTED BY IDOCK:   -8.09 KCAL/MOL
REMARK 923 INTER-LIGAND FREE ENERGY PREDICTED BY IDOCK:   -7.69 KCAL/MOL
REMARK 924 INTRA-LIGAND FREE ENERGY PREDICTED BY IDOCK:   -0.40 KCAL/MOL
REMARK 927      BINDING AFFINITY PREDICTED BY RF-SCORE:    0.00 PKD
ROOT
HETATM    1  C   UNL     1     -10.352   6.645  73.978  1.00  0.00    -0.377 C  
HETATM    2  C   UNL     1      -9.561   7.869  73.562  1.00  0.00    -0.281 C  
ENDROOT
BRANCH   2   3
HETATM    3  C   UNL     1      -9.174   7.843  72.081  1.00  0.00    -0.213 C  
BRANCH   3   4
HETATM    4  C   UNL     1     -10.435   7.988  71.229  1.00  0.00    -0.238 C  
BRANCH   4   5
HETATM    5  C   UNL     1     -10.718   6.805  70.329  1.00  0.00    -0.244 C  
HETATM    6  N   UNL     1     -10.031   6.704  69.121  1.00  0.00    -0.154 N  
HETATM    7  O   UNL     1     -11.554   5.958  70.658  1.00  0.00    -0.169 OA 
BRANCH   6   8
HETATM    8  C   UNL     1      -8.988   7.688  68.708  1.00  0.00    -0.133 C  
BRANCH   8   9
HETATM    9  C   UNL     1      -9.499   9.103  68.491  1.00  0.00    -0.151 A  
HETATM   10  C   UNL     1     -10.723   9.318  67.856  1.00  0.00    -0.248 A  
HETATM   11  C   UNL     1     -11.054  10.591  67.366  1.00  0.00    -0.322 A  
HETATM   12  C   UNL     1     -10.236  11.718  67.559  1.00  0.00    -0.214 A  
HETATM   13  C   UNL     1      -8.764  10.239  68.840  1.00  0.00    -0.152 A  
HETATM   14  C   UNL     1      -9.138  11.525  68.411  1.00  0.00    -0.185 A  
BRANCH  12  15
HETATM   15  C   UNL     1     -10.542  13.020  66.873  1.00  0.00    -0.260 A  
HETATM   16  C   UNL     1     -10.272  13.089  65.475  1.00  0.00    -0.296 A  
HETATM   17  C   UNL     1     -10.373  14.265  64.729  1.00  0.00    -0.373 A  
HETATM   18  C   UNL     1     -10.800  15.427  65.345  1.00  0.00    -0.403 A  
HETATM   19  C   UNL     1     -11.124  15.396  66.699  1.00  0.00    -0.236 A  
HETATM   20  C   UNL     1     -11.000  14.220  67.485  1.00  0.00    -0.297 A  
BRANCH  20  21
HETATM   21  C   UNL     1     -11.349  14.400  68.893  1.00  0.00    -0.274 A  
HETATM   22  N   UNL     1     -12.470  13.897  69.453  1.00  0.00    -0.394 NA 
HETATM   23  N   UNL     1     -12.375  14.389  70.693  1.00  0.00    -0.328 NA 
HETATM   24  H   UNL     1     -13.192  13.305  69.042  1.00  0.00     0.000 HD 
HETATM   25  N   UNL     1     -11.285  15.123  70.948  1.00  0.00    -0.302 NA 
HETATM   26  N   UNL     1     -10.638  15.167  69.789  1.00  0.00    -0.259 NA 
ENDBRANCH  20  21
ENDBRANCH  12  15
ENDBRANCH   8   9
ENDBRANCH   6   8
BRANCH   6  27
HETATM   27  C   UNL     1     -10.149   5.448  68.291  1.00  0.00    -0.167 C  
HETATM   28  C   UNL     1      -9.303   4.178  68.625  1.00  0.00    -0.157 C  
HETATM   29  O   UNL     1      -9.741   3.043  68.444  1.00  0.00    -0.116 OA 
HETATM   30  C   UNL     1     -10.222   5.723  66.756  1.00  0.00    -0.269 C  
HETATM   31  O   UNL     1      -8.031   4.343  69.024  1.00  0.00    -0.069 OA 
HETATM   32  C   UNL     1      -9.100   6.588  66.193  1.00  0.00    -0.146 C  
HETATM   33  C   UNL     1     -10.430   4.473  65.900  1.00  0.00    -0.262 C  
ENDBRANCH   6  27
ENDBRANCH   4   5
ENDBRANCH   3   4
ENDBRANCH   2   3
TORSDOF 8
ENDMDL
MODEL      147
REMARK 921   NORMALIZED FREE ENERGY PREDICTED BY IDOCK:   -5.15 KCAL/MOL
REMARK 922        TOTAL FREE ENERGY PREDICTED BY IDOCK:   -8.09 KCAL/MOL
REMARK 923 INTER-LIGAND FREE ENERGY PREDICTED BY IDOCK:   -8.50 KCAL/MOL
REMARK 924 INTRA-LIGAND FREE ENERGY PREDICTED BY IDOCK:    0.42 KCAL/MOL
REMARK 927      BINDING AFFINITY PREDICTED BY RF-SCORE:    0.00 PKD
ROOT
HETATM    1  C   UNL     1      -6.227  14.673  70.302  1.00  0.00    -0.173 C  
HETATM    2  C   UNL     1      -6.573  16.007  69.672  1.00  0.00    -0.185 C  
ENDROOT
BRANCH   2   3
HETATM    3  C   UNL     1      -6.663  15.931  68.146  1.00  0.00    -0.131 C  
BRANCH   3   4
HETATM    4  C   UNL     1      -7.578  14.770  67.754  1.00  0.00    -0.174 C  
BRANCH   4   5
HETATM    5  C   UNL     1      -8.798  15.181  66.957  1.00  0.00    -0.234 C  
HETATM    6  N   UNL     1      -9.376  14.252  66.093  1.00  0.00    -0.215 N  
HETATM    7  O   UNL     1      -9.256  16.322  67.064  1.00  0.00    -0.205 OA 
BRANCH   6   8
HETATM    8  C   UNL     1      -8.871  12.854  65.967  1.00  0.00     0.416 C  
BRANCH   8   9
HETATM    9  C   UNL     1      -9.437  11.879  66.986  1.00  0.00    -0.192 A  
HETATM   10  C   UNL     1     -10.601  11.164  66.704  1.00  0.00    -0.314 A  
HETATM   11  C   UNL     1     -11.306  10.518  67.732  1.00  0.00    -0.267 A  
HETATM   12  C   UNL     1     -10.846  10.476  69.060  1.00  0.00    -0.272 A  
HETATM   13  C   UNL     1      -8.882  11.700  68.257  1.00  0.00    -0.167 A  
HETATM   14  C   UNL     1      -9.556  10.988  69.266  1.00  0.00    -0.008 A  
BRANCH  12  15
HETATM   15  C   UNL     1     -11.711   9.925  70.159  1.00  0.00    -0.239 A  
HETATM   16  C   UNL     1     -12.513  10.860  70.876  1.00  0.00    -0.507 A  
HETATM   17  C   UNL     1     -13.260  10.525  72.006  1.00  0.00    -0.483 A  
HETATM   18  C   UNL     1     -13.278   9.215  72.447  1.00  0.00    -0.512 A  
HETATM   19  C   UNL     1     -12.549   8.256  71.748  1.00  0.00    -0.364 A  
HETATM   20  C   UNL     1     -11.757   8.578  70.613  1.00  0.00    -0.161 A  
BRANCH  20  21
HETATM   21  C   UNL     1     -11.035   7.442  70.043  1.00  0.00    -0.248 A  
HETATM   22  N   UNL     1     -11.634   6.459  69.336  1.00  0.00    -0.618 NA 
HETATM   23  N   UNL     1     -10.598   5.642  69.114  1.00  0.00    -0.268 NA 
HETATM   24  H   UNL     1     -12.608   6.366  69.051  1.00  0.00     0.000 HD 
HETATM   25  N   UNL     1      -9.418   6.051  69.598  1.00  0.00    -0.143 NA 
HETATM   26  N   UNL     1      -9.695   7.187  70.228  1.00  0.00    -0.176 NA 
ENDBRANCH  20  21
ENDBRANCH  12  15
ENDBRANCH   8   9
ENDBRANCH   6   8
BRANCH   6  27
HETATM   27  C   UNL     1     -10.696  14.562  65.429  1.00  0.00    -0.361 C  
HETATM   28  C   UNL     1     -10.953  15.946  64.752  1.00  0.00    -0.375 C  
HETATM   29  O   UNL     1     -11.655  16.053  63.747  1.00  0.00    -0.613 OA 
HETATM   30  C   UNL     1     -11.931  14.063  66.242  1.00  0.00    -0.454 C  
HETATM   31  O   UNL     1     -10.473  17.050  65.348  1.00  0.00    -0.619 OA 
HETATM   32  C   UNL     1     -11.986  14.520  67.695  1.00  0.00    -0.355 C  
HETATM   33  C   UNL     1     -13.276  14.286  65.548  1.00  0.00     0.113 C  
ENDBRANCH   6  27
ENDBRANCH   4   5
ENDBRANCH   3   4
ENDBRANCH   2   3
TORSDOF 8
ENDMDL
MODEL      148
REMARK 921   NORMALIZED FREE ENERGY PREDICTED BY IDOCK:   -5.14 KCAL/MOL
REMARK 922        TOTAL FREE ENERGY PREDICTED BY IDOCK:   -8.08 KCAL/MOL
REMARK 923 INTER-LIGAND FREE ENERGY PREDICTED BY IDOCK:   -7.79 KCAL/MOL
REMARK 924 INTRA-LIGAND FREE ENERGY PREDICTED BY IDOCK:   -0.29 KCAL/MOL
REMARK 927      BINDING AFFINITY PREDICTED BY RF-SCORE:    0.00 PKD
ROOT
HETATM    1  C   UNL     1     -13.157  11.457  71.694  1.00  0.00    -0.498 C  
HETATM    2  C   UNL     1     -13.197   9.973  71.392  1.00  0.00    -0.486 C  
ENDROOT
BRANCH   2   3
HETATM    3  C   UNL     1     -11.973   9.500  70.604  1.00  0.00    -0.266 C  
BRANCH   3   4
HETATM    4  C   UNL     1     -11.721   8.023  70.907  1.00  0.00    -0.265 C  
BRANCH   4   5
HETATM    5  C   UNL     1     -10.605   7.772  71.898  1.00  0.00    -0.223 C  
HETATM    6  N   UNL     1      -9.541   6.957  71.514  1.00  0.00    -0.163 N  
HETATM    7  O   UNL     1     -10.651   8.269  73.027  1.00  0.00    -0.264 OA 
BRANCH   6   8
HETATM    8  C   UNL     1      -9.434   6.370  70.146  1.00  0.00    -0.160 C  
BRANCH   8   9
HETATM    9  C   UNL     1      -9.471   7.384  69.015  1.00  0.00    -0.148 A  
HETATM   10  C   UNL     1      -8.745   8.572  69.112  1.00  0.00    -0.134 A  
HETATM   11  C   UNL     1      -9.014   9.642  68.246  1.00  0.00    -0.123 A  
HETATM   12  C   UNL     1      -9.944   9.556  67.195  1.00  0.00    -0.261 A  
HETATM   13  C   UNL     1     -10.266   7.226  67.877  1.00  0.00    -0.237 A  
HETATM   14  C   UNL     1     -10.476   8.278  66.966  1.00  0.00    -0.384 A  
BRANCH  12  15
HETATM   15  C   UNL     1     -10.327  10.773  66.400  1.00  0.00    -0.306 A  
HETATM   16  C   UNL     1     -11.266  11.663  67.000  1.00  0.00    -0.376 A  
HETATM   17  C   UNL     1     -11.820  12.757  66.335  1.00  0.00    -0.472 A  
HETATM   18  C   UNL     1     -11.421  13.043  65.043  1.00  0.00    -0.345 A  
HETATM   19  C   UNL     1     -10.469  12.230  64.433  1.00  0.00    -0.355 A  
HETATM   20  C   UNL     1      -9.912  11.094  65.078  1.00  0.00    -0.325 A  
BRANCH  20  21
HETATM   21  C   UNL     1      -8.959  10.346  64.260  1.00  0.00    -0.226 A  
HETATM   22  N   UNL     1      -9.315   9.628  63.173  1.00  0.00    -0.506 NA 
HETATM   23  N   UNL     1      -8.140   9.085  62.835  1.00  0.00    -0.156 NA 
HETATM   24  H   UNL     1     -10.229   9.527  62.732  1.00  0.00     0.000 HD 
HETATM   25  N   UNL     1      -7.096   9.428  63.600  1.00  0.00    -0.099 NA 
HETATM   26  N   UNL     1      -7.618  10.208  64.539  1.00  0.00    -0.142 NA 
ENDBRANCH  20  21
ENDBRANCH  12  15
ENDBRANCH   8   9
ENDBRANCH   6   8
BRANCH   6  27
HETATM   27  C   UNL     1      -8.325   6.839  72.403  1.00  0.00    -0.108 C  
HETATM   28  C   UNL     1      -7.494   8.098  72.805  1.00  0.00    -0.125 C  
HETATM   29  O   UNL     1      -6.950   8.191  73.904  1.00  0.00    -0.118 OA 
HETATM   30  C   UNL     1      -7.418   5.618  72.053  1.00  0.00    -0.095 C  
HETATM   31  O   UNL     1      -7.292   9.054  71.882  1.00  0.00    -0.317 OA 
HETATM   32  C   UNL     1      -6.980   5.525  70.596  1.00  0.00    -0.057 C  
HETATM   33  C   UNL     1      -6.228   5.426  72.995  1.00  0.00    -0.047 C  
ENDBRANCH   6  27
ENDBRANCH   4   5
ENDBRANCH   3   4
ENDBRANCH   2   3
TORSDOF 8
ENDMDL
MODEL      149
REMARK 921   NORMALIZED FREE ENERGY PREDICTED BY IDOCK:   -5.14 KCAL/MOL
REMARK 922        TOTAL FREE ENERGY PREDICTED BY IDOCK:   -8.06 KCAL/MOL
REMARK 923 INTER-LIGAND FREE ENERGY PREDICTED BY IDOCK:   -7.67 KCAL/MOL
REMARK 924 INTRA-LIGAND FREE ENERGY PREDICTED BY IDOCK:   -0.40 KCAL/MOL
REMARK 927      BINDING AFFINITY PREDICTED BY RF-SCORE:    0.00 PKD
ROOT
HETATM    1  C   UNL     1     -11.186  12.121  63.421  1.00  0.00    -0.494 C  
HETATM    2  C   UNL     1     -12.439  12.473  64.198  1.00  0.00    -0.518 C  
ENDROOT
BRANCH   2   3
HETATM    3  C   UNL     1     -12.395  13.891  64.772  1.00  0.00    -0.429 C  
BRANCH   3   4
HETATM    4  C   UNL     1     -12.205  13.813  66.288  1.00  0.00    -0.489 C  
BRANCH   4   5
HETATM    5  C   UNL     1     -11.209  14.808  66.842  1.00  0.00    -0.347 C  
HETATM    6  N   UNL     1      -9.859  14.462  66.865  1.00  0.00    -0.254 N  
HETATM    7  O   UNL     1     -11.594  15.897  67.279  1.00  0.00    -0.002 OA 
BRANCH   6   8
HETATM    8  C   UNL     1      -9.354  13.171  66.312  1.00  0.00    -0.127 C  
BRANCH   8   9
HETATM    9  C   UNL     1      -9.597  11.961  67.199  1.00  0.00    -0.192 A  
HETATM   10  C   UNL     1     -10.577  11.027  66.860  1.00  0.00    -0.307 A  
HETATM   11  C   UNL     1     -11.031  10.098  67.809  1.00  0.00    -0.338 A  
HETATM   12  C   UNL     1     -10.478   9.994  69.098  1.00  0.00    -0.238 A  
HETATM   13  C   UNL     1      -8.924  11.756  68.406  1.00  0.00    -0.168 A  
HETATM   14  C   UNL     1      -9.334  10.773  69.326  1.00  0.00    -0.087 A  
BRANCH  12  15
HETATM   15  C   UNL     1     -11.105   9.107  70.137  1.00  0.00    -0.248 A  
HETATM   16  C   UNL     1     -12.226   9.636  70.842  1.00  0.00    -0.368 A  
HETATM   17  C   UNL     1     -12.827   8.992  71.925  1.00  0.00    -0.451 A  
HETATM   18  C   UNL     1     -12.360   7.754  72.326  1.00  0.00    -0.260 A  
HETATM   19  C   UNL     1     -11.299   7.175  71.635  1.00  0.00    -0.282 A  
HETATM   20  C   UNL     1     -10.651   7.824  70.549  1.00  0.00    -0.226 A  
BRANCH  20  21
HETATM   21  C   UNL     1      -9.533   7.072  69.982  1.00  0.00    -0.161 A  
HETATM   22  N   UNL     1      -9.544   5.732  69.818  1.00  0.00    -0.153 NA 
HETATM   23  N   UNL     1      -8.306   5.525  69.358  1.00  0.00    -0.101 NA 
HETATM   24  H   UNL     1     -10.292   5.062  69.997  1.00  0.00     0.000 HD 
HETATM   25  N   UNL     1      -7.550   6.619  69.200  1.00  0.00    -0.098 NA 
HETATM   26  N   UNL     1      -8.316   7.613  69.633  1.00  0.00    -0.128 NA 
ENDBRANCH  20  21
ENDBRANCH  12  15
ENDBRANCH   8   9
ENDBRANCH   6   8
BRANCH   6  27
HETATM   27  C   UNL     1      -8.822  15.497  67.233  1.00  0.00    -0.201 C  
HETATM   28  C   UNL     1      -7.300  15.229  67.009  1.00  0.00    -0.037 C  
HETATM   29  O   UNL     1      -6.523  16.133  66.703  1.00  0.00    -0.254 OA 
HETATM   30  C   UNL     1      -9.106  16.198  68.598  1.00  0.00    -0.218 C  
HETATM   31  O   UNL     1      -6.823  13.998  67.257  1.00  0.00    -0.214 OA 
HETATM   32  C   UNL     1      -9.317  15.262  69.783  1.00  0.00    -0.084 C  
HETATM   33  C   UNL     1      -8.118  17.312  68.952  1.00  0.00    -0.189 C  
ENDBRANCH   6  27
ENDBRANCH   4   5
ENDBRANCH   3   4
ENDBRANCH   2   3
TORSDOF 8
ENDMDL
MODEL      150
REMARK 921   NORMALIZED FREE ENERGY PREDICTED BY IDOCK:   -5.13 KCAL/MOL
REMARK 922        TOTAL FREE ENERGY PREDICTED BY IDOCK:   -8.05 KCAL/MOL
REMARK 923 INTER-LIGAND FREE ENERGY PREDICTED BY IDOCK:   -8.27 KCAL/MOL
REMARK 924 INTRA-LIGAND FREE ENERGY PREDICTED BY IDOCK:    0.22 KCAL/MOL
REMARK 927      BINDING AFFINITY PREDICTED BY RF-SCORE:    0.00 PKD
ROOT
HETATM    1  C   UNL     1      -9.538   3.735  70.924  1.00  0.00    -0.256 C  
HETATM    2  C   UNL     1      -9.586   3.761  69.410  1.00  0.00    -0.219 C  
ENDROOT
BRANCH   2   3
HETATM    3  C   UNL     1     -10.391   4.944  68.867  1.00  0.00    -0.069 C  
BRANCH   3   4
HETATM    4  C   UNL     1      -9.681   6.247  69.239  1.00  0.00    -0.157 C  
BRANCH   4   5
HETATM    5  C   UNL     1      -8.806   6.814  68.142  1.00  0.00    -0.120 C  
HETATM    6  N   UNL     1      -9.356   7.745  67.261  1.00  0.00    -0.140 N  
HETATM    7  O   UNL     1      -7.634   6.444  68.026  1.00  0.00    -0.098 OA 
BRANCH   6   8
HETATM    8  C   UNL     1     -10.756   8.243  67.395  1.00  0.00    -0.166 C  
BRANCH   8   9
HETATM    9  C   UNL     1     -10.897   9.545  68.164  1.00  0.00    -0.208 A  
HETATM   10  C   UNL     1     -10.784   9.556  69.555  1.00  0.00    -0.246 A  
HETATM   11  C   UNL     1     -11.222  10.665  70.295  1.00  0.00    -0.365 A  
HETATM   12  C   UNL     1     -11.706  11.840  69.692  1.00  0.00    -0.413 A  
HETATM   13  C   UNL     1     -11.210  10.761  67.550  1.00  0.00    -0.346 A  
HETATM   14  C   UNL     1     -11.577  11.896  68.297  1.00  0.00    -0.390 A  
BRANCH  12  15
HETATM   15  C   UNL     1     -12.324  12.933  70.519  1.00  0.00    -0.362 A  
HETATM   16  C   UNL     1     -13.138  12.527  71.617  1.00  0.00    -0.414 A  
HETATM   17  C   UNL     1     -13.886  13.416  72.389  1.00  0.00    -0.665 A  
HETATM   18  C   UNL     1     -13.816  14.772  72.126  1.00  0.00    -0.578 A  
HETATM   19  C   UNL     1     -12.994  15.220  71.095  1.00  0.00    -0.521 A  
HETATM   20  C   UNL     1     -12.247  14.332  70.276  1.00  0.00    -0.407 A  
BRANCH  20  21
HETATM   21  C   UNL     1     -11.478  14.992  69.223  1.00  0.00    -0.307 A  
HETATM   22  N   UNL     1     -12.036  15.517  68.111  1.00  0.00    -0.424 NA 
HETATM   23  N   UNL     1     -10.946  15.915  67.446  1.00  0.00    -0.296 NA 
HETATM   24  H   UNL     1     -13.019  15.590  67.851  1.00  0.00     0.000 HD 
HETATM   25  N   UNL     1      -9.776  15.705  68.063  1.00  0.00    -0.204 NA 
HETATM   26  N   UNL     1     -10.104  15.079  69.187  1.00  0.00    -0.240 NA 
ENDBRANCH  20  21
ENDBRANCH  12  15
ENDBRANCH   8   9
ENDBRANCH   6   8
BRANCH   6  27
HETATM   27  C   UNL     1      -8.466   8.469  66.279  1.00  0.00    -0.124 C  
HETATM   28  C   UNL     1      -7.632   7.685  65.217  1.00  0.00    -0.089 C  
HETATM   29  O   UNL     1      -7.414   8.146  64.097  1.00  0.00    -0.093 OA 
HETATM   30  C   UNL     1      -7.657   9.638  66.922  1.00  0.00    -0.095 C  
HETATM   31  O   UNL     1      -7.060   6.525  65.580  1.00  0.00    -0.061 OA 
HETATM   32  C   UNL     1      -6.839   9.268  68.154  1.00  0.00    -0.064 C  
HETATM   33  C   UNL     1      -6.815  10.442  65.929  1.00  0.00    -0.131 C  
ENDBRANCH   6  27
ENDBRANCH   4   5
ENDBRANCH   3   4
ENDBRANCH   2   3
TORSDOF 8
ENDMDL
MODEL      151
REMARK 921   NORMALIZED FREE ENERGY PREDICTED BY IDOCK:   -5.12 KCAL/MOL
REMARK 922        TOTAL FREE ENERGY PREDICTED BY IDOCK:   -8.03 KCAL/MOL
REMARK 923 INTER-LIGAND FREE ENERGY PREDICTED BY IDOCK:   -6.96 KCAL/MOL
REMARK 924 INTRA-LIGAND FREE ENERGY PREDICTED BY IDOCK:   -1.07 KCAL/MOL
REMARK 927      BINDING AFFINITY PREDICTED BY RF-SCORE:    0.00 PKD
ROOT
HETATM    1  C   UNL     1      -7.106   7.840  65.907  1.00  0.00    -0.064 C  
HETATM    2  C   UNL     1      -8.558   7.433  66.059  1.00  0.00    -0.162 C  
ENDROOT
BRANCH   2   3
HETATM    3  C   UNL     1      -9.521   8.605  65.854  1.00  0.00    -0.243 C  
BRANCH   3   4
HETATM    4  C   UNL     1      -8.758   9.783  65.249  1.00  0.00    -0.182 C  
BRANCH   4   5
HETATM    5  C   UNL     1      -9.624  10.973  64.899  1.00  0.00    -0.245 C  
HETATM    6  N   UNL     1      -9.558  12.109  65.705  1.00  0.00    -0.230 N  
HETATM    7  O   UNL     1     -10.385  10.926  63.928  1.00  0.00    -0.346 OA 
BRANCH   6   8
HETATM    8  C   UNL     1      -8.624  12.214  66.864  1.00  0.00    -0.191 C  
BRANCH   8   9
HETATM    9  C   UNL     1      -9.007  11.368  68.067  1.00  0.00    -0.163 A  
HETATM   10  C   UNL     1      -8.122  10.410  68.563  1.00  0.00    -0.116 A  
HETATM   11  C   UNL     1      -8.572   9.418  69.447  1.00  0.00    -0.148 A  
HETATM   12  C   UNL     1      -9.885   9.382  69.948  1.00  0.00    -0.235 A  
HETATM   13  C   UNL     1     -10.257  11.448  68.686  1.00  0.00    -0.217 A  
HETATM   14  C   UNL     1     -10.680  10.495  69.631  1.00  0.00    -0.302 A  
BRANCH  12  15
HETATM   15  C   UNL     1     -10.373   8.211  70.754  1.00  0.00    -0.217 A  
HETATM   16  C   UNL     1     -11.718   7.793  70.533  1.00  0.00    -0.118 A  
HETATM   17  C   UNL     1     -12.355   6.816  71.298  1.00  0.00    -0.395 A  
HETATM   18  C   UNL     1     -11.654   6.170  72.299  1.00  0.00    -0.362 A  
HETATM   19  C   UNL     1     -10.321   6.510  72.519  1.00  0.00    -0.216 A  
HETATM   20  C   UNL     1      -9.660   7.522  71.774  1.00  0.00    -0.178 A  
BRANCH  20  21
HETATM   21  C   UNL     1      -8.277   7.760  72.182  1.00  0.00    -0.113 A  
HETATM   22  N   UNL     1      -7.888   8.830  72.907  1.00  0.00    -0.377 NA 
HETATM   23  N   UNL     1      -6.564   8.641  72.946  1.00  0.00    -0.244 NA 
HETATM   24  H   UNL     1      -8.450   9.578  73.314  1.00  0.00     0.000 HD 
HETATM   25  N   UNL     1      -6.114   7.539  72.333  1.00  0.00    -0.040 NA 
HETATM   26  N   UNL     1      -7.201   6.986  71.808  1.00  0.00    -0.077 NA 
ENDBRANCH  20  21
ENDBRANCH  12  15
ENDBRANCH   8   9
ENDBRANCH   6   8
BRANCH   6  27
HETATM   27  C   UNL     1     -10.262  13.375  65.280  1.00  0.00    -0.298 C  
HETATM   28  C   UNL     1      -9.719  14.779  65.697  1.00  0.00    -0.278 C  
HETATM   29  O   UNL     1      -9.825  15.758  64.960  1.00  0.00    -0.336 OA 
HETATM   30  C   UNL     1     -11.817  13.285  65.388  1.00  0.00    -0.392 C  
HETATM   31  O   UNL     1      -9.218  14.930  66.934  1.00  0.00    -0.219 OA 
HETATM   32  C   UNL     1     -12.354  12.849  66.746  1.00  0.00    -0.010 C  
HETATM   33  C   UNL     1     -12.556  14.524  64.880  1.00  0.00    -0.246 C  
ENDBRANCH   6  27
ENDBRANCH   4   5
ENDBRANCH   3   4
ENDBRANCH   2   3
TORSDOF 8
ENDMDL
MODEL      152
REMARK 921   NORMALIZED FREE ENERGY PREDICTED BY IDOCK:   -5.11 KCAL/MOL
REMARK 922        TOTAL FREE ENERGY PREDICTED BY IDOCK:   -8.03 KCAL/MOL
REMARK 923 INTER-LIGAND FREE ENERGY PREDICTED BY IDOCK:   -8.34 KCAL/MOL
REMARK 924 INTRA-LIGAND FREE ENERGY PREDICTED BY IDOCK:    0.30 KCAL/MOL
REMARK 927      BINDING AFFINITY PREDICTED BY RF-SCORE:    0.00 PKD
ROOT
HETATM    1  C   UNL     1      -7.178  17.830  68.811  1.00  0.00    -0.271 C  
HETATM    2  C   UNL     1      -6.771  16.442  68.359  1.00  0.00    -0.141 C  
ENDROOT
BRANCH   2   3
HETATM    3  C   UNL     1      -7.312  16.093  66.971  1.00  0.00    -0.266 C  
BRANCH   3   4
HETATM    4  C   UNL     1      -8.122  14.800  67.058  1.00  0.00    -0.177 C  
BRANCH   4   5
HETATM    5  C   UNL     1      -9.402  14.811  66.251  1.00  0.00    -0.278 C  
HETATM    6  N   UNL     1      -9.805  13.635  65.620  1.00  0.00    -0.223 N  
HETATM    7  O   UNL     1     -10.062  15.849  66.145  1.00  0.00    -0.275 OA 
BRANCH   6   8
HETATM    8  C   UNL     1      -9.052  12.354  65.757  1.00  0.00     0.178 C  
BRANCH   8   9
HETATM    9  C   UNL     1      -9.459  11.502  66.948  1.00  0.00    -0.194 A  
HETATM   10  C   UNL     1     -10.254  10.371  66.764  1.00  0.00    -0.282 A  
HETATM   11  C   UNL     1     -10.897   9.768  67.856  1.00  0.00    -0.298 A  
HETATM   12  C   UNL     1     -10.712  10.200  69.182  1.00  0.00    -0.254 A  
HETATM   13  C   UNL     1      -9.132  11.832  68.266  1.00  0.00    -0.187 A  
HETATM   14  C   UNL     1      -9.720  11.176  69.363  1.00  0.00     0.145 A  
BRANCH  12  15
HETATM   15  C   UNL     1     -11.548   9.641  70.299  1.00  0.00    -0.255 A  
HETATM   16  C   UNL     1     -12.591  10.474  70.801  1.00  0.00    -0.474 A  
HETATM   17  C   UNL     1     -13.359  10.153  71.921  1.00  0.00    -0.505 A  
HETATM   18  C   UNL     1     -13.149   8.951  72.569  1.00  0.00    -0.426 A  
HETATM   19  C   UNL     1     -12.174   8.082  72.085  1.00  0.00    -0.377 A  
HETATM   20  C   UNL     1     -11.359   8.399  70.965  1.00  0.00    -0.303 A  
BRANCH  20  21
HETATM   21  C   UNL     1     -10.367   7.377  70.637  1.00  0.00    -0.212 A  
HETATM   22  N   UNL     1      -9.198   7.235  71.297  1.00  0.00    -0.150 NA 
HETATM   23  N   UNL     1      -8.628   6.253  70.591  1.00  0.00    -0.137 NA 
HETATM   24  H   UNL     1      -8.847   7.739  72.111  1.00  0.00     0.000 HD 
HETATM   25  N   UNL     1      -9.354   5.765  69.578  1.00  0.00    -0.129 NA 
HETATM   26  N   UNL     1     -10.456   6.504  69.575  1.00  0.00    -0.205 NA 
ENDBRANCH  20  21
ENDBRANCH  12  15
ENDBRANCH   8   9
ENDBRANCH   6   8
BRANCH   6  27
HETATM   27  C   UNL     1     -11.165  13.559  64.968  1.00  0.00    -0.322 C  
HETATM   28  C   UNL     1     -12.468  13.480  65.825  1.00  0.00    -0.462 C  
HETATM   29  O   UNL     1     -13.518  14.006  65.457  1.00  0.00    -0.677 OA 
HETATM   30  C   UNL     1     -11.208  12.604  63.735  1.00  0.00    -0.519 C  
HETATM   31  O   UNL     1     -12.456  12.731  66.941  1.00  0.00    -0.307 OA 
HETATM   32  C   UNL     1     -10.698  11.189  63.986  1.00  0.00    -0.409 C  
HETATM   33  C   UNL     1     -12.552  12.578  63.004  1.00  0.00     0.057 C  
ENDBRANCH   6  27
ENDBRANCH   4   5
ENDBRANCH   3   4
ENDBRANCH   2   3
TORSDOF 8
ENDMDL
MODEL      153
REMARK 921   NORMALIZED FREE ENERGY PREDICTED BY IDOCK:   -5.11 KCAL/MOL
REMARK 922        TOTAL FREE ENERGY PREDICTED BY IDOCK:   -8.03 KCAL/MOL
REMARK 923 INTER-LIGAND FREE ENERGY PREDICTED BY IDOCK:   -8.08 KCAL/MOL
REMARK 924 INTRA-LIGAND FREE ENERGY PREDICTED BY IDOCK:    0.05 KCAL/MOL
REMARK 927      BINDING AFFINITY PREDICTED BY RF-SCORE:    0.00 PKD
ROOT
HETATM    1  C   UNL     1      -8.612   4.324  64.816  1.00  0.00    -0.127 C  
HETATM    2  C   UNL     1      -9.558   4.168  65.989  1.00  0.00    -0.198 C  
ENDROOT
BRANCH   2   3
HETATM    3  C   UNL     1     -10.312   5.460  66.312  1.00  0.00    -0.251 C  
BRANCH   3   4
HETATM    4  C   UNL     1      -9.326   6.494  66.856  1.00  0.00    -0.166 C  
BRANCH   4   5
HETATM    5  C   UNL     1      -9.071   6.389  68.344  1.00  0.00    -0.118 C  
HETATM    6  N   UNL     1      -9.835   7.168  69.211  1.00  0.00    -0.159 N  
HETATM    7  O   UNL     1      -8.191   5.637  68.773  1.00  0.00    -0.102 OA 
BRANCH   6   8
HETATM    8  C   UNL     1     -10.931   8.059  68.731  1.00  0.00     0.182 C  
BRANCH   8   9
HETATM    9  C   UNL     1     -10.523   9.506  68.508  1.00  0.00    -0.247 A  
HETATM   10  C   UNL     1     -11.414  10.540  68.796  1.00  0.00    -0.291 A  
HETATM   11  C   UNL     1     -11.183  11.834  68.304  1.00  0.00    -0.313 A  
HETATM   12  C   UNL     1     -10.025  12.181  67.586  1.00  0.00    -0.199 A  
HETATM   13  C   UNL     1      -9.294   9.872  67.950  1.00  0.00    -0.149 A  
HETATM   14  C   UNL     1      -9.036  11.188  67.526  1.00  0.00    -0.139 A  
BRANCH  12  15
HETATM   15  C   UNL     1      -9.897  13.528  66.932  1.00  0.00    -0.257 A  
HETATM   16  C   UNL     1      -9.046  14.476  67.573  1.00  0.00    -0.193 A  
HETATM   17  C   UNL     1      -8.933  15.806  67.166  1.00  0.00    -0.233 A  
HETATM   18  C   UNL     1      -9.635  16.242  66.058  1.00  0.00    -0.371 A  
HETATM   19  C   UNL     1     -10.442  15.338  65.370  1.00  0.00    -0.422 A  
HETATM   20  C   UNL     1     -10.597  13.988  65.782  1.00  0.00    -0.303 A  
BRANCH  20  21
HETATM   21  C   UNL     1     -11.516  13.210  64.954  1.00  0.00    -0.309 A  
HETATM   22  N   UNL     1     -12.853  13.397  64.949  1.00  0.00    -0.723 NA 
HETATM   23  N   UNL     1     -13.241  12.420  64.122  1.00  0.00    -0.661 NA 
HETATM   24  H   UNL     1     -13.414  14.092  65.442  1.00  0.00     0.000 HD 
HETATM   25  N   UNL     1     -12.260  11.672  63.601  1.00  0.00    -0.344 NA 
HETATM   26  N   UNL     1     -11.153  12.147  64.158  1.00  0.00    -0.334 NA 
ENDBRANCH  20  21
ENDBRANCH  12  15
ENDBRANCH   8   9
ENDBRANCH   6   8
BRANCH   6  27
HETATM   27  C   UNL     1      -9.738   6.950  70.702  1.00  0.00    -0.175 C  
HETATM   28  C   UNL     1      -9.553   5.519  71.298  1.00  0.00    -0.155 C  
HETATM   29  O   UNL     1      -8.894   5.323  72.318  1.00  0.00    -0.128 OA 
HETATM   30  C   UNL     1     -10.756   7.805  71.520  1.00  0.00    -0.255 C  
HETATM   31  O   UNL     1     -10.218   4.498  70.731  1.00  0.00    -0.194 OA 
HETATM   32  C   UNL     1     -12.213   7.674  71.092  1.00  0.00    -0.310 C  
HETATM   33  C   UNL     1     -10.618   7.669  73.038  1.00  0.00    -0.433 C  
ENDBRANCH   6  27
ENDBRANCH   4   5
ENDBRANCH   3   4
ENDBRANCH   2   3
TORSDOF 8
ENDMDL
MODEL      154
REMARK 921   NORMALIZED FREE ENERGY PREDICTED BY IDOCK:   -5.11 KCAL/MOL
REMARK 922        TOTAL FREE ENERGY PREDICTED BY IDOCK:   -8.02 KCAL/MOL
REMARK 923 INTER-LIGAND FREE ENERGY PREDICTED BY IDOCK:   -7.45 KCAL/MOL
REMARK 924 INTRA-LIGAND FREE ENERGY PREDICTED BY IDOCK:   -0.58 KCAL/MOL
REMARK 927      BINDING AFFINITY PREDICTED BY RF-SCORE:    0.00 PKD
ROOT
HETATM    1  C   UNL     1      -8.846   9.688  64.238  1.00  0.00    -0.260 C  
HETATM    2  C   UNL     1      -7.471   9.914  64.834  1.00  0.00    -0.135 C  
ENDROOT
BRANCH   2   3
HETATM    3  C   UNL     1      -7.212   9.040  66.063  1.00  0.00    -0.093 C  
BRANCH   3   4
HETATM    4  C   UNL     1      -8.168   7.846  66.040  1.00  0.00    -0.122 C  
BRANCH   4   5
HETATM    5  C   UNL     1      -7.965   6.865  67.174  1.00  0.00    -0.113 C  
HETATM    6  N   UNL     1      -9.030   6.608  68.036  1.00  0.00    -0.118 N  
HETATM    7  O   UNL     1      -6.869   6.318  67.335  1.00  0.00    -0.059 OA 
BRANCH   6   8
HETATM    8  C   UNL     1     -10.377   7.221  67.848  1.00  0.00    -0.201 C  
BRANCH   8   9
HETATM    9  C   UNL     1     -10.428   8.723  68.073  1.00  0.00    -0.260 A  
HETATM   10  C   UNL     1      -9.944   9.273  69.261  1.00  0.00    -0.180 A  
HETATM   11  C   UNL     1     -10.269  10.590  69.619  1.00  0.00    -0.207 A  
HETATM   12  C   UNL     1     -11.008  11.446  68.783  1.00  0.00    -0.272 A  
HETATM   13  C   UNL     1     -11.010   9.609  67.162  1.00  0.00    -0.066 A  
HETATM   14  C   UNL     1     -11.268  10.952  67.495  1.00  0.00    -0.364 A  
BRANCH  12  15
HETATM   15  C   UNL     1     -11.481  12.786  69.273  1.00  0.00    -0.349 A  
HETATM   16  C   UNL     1     -12.043  12.829  70.583  1.00  0.00    -0.316 A  
HETATM   17  C   UNL     1     -12.648  13.965  71.123  1.00  0.00    -0.446 A  
HETATM   18  C   UNL     1     -12.675  15.136  70.389  1.00  0.00    -0.378 A  
HETATM   19  C   UNL     1     -12.094  15.155  69.123  1.00  0.00    -0.258 A  
HETATM   20  C   UNL     1     -11.499  14.005  68.540  1.00  0.00    -0.336 A  
BRANCH  20  21
HETATM   21  C   UNL     1     -10.980  14.216  67.190  1.00  0.00    -0.299 A  
HETATM   22  N   UNL     1      -9.714  14.605  66.932  1.00  0.00    -0.234 NA 
HETATM   23  N   UNL     1      -9.756  14.735  65.602  1.00  0.00    -0.322 NA 
HETATM   24  H   UNL     1      -8.938  14.759  67.576  1.00  0.00     0.000 HD 
HETATM   25  N   UNL     1     -10.925  14.434  65.023  1.00  0.00    -0.366 NA 
HETATM   26  N   UNL     1     -11.728  14.136  66.037  1.00  0.00    -0.368 NA 
ENDBRANCH  20  21
ENDBRANCH  12  15
ENDBRANCH   8   9
ENDBRANCH   6   8
BRANCH   6  27
HETATM   27  C   UNL     1      -8.922   5.499  69.056  1.00  0.00    -0.108 C  
HETATM   28  C   UNL     1      -8.934   3.999  68.622  1.00  0.00    -0.117 C  
HETATM   29  O   UNL     1      -8.281   3.147  69.223  1.00  0.00    -0.058 OA 
HETATM   30  C   UNL     1      -9.776   5.752  70.337  1.00  0.00    -0.224 C  
HETATM   31  O   UNL     1      -9.760   3.626  67.630  1.00  0.00    -0.176 OA 
HETATM   32  C   UNL     1     -11.249   6.060  70.092  1.00  0.00    -0.412 C  
HETATM   33  C   UNL     1      -9.614   4.686  71.423  1.00  0.00    -0.230 C  
ENDBRANCH   6  27
ENDBRANCH   4   5
ENDBRANCH   3   4
ENDBRANCH   2   3
TORSDOF 8
ENDMDL
MODEL      155
REMARK 921   NORMALIZED FREE ENERGY PREDICTED BY IDOCK:   -5.07 KCAL/MOL
REMARK 922        TOTAL FREE ENERGY PREDICTED BY IDOCK:   -7.96 KCAL/MOL
REMARK 923 INTER-LIGAND FREE ENERGY PREDICTED BY IDOCK:   -7.28 KCAL/MOL
REMARK 924 INTRA-LIGAND FREE ENERGY PREDICTED BY IDOCK:   -0.68 KCAL/MOL
REMARK 927      BINDING AFFINITY PREDICTED BY RF-SCORE:    0.00 PKD
ROOT
HETATM    1  C   UNL     1      -6.236  13.796  69.179  1.00  0.00    -0.100 C  
HETATM    2  C   UNL     1      -5.926  12.793  70.272  1.00  0.00    -0.127 C  
ENDROOT
BRANCH   2   3
HETATM    3  C   UNL     1      -6.258  11.357  69.862  1.00  0.00    -0.143 C  
BRANCH   3   4
HETATM    4  C   UNL     1      -7.650  11.324  69.230  1.00  0.00    -0.022 C  
BRANCH   4   5
HETATM    5  C   UNL     1      -7.687  10.735  67.836  1.00  0.00    -0.100 C  
HETATM    6  N   UNL     1      -8.793  10.996  67.029  1.00  0.00    -0.141 N  
HETATM    7  O   UNL     1      -6.759  10.026  67.435  1.00  0.00    -0.072 OA 
BRANCH   6   8
HETATM    8  C   UNL     1      -9.914  11.878  67.468  1.00  0.00    -0.187 C  
BRANCH   8   9
HETATM    9  C   UNL     1      -9.561  13.353  67.566  1.00  0.00    -0.221 A  
HETATM   10  C   UNL     1     -10.070  14.129  68.606  1.00  0.00    -0.229 A  
HETATM   11  C   UNL     1     -10.024  15.530  68.537  1.00  0.00    -0.208 A  
HETATM   12  C   UNL     1      -9.396  16.220  67.484  1.00  0.00    -0.217 A  
HETATM   13  C   UNL     1      -8.787  14.015  66.608  1.00  0.00    -0.117 A  
HETATM   14  C   UNL     1      -8.679  15.417  66.583  1.00  0.00    -0.332 A  
BRANCH  12  15
HETATM   15  C   UNL     1      -9.516  17.713  67.359  1.00  0.00    -0.256 A  
HETATM   16  C   UNL     1     -10.555  18.205  66.515  1.00  0.00    -0.290 A  
HETATM   17  C   UNL     1     -10.707  19.553  66.190  1.00  0.00    -0.528 A  
HETATM   18  C   UNL     1      -9.848  20.487  66.739  1.00  0.00    -0.460 A  
HETATM   19  C   UNL     1      -8.848  20.059  67.608  1.00  0.00    -0.407 A  
HETATM   20  C   UNL     1      -8.654  18.689  67.930  1.00  0.00    -0.305 A  
BRANCH  20  21
HETATM   21  C   UNL     1      -7.528  18.437  68.828  1.00  0.00    -0.279 A  
HETATM   22  N   UNL     1      -6.814  19.419  69.418  1.00  0.00    -0.325 NA 
HETATM   23  N   UNL     1      -5.877  18.703  70.050  1.00  0.00    -0.252 NA 
HETATM   24  H   UNL     1      -6.951  20.429  69.390  1.00  0.00     0.000 HD 
HETATM   25  N   UNL     1      -5.972  17.373  69.920  1.00  0.00    -0.251 NA 
HETATM   26  N   UNL     1      -7.006  17.194  69.107  1.00  0.00    -0.237 NA 
ENDBRANCH  20  21
ENDBRANCH  12  15
ENDBRANCH   8   9
ENDBRANCH   6   8
BRANCH   6  27
HETATM   27  C   UNL     1      -8.778  10.585  65.576  1.00  0.00    -0.185 C  
HETATM   28  C   UNL     1      -9.772  11.214  64.549  1.00  0.00    -0.265 C  
HETATM   29  O   UNL     1      -9.454  11.410  63.377  1.00  0.00    -0.281 OA 
HETATM   30  C   UNL     1      -8.607   9.048  65.368  1.00  0.00    -0.200 C  
HETATM   31  O   UNL     1     -11.035  11.450  64.942  1.00  0.00    -0.283 OA 
HETATM   32  C   UNL     1      -9.601   8.171  66.122  1.00  0.00    -0.188 C  
HETATM   33  C   UNL     1      -8.500   8.617  63.904  1.00  0.00    -0.075 C  
ENDBRANCH   6  27
ENDBRANCH   4   5
ENDBRANCH   3   4
ENDBRANCH   2   3
TORSDOF 8
ENDMDL
MODEL      156
REMARK 921   NORMALIZED FREE ENERGY PREDICTED BY IDOCK:   -5.06 KCAL/MOL
REMARK 922        TOTAL FREE ENERGY PREDICTED BY IDOCK:   -7.96 KCAL/MOL
REMARK 923 INTER-LIGAND FREE ENERGY PREDICTED BY IDOCK:   -7.96 KCAL/MOL
REMARK 924 INTRA-LIGAND FREE ENERGY PREDICTED BY IDOCK:   -0.00 KCAL/MOL
REMARK 927      BINDING AFFINITY PREDICTED BY RF-SCORE:    0.00 PKD
ROOT
HETATM    1  C   UNL     1      -5.679  16.704  68.963  1.00  0.00    -0.141 C  
HETATM    2  C   UNL     1      -6.045  15.238  68.845  1.00  0.00    -0.093 C  
ENDROOT
BRANCH   2   3
HETATM    3  C   UNL     1      -6.698  14.901  67.503  1.00  0.00    -0.167 C  
BRANCH   3   4
HETATM    4  C   UNL     1      -7.873  13.952  67.741  1.00  0.00    -0.172 C  
BRANCH   4   5
HETATM    5  C   UNL     1      -9.067  14.202  66.844  1.00  0.00    -0.245 C  
HETATM    6  N   UNL     1      -9.555  13.150  66.071  1.00  0.00    -0.209 N  
HETATM    7  O   UNL     1      -9.583  15.323  66.793  1.00  0.00    -0.223 OA 
BRANCH   6   8
HETATM    8  C   UNL     1      -8.979  11.775  66.136  1.00  0.00    -0.145 C  
BRANCH   8   9
HETATM    9  C   UNL     1      -9.619  10.867  67.173  1.00  0.00    -0.187 A  
HETATM   10  C   UNL     1      -9.780  11.305  68.487  1.00  0.00    -0.199 A  
HETATM   11  C   UNL     1     -10.063  10.389  69.512  1.00  0.00    -0.246 A  
HETATM   12  C   UNL     1     -10.287   9.022  69.271  1.00  0.00    -0.227 A  
HETATM   13  C   UNL     1     -10.007   9.553  66.897  1.00  0.00    -0.278 A  
HETATM   14  C   UNL     1     -10.365   8.655  67.919  1.00  0.00    -0.286 A  
BRANCH  12  15
HETATM   15  C   UNL     1     -10.417   8.049  70.409  1.00  0.00    -0.218 A  
HETATM   16  C   UNL     1     -11.707   7.484  70.628  1.00  0.00    -0.240 A  
HETATM   17  C   UNL     1     -12.017   6.676  71.723  1.00  0.00    -0.391 A  
HETATM   18  C   UNL     1     -11.028   6.353  72.633  1.00  0.00    -0.284 A  
HETATM   19  C   UNL     1      -9.739   6.841  72.433  1.00  0.00    -0.165 A  
HETATM   20  C   UNL     1      -9.406   7.689  71.344  1.00  0.00    -0.157 A  
BRANCH  20  21
HETATM   21  C   UNL     1      -8.012   8.129  71.330  1.00  0.00    -0.099 A  
HETATM   22  N   UNL     1      -7.095   7.667  70.454  1.00  0.00    -0.057 NA 
HETATM   23  N   UNL     1      -5.994   8.289  70.890  1.00  0.00    -0.033 NA 
HETATM   24  H   UNL     1      -7.210   7.021  69.673  1.00  0.00     0.000 HD 
HETATM   25  N   UNL     1      -6.163   9.109  71.935  1.00  0.00    -0.212 NA 
HETATM   26  N   UNL     1      -7.446   8.985  72.248  1.00  0.00    -0.325 NA 
ENDBRANCH  20  21
ENDBRANCH  12  15
ENDBRANCH   8   9
ENDBRANCH   6   8
BRANCH   6  27
HETATM   27  C   UNL     1     -10.852  13.311  65.314  1.00  0.00    -0.301 C  
HETATM   28  C   UNL     1     -12.230  13.144  66.029  1.00  0.00    -0.414 C  
HETATM   29  O   UNL     1     -13.212  13.809  65.703  1.00  0.00    -0.574 OA 
HETATM   30  C   UNL     1     -10.832  12.644  63.903  1.00  0.00    -0.468 C  
HETATM   31  O   UNL     1     -12.359  12.177  66.953  1.00  0.00    -0.402 OA 
HETATM   32  C   UNL     1     -10.422  11.176  63.880  1.00  0.00    -0.445 C  
HETATM   33  C   UNL     1     -12.103  12.869  63.081  1.00  0.00    -0.351 C  
ENDBRANCH   6  27
ENDBRANCH   4   5
ENDBRANCH   3   4
ENDBRANCH   2   3
TORSDOF 8
ENDMDL
MODEL      157
REMARK 921   NORMALIZED FREE ENERGY PREDICTED BY IDOCK:   -5.05 KCAL/MOL
REMARK 922        TOTAL FREE ENERGY PREDICTED BY IDOCK:   -7.94 KCAL/MOL
REMARK 923 INTER-LIGAND FREE ENERGY PREDICTED BY IDOCK:   -7.51 KCAL/MOL
REMARK 924 INTRA-LIGAND FREE ENERGY PREDICTED BY IDOCK:   -0.43 KCAL/MOL
REMARK 927      BINDING AFFINITY PREDICTED BY RF-SCORE:    0.00 PKD
ROOT
HETATM    1  C   UNL     1     -10.913   6.345  68.455  1.00  0.00    -0.390 C  
HETATM    2  C   UNL     1     -10.493   6.580  67.018  1.00  0.00    -0.364 C  
ENDROOT
BRANCH   2   3
HETATM    3  C   UNL     1      -9.827   7.943  66.815  1.00  0.00    -0.318 C  
BRANCH   3   4
HETATM    4  C   UNL     1     -10.908   9.001  66.590  1.00  0.00     0.151 C  
BRANCH   4   5
HETATM    5  C   UNL     1     -10.379  10.348  66.149  1.00  0.00    -0.200 C  
HETATM    6  N   UNL     1     -10.858  11.495  66.782  1.00  0.00    -0.270 N  
HETATM    7  O   UNL     1      -9.552  10.424  65.236  1.00  0.00    -0.216 OA 
BRANCH   6   8
HETATM    8  C   UNL     1     -11.829  11.438  67.913  1.00  0.00    -0.165 C  
BRANCH   8   9
HETATM    9  C   UNL     1     -11.313  10.737  69.159  1.00  0.00    -0.348 A  
HETATM   10  C   UNL     1      -9.947  10.510  69.323  1.00  0.00    -0.233 A  
HETATM   11  C   UNL     1      -9.489   9.598  70.286  1.00  0.00    -0.300 A  
HETATM   12  C   UNL     1     -10.349   8.942  71.184  1.00  0.00    -0.338 A  
HETATM   13  C   UNL     1     -12.158  10.230  70.151  1.00  0.00    -0.279 A  
HETATM   14  C   UNL     1     -11.684   9.375  71.162  1.00  0.00    -0.418 A  
BRANCH  12  15
HETATM   15  C   UNL     1      -9.841   7.849  72.082  1.00  0.00    -0.264 A  
HETATM   16  C   UNL     1     -10.648   7.514  73.208  1.00  0.00    -0.438 A  
HETATM   17  C   UNL     1     -10.248   6.622  74.204  1.00  0.00    -0.390 A  
HETATM   18  C   UNL     1      -9.028   5.981  74.093  1.00  0.00    -0.128 A  
HETATM   19  C   UNL     1      -8.226   6.239  72.984  1.00  0.00    -0.114 A  
HETATM   20  C   UNL     1      -8.598   7.165  71.973  1.00  0.00    -0.118 A  
BRANCH  20  21
HETATM   21  C   UNL     1      -7.606   7.327  70.913  1.00  0.00    -0.084 A  
HETATM   22  N   UNL     1      -6.596   8.222  70.969  1.00  0.00    -0.038 NA 
HETATM   23  N   UNL     1      -6.036   8.046  69.768  1.00  0.00    -0.023 NA 
HETATM   24  H   UNL     1      -6.333   8.858  71.722  1.00  0.00     0.000 HD 
HETATM   25  N   UNL     1      -6.595   7.107  68.995  1.00  0.00    -0.043 NA 
HETATM   26  N   UNL     1      -7.626   6.666  69.705  1.00  0.00    -0.102 NA 
ENDBRANCH  20  21
ENDBRANCH  12  15
ENDBRANCH   8   9
ENDBRANCH   6   8
BRANCH   6  27
HETATM   27  C   UNL     1     -10.217  12.833  66.500  1.00  0.00    -0.253 C  
HETATM   28  C   UNL     1      -9.572  13.675  67.646  1.00  0.00    -0.221 C  
HETATM   29  O   UNL     1      -8.579  14.375  67.454  1.00  0.00    -0.178 OA 
HETATM   30  C   UNL     1     -11.034  13.714  65.505  1.00  0.00    -0.297 C  
HETATM   31  O   UNL     1     -10.185  13.707  68.841  1.00  0.00    -0.188 OA 
HETATM   32  C   UNL     1     -12.497  13.932  65.874  1.00  0.00    -0.519 C  
HETATM   33  C   UNL     1     -10.362  15.038  65.136  1.00  0.00    -0.422 C  
ENDBRANCH   6  27
ENDBRANCH   4   5
ENDBRANCH   3   4
ENDBRANCH   2   3
TORSDOF 8
ENDMDL
MODEL      158
REMARK 921   NORMALIZED FREE ENERGY PREDICTED BY IDOCK:   -5.05 KCAL/MOL
REMARK 922        TOTAL FREE ENERGY PREDICTED BY IDOCK:   -7.94 KCAL/MOL
REMARK 923 INTER-LIGAND FREE ENERGY PREDICTED BY IDOCK:   -8.52 KCAL/MOL
REMARK 924 INTRA-LIGAND FREE ENERGY PREDICTED BY IDOCK:    0.58 KCAL/MOL
REMARK 927      BINDING AFFINITY PREDICTED BY RF-SCORE:    0.00 PKD
ROOT
HETATM    1  C   UNL     1      -6.023  13.625  70.125  1.00  0.00    -0.146 C  
HETATM    2  C   UNL     1      -6.646  14.947  70.525  1.00  0.00     0.063 C  
ENDROOT
BRANCH   2   3
HETATM    3  C   UNL     1      -7.420  15.604  69.379  1.00  0.00    -0.221 C  
BRANCH   3   4
HETATM    4  C   UNL     1      -7.911  14.519  68.419  1.00  0.00    -0.135 C  
BRANCH   4   5
HETATM    5  C   UNL     1      -9.049  14.952  67.520  1.00  0.00    -0.183 C  
HETATM    6  N   UNL     1      -9.395  14.141  66.441  1.00  0.00    -0.262 N  
HETATM    7  O   UNL     1      -9.644  16.012  67.736  1.00  0.00    -0.217 OA 
BRANCH   6   8
HETATM    8  C   UNL     1      -8.722  12.836  66.173  1.00  0.00     0.361 C  
BRANCH   8   9
HETATM    9  C   UNL     1      -9.174  11.693  67.066  1.00  0.00    -0.185 A  
HETATM   10  C   UNL     1     -10.271  10.911  66.705  1.00  0.00    -0.277 A  
HETATM   11  C   UNL     1     -10.891  10.078  67.649  1.00  0.00    -0.336 A  
HETATM   12  C   UNL     1     -10.404   9.915  68.958  1.00  0.00    -0.224 A  
HETATM   13  C   UNL     1      -8.580  11.411  68.299  1.00  0.00    -0.156 A  
HETATM   14  C   UNL     1      -9.163  10.517  69.216  1.00  0.00    -0.164 A  
BRANCH  12  15
HETATM   15  C   UNL     1     -11.191   9.151  69.986  1.00  0.00    -0.168 A  
HETATM   16  C   UNL     1     -11.072   7.730  69.961  1.00  0.00    -0.182 A  
HETATM   17  C   UNL     1     -11.842   6.881  70.757  1.00  0.00    -0.427 A  
HETATM   18  C   UNL     1     -12.741   7.420  71.657  1.00  0.00    -0.399 A  
HETATM   19  C   UNL     1     -12.856   8.805  71.752  1.00  0.00    -0.406 A  
HETATM   20  C   UNL     1     -12.106   9.689  70.932  1.00  0.00    -0.383 A  
BRANCH  20  21
HETATM   21  C   UNL     1     -12.397  11.104  71.153  1.00  0.00    -0.346 A  
HETATM   22  N   UNL     1     -13.272  11.548  72.081  1.00  0.00    -0.559 NA 
HETATM   23  N   UNL     1     -13.248  12.864  71.842  1.00  0.00    -0.445 NA 
HETATM   24  H   UNL     1     -13.805  11.024  72.774  1.00  0.00     0.000 HD 
HETATM   25  N   UNL     1     -12.418  13.265  70.870  1.00  0.00    -0.366 NA 
HETATM   26  N   UNL     1     -11.895  12.140  70.398  1.00  0.00    -0.269 NA 
ENDBRANCH  20  21
ENDBRANCH  12  15
ENDBRANCH   8   9
ENDBRANCH   6   8
BRANCH   6  27
HETATM   27  C   UNL     1     -10.639  14.444  65.640  1.00  0.00    -0.329 C  
HETATM   28  C   UNL     1     -10.857  15.846  64.988  1.00  0.00    -0.426 C  
HETATM   29  O   UNL     1     -11.442  15.975  63.914  1.00  0.00    -0.601 OA 
HETATM   30  C   UNL     1     -11.943  13.881  66.286  1.00  0.00    -0.462 C  
HETATM   31  O   UNL     1     -10.482  16.937  65.676  1.00  0.00    -0.494 OA 
HETATM   32  C   UNL     1     -12.178  14.279  67.739  1.00  0.00    -0.199 C  
HETATM   33  C   UNL     1     -13.205  14.098  65.450  1.00  0.00     0.026 C  
ENDBRANCH   6  27
ENDBRANCH   4   5
ENDBRANCH   3   4
ENDBRANCH   2   3
TORSDOF 8
ENDMDL
MODEL      159
REMARK 921   NORMALIZED FREE ENERGY PREDICTED BY IDOCK:   -5.03 KCAL/MOL
REMARK 922        TOTAL FREE ENERGY PREDICTED BY IDOCK:   -7.91 KCAL/MOL
REMARK 923 INTER-LIGAND FREE ENERGY PREDICTED BY IDOCK:   -7.57 KCAL/MOL
REMARK 924 INTRA-LIGAND FREE ENERGY PREDICTED BY IDOCK:   -0.34 KCAL/MOL
REMARK 927      BINDING AFFINITY PREDICTED BY RF-SCORE:    0.00 PKD
ROOT
HETATM    1  C   UNL     1      -5.812   9.832  66.160  1.00  0.00    -0.062 C  
HETATM    2  C   UNL     1      -6.008  11.324  65.980  1.00  0.00     0.006 C  
ENDROOT
BRANCH   2   3
HETATM    3  C   UNL     1      -6.011  12.082  67.310  1.00  0.00    -0.146 C  
BRANCH   3   4
HETATM    4  C   UNL     1      -7.420  12.049  67.904  1.00  0.00    -0.114 C  
BRANCH   4   5
HETATM    5  C   UNL     1      -7.950  13.402  68.324  1.00  0.00    -0.147 C  
HETATM    6  N   UNL     1      -9.246  13.758  67.953  1.00  0.00    -0.192 N  
HETATM    7  O   UNL     1      -7.238  14.177  68.970  1.00  0.00    -0.116 OA 
BRANCH   6   8
HETATM    8  C   UNL     1     -10.147  12.833  67.205  1.00  0.00    -0.226 C  
BRANCH   8   9
HETATM    9  C   UNL     1     -10.558  11.588  67.973  1.00  0.00    -0.222 A  
HETATM   10  C   UNL     1     -11.183  11.702  69.215  1.00  0.00    -0.328 A  
HETATM   11  C   UNL     1     -11.275  10.592  70.069  1.00  0.00    -0.382 A  
HETATM   12  C   UNL     1     -10.837   9.308  69.699  1.00  0.00    -0.228 A  
HETATM   13  C   UNL     1     -10.279  10.293  67.527  1.00  0.00    -0.254 A  
HETATM   14  C   UNL     1     -10.443   9.170  68.360  1.00  0.00    -0.241 A  
BRANCH  12  15
HETATM   15  C   UNL     1     -10.796   8.188  70.701  1.00  0.00    -0.246 A  
HETATM   16  C   UNL     1     -11.946   7.349  70.774  1.00  0.00    -0.261 A  
HETATM   17  C   UNL     1     -12.115   6.358  71.742  1.00  0.00    -0.351 A  
HETATM   18  C   UNL     1     -11.109   6.127  72.662  1.00  0.00    -0.308 A  
HETATM   19  C   UNL     1      -9.945   6.889  72.598  1.00  0.00    -0.191 A  
HETATM   20  C   UNL     1      -9.763   7.923  71.642  1.00  0.00    -0.207 A  
BRANCH  20  21
HETATM   21  C   UNL     1      -8.492   8.635  71.763  1.00  0.00    -0.155 A  
HETATM   22  N   UNL     1      -7.990   9.432  70.795  1.00  0.00    -0.259 NA 
HETATM   23  N   UNL     1      -6.813   9.771  71.333  1.00  0.00    -0.303 NA 
HETATM   24  H   UNL     1      -8.398   9.702  69.900  1.00  0.00     0.000 HD 
HETATM   25  N   UNL     1      -6.564   9.274  72.551  1.00  0.00    -0.285 NA 
HETATM   26  N   UNL     1      -7.618   8.514  72.820  1.00  0.00    -0.327 NA 
ENDBRANCH  20  21
ENDBRANCH  12  15
ENDBRANCH   8   9
ENDBRANCH   6   8
BRANCH   6  27
HETATM   27  C   UNL     1      -9.871  15.014  68.513  1.00  0.00    -0.217 C  
HETATM   28  C   UNL     1     -11.417  15.132  68.698  1.00  0.00    -0.325 C  
HETATM   29  O   UNL     1     -11.911  15.768  69.628  1.00  0.00    -0.345 OA 
HETATM   30  C   UNL     1      -9.241  16.325  67.947  1.00  0.00    -0.201 C  
HETATM   31  O   UNL     1     -12.217  14.606  67.755  1.00  0.00    -0.254 OA 
HETATM   32  C   UNL     1      -9.197  16.426  66.427  1.00  0.00    -0.335 C  
HETATM   33  C   UNL     1      -9.797  17.609  68.565  1.00  0.00    -0.346 C  
ENDBRANCH   6  27
ENDBRANCH   4   5
ENDBRANCH   3   4
ENDBRANCH   2   3
TORSDOF 8
ENDMDL
MODEL      160
REMARK 921   NORMALIZED FREE ENERGY PREDICTED BY IDOCK:   -5.03 KCAL/MOL
REMARK 922        TOTAL FREE ENERGY PREDICTED BY IDOCK:   -7.91 KCAL/MOL
REMARK 923 INTER-LIGAND FREE ENERGY PREDICTED BY IDOCK:   -7.60 KCAL/MOL
REMARK 924 INTRA-LIGAND FREE ENERGY PREDICTED BY IDOCK:   -0.31 KCAL/MOL
REMARK 927      BINDING AFFINITY PREDICTED BY RF-SCORE:    0.00 PKD
ROOT
HETATM    1  C   UNL     1     -12.692  12.121  63.260  1.00  0.00    -0.417 C  
HETATM    2  C   UNL     1     -11.187  11.953  63.230  1.00  0.00    -0.382 C  
ENDROOT
BRANCH   2   3
HETATM    3  C   UNL     1     -10.654  11.210  64.458  1.00  0.00    -0.397 C  
BRANCH   3   4
HETATM    4  C   UNL     1     -10.336  12.222  65.559  1.00  0.00    -0.296 C  
BRANCH   4   5
HETATM    5  C   UNL     1     -11.343  12.250  66.688  1.00  0.00    -0.343 C  
HETATM    6  N   UNL     1     -10.973  11.731  67.928  1.00  0.00    -0.208 N  
HETATM    7  O   UNL     1     -12.474  12.710  66.503  1.00  0.00    -0.407 OA 
BRANCH   6   8
HETATM    8  C   UNL     1      -9.604  11.201  68.197  1.00  0.00    -0.179 C  
BRANCH   8   9
HETATM    9  C   UNL     1      -9.369   9.777  67.723  1.00  0.00    -0.148 A  
HETATM   10  C   UNL     1     -10.423   9.028  67.197  1.00  0.00    -0.333 A  
HETATM   11  C   UNL     1     -10.306   7.637  67.058  1.00  0.00    -0.400 A  
HETATM   12  C   UNL     1      -9.119   6.939  67.347  1.00  0.00    -0.122 A  
HETATM   13  C   UNL     1      -8.138   9.127  67.848  1.00  0.00    -0.105 A  
HETATM   14  C   UNL     1      -8.005   7.742  67.635  1.00  0.00    -0.124 A  
BRANCH  12  15
HETATM   15  C   UNL     1      -9.088   5.437  67.349  1.00  0.00    -0.111 A  
HETATM   16  C   UNL     1      -8.691   4.800  66.137  1.00  0.00    -0.116 A  
HETATM   17  C   UNL     1      -8.744   3.420  65.940  1.00  0.00    -0.124 A  
HETATM   18  C   UNL     1      -9.156   2.600  66.974  1.00  0.00    -0.171 A  
HETATM   19  C   UNL     1      -9.507   3.173  68.194  1.00  0.00    -0.217 A  
HETATM   20  C   UNL     1      -9.490   4.577  68.409  1.00  0.00    -0.209 A  
BRANCH  20  21
HETATM   21  C   UNL     1      -9.930   4.986  69.742  1.00  0.00    -0.249 A  
HETATM   22  N   UNL     1      -9.411   4.485  70.883  1.00  0.00    -0.142 NA 
HETATM   23  N   UNL     1     -10.177   5.092  71.796  1.00  0.00    -0.202 NA 
HETATM   24  H   UNL     1      -8.644   3.825  71.013  1.00  0.00     0.000 HD 
HETATM   25  N   UNL     1     -11.098   5.937  71.316  1.00  0.00    -0.266 NA 
HETATM   26  N   UNL     1     -10.972   5.848  69.998  1.00  0.00    -0.360 NA 
ENDBRANCH  20  21
ENDBRANCH  12  15
ENDBRANCH   8   9
ENDBRANCH   6   8
BRANCH   6  27
HETATM   27  C   UNL     1     -11.880  11.913  69.121  1.00  0.00    -0.311 C  
HETATM   28  C   UNL     1     -11.895  13.251  69.927  1.00  0.00    -0.310 C  
HETATM   29  O   UNL     1     -12.925  13.684  70.441  1.00  0.00    -0.124 OA 
HETATM   30  C   UNL     1     -11.938  10.661  70.052  1.00  0.00    -0.408 C  
HETATM   31  O   UNL     1     -10.729  13.883  70.140  1.00  0.00     0.325 OA 
HETATM   32  C   UNL     1     -10.588  10.138  70.529  1.00  0.00    -0.243 C  
HETATM   33  C   UNL     1     -12.918  10.789  71.220  1.00  0.00    -0.502 C  
ENDBRANCH   6  27
ENDBRANCH   4   5
ENDBRANCH   3   4
ENDBRANCH   2   3
TORSDOF 8
ENDMDL
MODEL      161
REMARK 921   NORMALIZED FREE ENERGY PREDICTED BY IDOCK:   -5.03 KCAL/MOL
REMARK 922        TOTAL FREE ENERGY PREDICTED BY IDOCK:   -7.91 KCAL/MOL
REMARK 923 INTER-LIGAND FREE ENERGY PREDICTED BY IDOCK:   -8.10 KCAL/MOL
REMARK 924 INTRA-LIGAND FREE ENERGY PREDICTED BY IDOCK:    0.19 KCAL/MOL
REMARK 927      BINDING AFFINITY PREDICTED BY RF-SCORE:    0.00 PKD
ROOT
HETATM    1  C   UNL     1     -11.453   4.671  73.189  1.00  0.00    -0.317 C  
HETATM    2  C   UNL     1     -10.698   5.960  73.448  1.00  0.00    -0.293 C  
ENDROOT
BRANCH   2   3
HETATM    3  C   UNL     1     -10.764   6.927  72.263  1.00  0.00    -0.253 C  
BRANCH   3   4
HETATM    4  C   UNL     1     -10.450   6.166  70.975  1.00  0.00    -0.281 C  
BRANCH   4   5
HETATM    5  C   UNL     1      -9.047   6.380  70.451  1.00  0.00    -0.155 C  
HETATM    6  N   UNL     1      -8.876   6.688  69.102  1.00  0.00    -0.129 N  
HETATM    7  O   UNL     1      -8.076   6.267  71.205  1.00  0.00    -0.114 OA 
BRANCH   6   8
HETATM    8  C   UNL     1     -10.028   6.869  68.170  1.00  0.00    -0.155 C  
BRANCH   8   9
HETATM    9  C   UNL     1     -10.632   8.263  68.171  1.00  0.00    -0.169 A  
HETATM   10  C   UNL     1     -10.754   8.977  66.978  1.00  0.00    -0.185 A  
HETATM   11  C   UNL     1     -11.002  10.358  66.999  1.00  0.00    -0.222 A  
HETATM   12  C   UNL     1     -11.229  11.073  68.188  1.00  0.00    -0.364 A  
HETATM   13  C   UNL     1     -11.025   8.921  69.339  1.00  0.00    -0.064 A  
HETATM   14  C   UNL     1     -11.348  10.291  69.347  1.00  0.00    -0.279 A  
BRANCH  12  15
HETATM   15  C   UNL     1     -11.321  12.573  68.181  1.00  0.00    -0.343 A  
HETATM   16  C   UNL     1     -11.251  13.228  69.445  1.00  0.00    -0.220 A  
HETATM   17  C   UNL     1     -11.458  14.597  69.615  1.00  0.00    -0.329 A  
HETATM   18  C   UNL     1     -11.699  15.392  68.509  1.00  0.00    -0.355 A  
HETATM   19  C   UNL     1     -11.727  14.804  67.247  1.00  0.00    -0.366 A  
HETATM   20  C   UNL     1     -11.549  13.408  67.052  1.00  0.00    -0.396 A  
BRANCH  20  21
HETATM   21  C   UNL     1     -11.653  12.979  65.659  1.00  0.00    -0.354 A  
HETATM   22  N   UNL     1     -10.595  12.896  64.824  1.00  0.00    -0.324 NA 
HETATM   23  N   UNL     1     -11.200  12.550  63.683  1.00  0.00    -0.454 NA 
HETATM   24  H   UNL     1      -9.605  13.054  65.013  1.00  0.00     0.000 HD 
HETATM   25  N   UNL     1     -12.528  12.389  63.752  1.00  0.00    -0.656 NA 
HETATM   26  N   UNL     1     -12.833  12.697  65.006  1.00  0.00    -0.816 NA 
ENDBRANCH  20  21
ENDBRANCH  12  15
ENDBRANCH   8   9
ENDBRANCH   6   8
BRANCH   6  27
HETATM   27  C   UNL     1      -7.515   7.091  68.589  1.00  0.00    -0.102 C  
HETATM   28  C   UNL     1      -7.016   8.567  68.699  1.00  0.00    -0.064 C  
HETATM   29  O   UNL     1      -5.831   8.837  68.885  1.00  0.00    -0.039 OA 
HETATM   30  C   UNL     1      -7.154   6.445  67.214  1.00  0.00    -0.073 C  
HETATM   31  O   UNL     1      -7.896   9.558  68.482  1.00  0.00    -0.084 OA 
HETATM   32  C   UNL     1      -8.183   6.647  66.107  1.00  0.00    -0.124 C  
HETATM   33  C   UNL     1      -5.745   6.769  66.716  1.00  0.00    -0.018 C  
ENDBRANCH   6  27
ENDBRANCH   4   5
ENDBRANCH   3   4
ENDBRANCH   2   3
TORSDOF 8
ENDMDL
MODEL      162
REMARK 921   NORMALIZED FREE ENERGY PREDICTED BY IDOCK:   -5.02 KCAL/MOL
REMARK 922        TOTAL FREE ENERGY PREDICTED BY IDOCK:   -7.89 KCAL/MOL
REMARK 923 INTER-LIGAND FREE ENERGY PREDICTED BY IDOCK:   -7.87 KCAL/MOL
REMARK 924 INTRA-LIGAND FREE ENERGY PREDICTED BY IDOCK:   -0.02 KCAL/MOL
REMARK 927      BINDING AFFINITY PREDICTED BY RF-SCORE:    0.00 PKD
ROOT
HETATM    1  C   UNL     1     -12.353   7.421  71.736  1.00  0.00    -0.365 C  
HETATM    2  C   UNL     1     -10.974   7.716  72.291  1.00  0.00    -0.328 C  
ENDROOT
BRANCH   2   3
HETATM    3  C   UNL     1      -9.991   6.565  72.068  1.00  0.00    -0.183 C  
BRANCH   3   4
HETATM    4  C   UNL     1     -10.019   6.160  70.594  1.00  0.00    -0.229 C  
BRANCH   4   5
HETATM    5  C   UNL     1      -8.758   6.500  69.830  1.00  0.00    -0.143 C  
HETATM    6  N   UNL     1      -8.870   7.196  68.628  1.00  0.00    -0.127 N  
HETATM    7  O   UNL     1      -7.655   6.149  70.261  1.00  0.00    -0.091 OA 
BRANCH   6   8
HETATM    8  C   UNL     1     -10.182   7.667  68.095  1.00  0.00    -0.196 C  
BRANCH   8   9
HETATM    9  C   UNL     1     -10.228   9.142  67.731  1.00  0.00    -0.278 A  
HETATM   10  C   UNL     1      -9.917   9.556  66.436  1.00  0.00    -0.339 A  
HETATM   11  C   UNL     1      -9.643  10.906  66.168  1.00  0.00    -0.239 A  
HETATM   12  C   UNL     1      -9.749  11.913  67.143  1.00  0.00    -0.194 A  
HETATM   13  C   UNL     1     -10.505  10.147  68.662  1.00  0.00    -0.225 A  
HETATM   14  C   UNL     1     -10.301  11.508  68.368  1.00  0.00    -0.214 A  
BRANCH  12  15
HETATM   15  C   UNL     1      -9.282  13.314  66.861  1.00  0.00    -0.242 A  
HETATM   16  C   UNL     1      -8.083  13.734  67.507  1.00  0.00    -0.192 A  
HETATM   17  C   UNL     1      -7.599  15.042  67.454  1.00  0.00    -0.233 A  
HETATM   18  C   UNL     1      -8.273  15.988  66.705  1.00  0.00    -0.324 A  
HETATM   19  C   UNL     1      -9.423  15.611  66.015  1.00  0.00    -0.390 A  
HETATM   20  C   UNL     1      -9.952  14.294  66.077  1.00  0.00    -0.337 A  
BRANCH  20  21
HETATM   21  C   UNL     1     -11.186  14.107  65.318  1.00  0.00    -0.326 A  
HETATM   22  N   UNL     1     -11.309  14.417  64.009  1.00  0.00    -0.560 NA 
HETATM   23  N   UNL     1     -12.605  14.150  63.808  1.00  0.00    -0.788 NA 
HETATM   24  H   UNL     1     -10.607  14.760  63.355  1.00  0.00     0.000 HD 
HETATM   25  N   UNL     1     -13.275  13.680  64.868  1.00  0.00    -0.485 NA 
HETATM   26  N   UNL     1     -12.383  13.684  65.851  1.00  0.00    -0.462 NA 
ENDBRANCH  20  21
ENDBRANCH  12  15
ENDBRANCH   8   9
ENDBRANCH   6   8
BRANCH   6  27
HETATM   27  C   UNL     1      -7.630   7.714  67.939  1.00  0.00    -0.117 C  
HETATM   28  C   UNL     1      -6.598   6.736  67.293  1.00  0.00    -0.054 C  
HETATM   29  O   UNL     1      -5.975   7.033  66.275  1.00  0.00    -0.033 OA 
HETATM   30  C   UNL     1      -6.938   8.883  68.707  1.00  0.00    -0.063 C  
HETATM   31  O   UNL     1      -6.318   5.587  67.931  1.00  0.00    -0.039 OA 
HETATM   32  C   UNL     1      -6.614   8.604  70.170  1.00  0.00    -0.038 C  
HETATM   33  C   UNL     1      -5.730   9.484  67.985  1.00  0.00    -0.041 C  
ENDBRANCH   6  27
ENDBRANCH   4   5
ENDBRANCH   3   4
ENDBRANCH   2   3
TORSDOF 8
ENDMDL
MODEL      163
REMARK 921   NORMALIZED FREE ENERGY PREDICTED BY IDOCK:   -5.02 KCAL/MOL
REMARK 922        TOTAL FREE ENERGY PREDICTED BY IDOCK:   -7.89 KCAL/MOL
REMARK 923 INTER-LIGAND FREE ENERGY PREDICTED BY IDOCK:   -8.78 KCAL/MOL
REMARK 924 INTRA-LIGAND FREE ENERGY PREDICTED BY IDOCK:    0.90 KCAL/MOL
REMARK 927      BINDING AFFINITY PREDICTED BY RF-SCORE:    0.00 PKD
ROOT
HETATM    1  C   UNL     1      -6.862  11.314  66.360  1.00  0.00    -0.055 C  
HETATM    2  C   UNL     1      -6.844  11.998  67.712  1.00  0.00    -0.100 C  
ENDROOT
BRANCH   2   3
HETATM    3  C   UNL     1      -8.163  12.706  68.032  1.00  0.00    -0.167 C  
BRANCH   3   4
HETATM    4  C   UNL     1      -8.617  13.497  66.805  1.00  0.00    -0.043 C  
BRANCH   4   5
HETATM    5  C   UNL     1      -8.555  14.999  66.975  1.00  0.00    -0.239 C  
HETATM    6  N   UNL     1      -9.665  15.760  66.611  1.00  0.00    -0.238 N  
HETATM    7  O   UNL     1      -7.533  15.535  67.412  1.00  0.00    -0.167 OA 
BRANCH   6   8
HETATM    8  C   UNL     1     -10.930  15.144  66.115  1.00  0.00    -0.331 C  
BRANCH   8   9
HETATM    9  C   UNL     1     -11.491  14.043  66.999  1.00  0.00    -0.370 A  
HETATM   10  C   UNL     1     -11.840  14.313  68.322  1.00  0.00    -0.370 A  
HETATM   11  C   UNL     1     -12.048  13.265  69.231  1.00  0.00    -0.291 A  
HETATM   12  C   UNL     1     -12.009  11.910  68.854  1.00  0.00    -0.313 A  
HETATM   13  C   UNL     1     -11.619  12.717  66.574  1.00  0.00    -0.435 A  
HETATM   14  C   UNL     1     -11.903  11.674  67.475  1.00  0.00    -0.196 A  
BRANCH  12  15
HETATM   15  C   UNL     1     -12.067  10.819  69.886  1.00  0.00    -0.410 A  
HETATM   16  C   UNL     1     -12.905  11.047  71.016  1.00  0.00    -0.442 A  
HETATM   17  C   UNL     1     -12.957  10.194  72.119  1.00  0.00    -0.436 A  
HETATM   18  C   UNL     1     -12.202   9.036  72.121  1.00  0.00    -0.427 A  
HETATM   19  C   UNL     1     -11.405   8.746  71.016  1.00  0.00    -0.332 A  
HETATM   20  C   UNL     1     -11.312   9.614  69.895  1.00  0.00    -0.200 A  
BRANCH  20  21
HETATM   21  C   UNL     1     -10.393   9.154  68.856  1.00  0.00    -0.214 A  
HETATM   22  N   UNL     1     -10.774   8.386  67.812  1.00  0.00    -0.465 NA 
HETATM   23  N   UNL     1      -9.597   8.173  67.213  1.00  0.00    -0.153 NA 
HETATM   24  H   UNL     1     -11.704   8.059  67.552  1.00  0.00     0.000 HD 
HETATM   25  N   UNL     1      -8.538   8.763  67.782  1.00  0.00    -0.129 NA 
HETATM   26  N   UNL     1      -9.033   9.364  68.857  1.00  0.00    -0.134 NA 
ENDBRANCH  20  21
ENDBRANCH  12  15
ENDBRANCH   8   9
ENDBRANCH   6   8
BRANCH   6  27
HETATM   27  C   UNL     1      -9.709  17.233  66.942  1.00  0.00    -0.273 C  
HETATM   28  C   UNL     1      -8.914  18.275  66.092  1.00  0.00    -0.095 C  
HETATM   29  O   UNL     1      -9.342  19.411  65.895  1.00  0.00    -0.415 OA 
HETATM   30  C   UNL     1      -9.622  17.527  68.472  1.00  0.00    -0.305 C  
HETATM   31  O   UNL     1      -7.688  17.942  65.654  1.00  0.00    -0.541 OA 
HETATM   32  C   UNL     1      -8.440  16.891  69.194  1.00  0.00    -0.057 C  
HETATM   33  C   UNL     1      -9.753  19.007  68.838  1.00  0.00    -0.442 C  
ENDBRANCH   6  27
ENDBRANCH   4   5
ENDBRANCH   3   4
ENDBRANCH   2   3
TORSDOF 8
ENDMDL
MODEL      164
REMARK 921   NORMALIZED FREE ENERGY PREDICTED BY IDOCK:   -5.01 KCAL/MOL
REMARK 922        TOTAL FREE ENERGY PREDICTED BY IDOCK:   -7.88 KCAL/MOL
REMARK 923 INTER-LIGAND FREE ENERGY PREDICTED BY IDOCK:   -7.26 KCAL/MOL
REMARK 924 INTRA-LIGAND FREE ENERGY PREDICTED BY IDOCK:   -0.62 KCAL/MOL
REMARK 927      BINDING AFFINITY PREDICTED BY RF-SCORE:    0.00 PKD
ROOT
HETATM    1  C   UNL     1      -7.523  11.957  68.643  1.00  0.00    -0.118 C  
HETATM    2  C   UNL     1      -6.861  10.912  69.518  1.00  0.00    -0.125 C  
ENDROOT
BRANCH   2   3
HETATM    3  C   UNL     1      -7.441   9.512  69.304  1.00  0.00    -0.078 C  
BRANCH   3   4
HETATM    4  C   UNL     1      -7.155   9.065  67.869  1.00  0.00    -0.079 C  
BRANCH   4   5
HETATM    5  C   UNL     1      -7.221   7.568  67.659  1.00  0.00    -0.090 C  
HETATM    6  N   UNL     1      -8.075   7.067  66.677  1.00  0.00    -0.108 N  
HETATM    7  O   UNL     1      -6.541   6.810  68.357  1.00  0.00    -0.053 OA 
BRANCH   6   8
HETATM    8  C   UNL     1      -8.883   7.955  65.791  1.00  0.00    -0.119 C  
BRANCH   8   9
HETATM    9  C   UNL     1      -9.818   8.903  66.522  1.00  0.00    -0.344 A  
HETATM   10  C   UNL     1     -10.013  10.201  66.051  1.00  0.00    -0.322 A  
HETATM   11  C   UNL     1     -10.603  11.175  66.871  1.00  0.00    -0.304 A  
HETATM   12  C   UNL     1     -11.106  10.887  68.153  1.00  0.00    -0.337 A  
HETATM   13  C   UNL     1     -10.465   8.564  67.714  1.00  0.00    -0.287 A  
HETATM   14  C   UNL     1     -11.122   9.528  68.501  1.00  0.00    -0.035 A  
BRANCH  12  15
HETATM   15  C   UNL     1     -11.573  11.988  69.064  1.00  0.00    -0.370 A  
HETATM   16  C   UNL     1     -12.120  11.594  70.320  1.00  0.00    -0.443 A  
HETATM   17  C   UNL     1     -12.719  12.485  71.211  1.00  0.00    -0.350 A  
HETATM   18  C   UNL     1     -12.756  13.833  70.905  1.00  0.00    -0.394 A  
HETATM   19  C   UNL     1     -12.190  14.271  69.710  1.00  0.00    -0.390 A  
HETATM   20  C   UNL     1     -11.601  13.380  68.774  1.00  0.00    -0.363 A  
BRANCH  20  21
HETATM   21  C   UNL     1     -11.099  14.027  67.564  1.00  0.00    -0.298 A  
HETATM   22  N   UNL     1     -11.877  14.326  66.501  1.00  0.00    -0.402 NA 
HETATM   23  N   UNL     1     -10.966  14.813  65.651  1.00  0.00    -0.330 NA 
HETATM   24  H   UNL     1     -12.883  14.212  66.381  1.00  0.00     0.000 HD 
HETATM   25  N   UNL     1      -9.708  14.862  66.108  1.00  0.00    -0.289 NA 
HETATM   26  N   UNL     1      -9.777  14.326  67.321  1.00  0.00    -0.230 NA 
ENDBRANCH  20  21
ENDBRANCH  12  15
ENDBRANCH   8   9
ENDBRANCH   6   8
BRANCH   6  27
HETATM   27  C   UNL     1      -8.026   5.602  66.313  1.00  0.00    -0.102 C  
HETATM   28  C   UNL     1      -7.691   5.144  64.859  1.00  0.00    -0.085 C  
HETATM   29  O   UNL     1      -7.065   4.109  64.635  1.00  0.00    -0.055 OA 
HETATM   30  C   UNL     1      -9.183   4.768  66.946  1.00  0.00    -0.130 C  
HETATM   31  O   UNL     1      -8.192   5.851  63.832  1.00  0.00    -0.118 OA 
HETATM   32  C   UNL     1     -10.589   5.298  66.687  1.00  0.00    -0.334 C  
HETATM   33  C   UNL     1      -9.105   3.266  66.664  1.00  0.00    -0.180 C  
ENDBRANCH   6  27
ENDBRANCH   4   5
ENDBRANCH   3   4
ENDBRANCH   2   3
TORSDOF 8
ENDMDL
MODEL      165
REMARK 921   NORMALIZED FREE ENERGY PREDICTED BY IDOCK:   -4.99 KCAL/MOL
REMARK 922        TOTAL FREE ENERGY PREDICTED BY IDOCK:   -7.84 KCAL/MOL
REMARK 923 INTER-LIGAND FREE ENERGY PREDICTED BY IDOCK:   -7.30 KCAL/MOL
REMARK 924 INTRA-LIGAND FREE ENERGY PREDICTED BY IDOCK:   -0.54 KCAL/MOL
REMARK 927      BINDING AFFINITY PREDICTED BY RF-SCORE:    0.00 PKD
ROOT
HETATM    1  C   UNL     1     -11.732  14.477  64.618  1.00  0.00    -0.438 C  
HETATM    2  C   UNL     1     -12.622  13.546  65.416  1.00  0.00    -0.531 C  
ENDROOT
BRANCH   2   3
HETATM    3  C   UNL     1     -11.842  12.403  66.070  1.00  0.00    -0.459 C  
BRANCH   3   4
HETATM    4  C   UNL     1     -10.352  12.747  66.068  1.00  0.00    -0.291 C  
BRANCH   4   5
HETATM    5  C   UNL     1      -9.459  11.648  65.534  1.00  0.00    -0.195 C  
HETATM    6  N   UNL     1      -8.361  11.249  66.293  1.00  0.00    -0.165 N  
HETATM    7  O   UNL     1      -9.697  11.130  64.438  1.00  0.00    -0.238 OA 
BRANCH   6   8
HETATM    8  C   UNL     1      -8.065  11.826  67.637  1.00  0.00    -0.144 C  
BRANCH   8   9
HETATM    9  C   UNL     1      -8.601  11.019  68.807  1.00  0.00    -0.144 A  
HETATM   10  C   UNL     1      -7.722  10.369  69.675  1.00  0.00    -0.152 A  
HETATM   11  C   UNL     1      -8.191   9.376  70.548  1.00  0.00    -0.221 A  
HETATM   12  C   UNL     1      -9.552   9.045  70.666  1.00  0.00    -0.289 A  
HETATM   13  C   UNL     1      -9.966  10.825  69.035  1.00  0.00    -0.214 A  
HETATM   14  C   UNL     1     -10.436   9.881  69.967  1.00  0.00    -0.331 A  
BRANCH  12  15
HETATM   15  C   UNL     1      -9.992   7.863  71.483  1.00  0.00    -0.214 A  
HETATM   16  C   UNL     1     -10.241   8.095  72.868  1.00  0.00    -0.341 A  
HETATM   17  C   UNL     1     -10.520   7.077  73.780  1.00  0.00    -0.392 A  
HETATM   18  C   UNL     1     -10.612   5.771  73.336  1.00  0.00    -0.283 A  
HETATM   19  C   UNL     1     -10.425   5.501  71.983  1.00  0.00    -0.277 A  
HETATM   20  C   UNL     1     -10.111   6.516  71.040  1.00  0.00    -0.208 A  
BRANCH  20  21
HETATM   21  C   UNL     1      -9.913   6.028  69.677  1.00  0.00    -0.170 A  
HETATM   22  N   UNL     1      -8.739   5.538  69.224  1.00  0.00    -0.106 NA 
HETATM   23  N   UNL     1      -9.039   5.312  67.940  1.00  0.00    -0.109 NA 
HETATM   24  H   UNL     1      -7.864   5.383  69.724  1.00  0.00     0.000 HD 
HETATM   25  N   UNL     1     -10.296   5.594  67.576  1.00  0.00    -0.206 NA 
HETATM   26  N   UNL     1     -10.855   6.089  68.673  1.00  0.00    -0.303 NA 
ENDBRANCH  20  21
ENDBRANCH  12  15
ENDBRANCH   8   9
ENDBRANCH   6   8
BRANCH   6  27
HETATM   27  C   UNL     1      -7.563  10.034  65.883  1.00  0.00    -0.114 C  
HETATM   28  C   UNL     1      -6.952   9.916  64.450  1.00  0.00    -0.128 C  
HETATM   29  O   UNL     1      -5.879   9.349  64.250  1.00  0.00    -0.072 OA 
HETATM   30  C   UNL     1      -8.186   8.690  66.373  1.00  0.00    -0.111 C  
HETATM   31  O   UNL     1      -7.673  10.361  63.408  1.00  0.00    -0.145 OA 
HETATM   32  C   UNL     1      -9.649   8.473  66.002  1.00  0.00    -0.236 C  
HETATM   33  C   UNL     1      -7.350   7.451  66.045  1.00  0.00    -0.075 C  
ENDBRANCH   6  27
ENDBRANCH   4   5
ENDBRANCH   3   4
ENDBRANCH   2   3
TORSDOF 8
ENDMDL
MODEL      166
REMARK 921   NORMALIZED FREE ENERGY PREDICTED BY IDOCK:   -4.97 KCAL/MOL
REMARK 922        TOTAL FREE ENERGY PREDICTED BY IDOCK:   -7.82 KCAL/MOL
REMARK 923 INTER-LIGAND FREE ENERGY PREDICTED BY IDOCK:   -8.02 KCAL/MOL
REMARK 924 INTRA-LIGAND FREE ENERGY PREDICTED BY IDOCK:    0.20 KCAL/MOL
REMARK 927      BINDING AFFINITY PREDICTED BY RF-SCORE:    0.00 PKD
ROOT
HETATM    1  C   UNL     1      -5.496   9.476  66.085  1.00  0.00    -0.044 C  
HETATM    2  C   UNL     1      -5.813  10.947  65.909  1.00  0.00    -0.130 C  
ENDROOT
BRANCH   2   3
HETATM    3  C   UNL     1      -6.109  11.648  67.237  1.00  0.00    -0.112 C  
BRANCH   3   4
HETATM    4  C   UNL     1      -7.598  11.512  67.555  1.00  0.00    -0.121 C  
BRANCH   4   5
HETATM    5  C   UNL     1      -8.435  12.702  67.138  1.00  0.00    -0.186 C  
HETATM    6  N   UNL     1      -9.524  12.491  66.294  1.00  0.00    -0.232 N  
HETATM    7  O   UNL     1      -8.144  13.836  67.529  1.00  0.00    -0.161 OA 
BRANCH   6   8
HETATM    8  C   UNL     1      -9.927  11.130  65.832  1.00  0.00    -0.239 C  
BRANCH   8   9
HETATM    9  C   UNL     1     -10.307  10.168  66.945  1.00  0.00    -0.298 A  
HETATM   10  C   UNL     1     -11.071  10.609  68.026  1.00  0.00    -0.361 A  
HETATM   11  C   UNL     1     -11.156   9.841  69.197  1.00  0.00    -0.158 A  
HETATM   12  C   UNL     1     -10.567   8.570  69.319  1.00  0.00    -0.193 A  
HETATM   13  C   UNL     1      -9.866   8.842  66.988  1.00  0.00    -0.277 A  
HETATM   14  C   UNL     1     -10.019   8.046  68.138  1.00  0.00    -0.217 A  
BRANCH  12  15
HETATM   15  C   UNL     1     -10.536   7.857  70.641  1.00  0.00    -0.221 A  
HETATM   16  C   UNL     1     -11.664   7.044  70.961  1.00  0.00    -0.375 A  
HETATM   17  C   UNL     1     -11.844   6.433  72.202  1.00  0.00    -0.361 A  
HETATM   18  C   UNL     1     -10.872   6.568  73.175  1.00  0.00    -0.286 A  
HETATM   19  C   UNL     1      -9.729   7.311  72.892  1.00  0.00    -0.212 A  
HETATM   20  C   UNL     1      -9.536   7.968  71.647  1.00  0.00    -0.218 A  
BRANCH  20  21
HETATM   21  C   UNL     1      -8.293   8.731  71.557  1.00  0.00    -0.152 A  
HETATM   22  N   UNL     1      -7.922   9.423  70.459  1.00  0.00    -0.166 NA 
HETATM   23  N   UNL     1      -6.716   9.862  70.833  1.00  0.00    -0.308 NA 
HETATM   24  H   UNL     1      -8.425   9.571  69.584  1.00  0.00     0.000 HD 
HETATM   25  N   UNL     1      -6.328   9.523  72.069  1.00  0.00    -0.292 NA 
HETATM   26  N   UNL     1      -7.317   8.766  72.528  1.00  0.00    -0.340 NA 
ENDBRANCH  20  21
ENDBRANCH  12  15
ENDBRANCH   8   9
ENDBRANCH   6   8
BRANCH   6  27
HETATM   27  C   UNL     1     -10.488  13.619  66.011  1.00  0.00    -0.300 C  
HETATM   28  C   UNL     1     -11.399  14.202  67.137  1.00  0.00    -0.332 C  
HETATM   29  O   UNL     1     -11.703  15.393  67.171  1.00  0.00    -0.157 OA 
HETATM   30  C   UNL     1     -11.247  13.460  64.657  1.00  0.00    -0.377 C  
HETATM   31  O   UNL     1     -11.940  13.353  68.027  1.00  0.00    -0.350 OA 
HETATM   32  C   UNL     1     -11.967  12.131  64.463  1.00  0.00    -0.415 C  
HETATM   33  C   UNL     1     -12.163  14.634  64.307  1.00  0.00    -0.432 C  
ENDBRANCH   6  27
ENDBRANCH   4   5
ENDBRANCH   3   4
ENDBRANCH   2   3
TORSDOF 8
ENDMDL
MODEL      167
REMARK 921   NORMALIZED FREE ENERGY PREDICTED BY IDOCK:   -4.96 KCAL/MOL
REMARK 922        TOTAL FREE ENERGY PREDICTED BY IDOCK:   -7.81 KCAL/MOL
REMARK 923 INTER-LIGAND FREE ENERGY PREDICTED BY IDOCK:   -7.35 KCAL/MOL
REMARK 924 INTRA-LIGAND FREE ENERGY PREDICTED BY IDOCK:   -0.46 KCAL/MOL
REMARK 927      BINDING AFFINITY PREDICTED BY RF-SCORE:    0.00 PKD
ROOT
HETATM    1  C   UNL     1      -6.912   7.602  65.608  1.00  0.00    -0.060 C  
HETATM    2  C   UNL     1      -8.378   7.425  65.270  1.00  0.00    -0.110 C  
ENDROOT
BRANCH   2   3
HETATM    3  C   UNL     1      -9.268   8.467  65.950  1.00  0.00    -0.245 C  
BRANCH   3   4
HETATM    4  C   UNL     1      -8.928   9.853  65.401  1.00  0.00    -0.220 C  
BRANCH   4   5
HETATM    5  C   UNL     1     -10.042  10.868  65.537  1.00  0.00    -0.267 C  
HETATM    6  N   UNL     1     -10.081  11.671  66.676  1.00  0.00    -0.205 N  
HETATM    7  O   UNL     1     -10.905  10.967  64.660  1.00  0.00    -0.263 OA 
BRANCH   6   8
HETATM    8  C   UNL     1      -9.034  11.605  67.738  1.00  0.00    -0.170 C  
BRANCH   8   9
HETATM    9  C   UNL     1      -9.363  10.679  68.897  1.00  0.00    -0.191 A  
HETATM   10  C   UNL     1      -8.341  10.026  69.587  1.00  0.00    -0.188 A  
HETATM   11  C   UNL     1      -8.631   8.942  70.429  1.00  0.00    -0.198 A  
HETATM   12  C   UNL     1      -9.945   8.514  70.694  1.00  0.00    -0.222 A  
HETATM   13  C   UNL     1     -10.672  10.379  69.283  1.00  0.00    -0.270 A  
HETATM   14  C   UNL     1     -10.960   9.339  70.187  1.00  0.00    -0.278 A  
BRANCH  12  15
HETATM   15  C   UNL     1     -10.203   7.247  71.461  1.00  0.00    -0.206 A  
HETATM   16  C   UNL     1     -10.624   7.391  72.816  1.00  0.00    -0.345 A  
HETATM   17  C   UNL     1     -10.769   6.316  73.694  1.00  0.00    -0.229 A  
HETATM   18  C   UNL     1     -10.546   5.030  73.239  1.00  0.00    -0.287 A  
HETATM   19  C   UNL     1     -10.182   4.836  71.908  1.00  0.00    -0.261 A  
HETATM   20  C   UNL     1      -9.998   5.916  71.004  1.00  0.00    -0.239 A  
BRANCH  20  21
HETATM   21  C   UNL     1      -9.577   5.512  69.664  1.00  0.00    -0.158 A  
HETATM   22  N   UNL     1      -8.284   5.410  69.289  1.00  0.00    -0.093 NA 
HETATM   23  N   UNL     1      -8.421   5.100  67.995  1.00  0.00    -0.100 NA 
HETATM   24  H   UNL     1      -7.436   5.535  69.841  1.00  0.00     0.000 HD 
HETATM   25  N   UNL     1      -9.679   4.977  67.554  1.00  0.00    -0.149 NA 
HETATM   26  N   UNL     1     -10.429   5.276  68.608  1.00  0.00    -0.126 NA 
ENDBRANCH  20  21
ENDBRANCH  12  15
ENDBRANCH   8   9
ENDBRANCH   6   8
BRANCH   6  27
HETATM   27  C   UNL     1     -11.062  12.816  66.757  1.00  0.00    -0.277 C  
HETATM   28  C   UNL     1     -11.444  13.641  65.487  1.00  0.00    -0.305 C  
HETATM   29  O   UNL     1     -12.573  14.107  65.334  1.00  0.00    -0.478 OA 
HETATM   30  C   UNL     1     -10.856  13.721  68.011  1.00  0.00    -0.263 C  
HETATM   31  O   UNL     1     -10.481  13.929  64.596  1.00  0.00    -0.425 OA 
HETATM   32  C   UNL     1      -9.443  14.262  68.203  1.00  0.00    -0.204 C  
HETATM   33  C   UNL     1     -11.892  14.836  68.162  1.00  0.00    -0.318 C  
ENDBRANCH   6  27
ENDBRANCH   4   5
ENDBRANCH   3   4
ENDBRANCH   2   3
TORSDOF 8
ENDMDL
MODEL      168
REMARK 921   NORMALIZED FREE ENERGY PREDICTED BY IDOCK:   -4.95 KCAL/MOL
REMARK 922        TOTAL FREE ENERGY PREDICTED BY IDOCK:   -7.79 KCAL/MOL
REMARK 923 INTER-LIGAND FREE ENERGY PREDICTED BY IDOCK:   -7.60 KCAL/MOL
REMARK 924 INTRA-LIGAND FREE ENERGY PREDICTED BY IDOCK:   -0.19 KCAL/MOL
REMARK 927      BINDING AFFINITY PREDICTED BY RF-SCORE:    0.00 PKD
ROOT
HETATM    1  C   UNL     1     -12.906  14.473  73.587  1.00  0.00    -0.109 C  
HETATM    2  C   UNL     1     -13.262  14.452  72.115  1.00  0.00    -0.472 C  
ENDROOT
BRANCH   2   3
HETATM    3  C   UNL     1     -12.050  14.181  71.220  1.00  0.00    -0.363 C  
BRANCH   3   4
HETATM    4  C   UNL     1     -12.495  14.180  69.758  1.00  0.00    -0.266 C  
BRANCH   4   5
HETATM    5  C   UNL     1     -11.826  15.234  68.902  1.00  0.00    -0.320 C  
HETATM    6  N   UNL     1     -11.526  14.927  67.576  1.00  0.00    -0.346 N  
HETATM    7  O   UNL     1     -11.540  16.335  69.381  1.00  0.00    -0.283 OA 
BRANCH   6   8
HETATM    8  C   UNL     1     -11.891  13.621  66.954  1.00  0.00    -0.411 C  
BRANCH   8   9
HETATM    9  C   UNL     1     -10.986  12.461  67.335  1.00  0.00    -0.296 A  
HETATM   10  C   UNL     1      -9.763  12.701  67.962  1.00  0.00    -0.215 A  
HETATM   11  C   UNL     1      -8.788  11.693  68.028  1.00  0.00    -0.162 A  
HETATM   12  C   UNL     1      -9.011  10.386  67.559  1.00  0.00    -0.138 A  
HETATM   13  C   UNL     1     -11.282  11.131  67.025  1.00  0.00    -0.291 A  
HETATM   14  C   UNL     1     -10.327  10.107  67.162  1.00  0.00    -0.295 A  
BRANCH  12  15
HETATM   15  C   UNL     1      -7.889   9.389  67.492  1.00  0.00    -0.099 A  
HETATM   16  C   UNL     1      -8.054   8.295  66.592  1.00  0.00    -0.102 A  
HETATM   17  C   UNL     1      -7.168   7.220  66.518  1.00  0.00    -0.079 A  
HETATM   18  C   UNL     1      -6.037   7.213  67.314  1.00  0.00    -0.037 A  
HETATM   19  C   UNL     1      -5.808   8.285  68.173  1.00  0.00    -0.038 A  
HETATM   20  C   UNL     1      -6.711   9.375  68.289  1.00  0.00    -0.059 A  
BRANCH  20  21
HETATM   21  C   UNL     1      -6.314  10.380  69.273  1.00  0.00    -0.048 A  
HETATM   22  N   UNL     1      -6.793  10.416  70.535  1.00  0.00    -0.373 NA 
HETATM   23  N   UNL     1      -6.210  11.529  70.994  1.00  0.00    -0.096 NA 
HETATM   24  H   UNL     1      -7.425   9.770  71.008  1.00  0.00     0.000 HD 
HETATM   25  N   UNL     1      -5.400  12.160  70.136  1.00  0.00    -0.095 NA 
HETATM   26  N   UNL     1      -5.489  11.452  69.017  1.00  0.00    -0.040 NA 
ENDBRANCH  20  21
ENDBRANCH  12  15
ENDBRANCH   8   9
ENDBRANCH   6   8
BRANCH   6  27
HETATM   27  C   UNL     1     -11.035  16.011  66.646  1.00  0.00    -0.092 C  
HETATM   28  C   UNL     1     -11.066  15.819  65.096  1.00  0.00    -0.324 C  
HETATM   29  O   UNL     1     -11.275  16.760  64.332  1.00  0.00    -1.112 OA 
HETATM   30  C   UNL     1      -9.718  16.694  67.132  1.00  0.00    -0.250 C  
HETATM   31  O   UNL     1     -10.755  14.612  64.594  1.00  0.00    -0.393 OA 
HETATM   32  C   UNL     1      -8.566  15.746  67.444  1.00  0.00    -0.192 C  
HETATM   33  C   UNL     1      -9.248  17.854  66.252  1.00  0.00    -0.204 C  
ENDBRANCH   6  27
ENDBRANCH   4   5
ENDBRANCH   3   4
ENDBRANCH   2   3
TORSDOF 8
ENDMDL
MODEL      169
REMARK 921   NORMALIZED FREE ENERGY PREDICTED BY IDOCK:   -4.94 KCAL/MOL
REMARK 922        TOTAL FREE ENERGY PREDICTED BY IDOCK:   -7.77 KCAL/MOL
REMARK 923 INTER-LIGAND FREE ENERGY PREDICTED BY IDOCK:   -7.46 KCAL/MOL
REMARK 924 INTRA-LIGAND FREE ENERGY PREDICTED BY IDOCK:   -0.31 KCAL/MOL
REMARK 927      BINDING AFFINITY PREDICTED BY RF-SCORE:    0.00 PKD
ROOT
HETATM    1  C   UNL     1     -13.977   9.149  71.671  1.00  0.00    -0.345 C  
HETATM    2  C   UNL     1     -12.501   9.249  71.999  1.00  0.00    -0.451 C  
ENDROOT
BRANCH   2   3
HETATM    3  C   UNL     1     -11.926   7.934  72.532  1.00  0.00    -0.349 C  
BRANCH   3   4
HETATM    4  C   UNL     1     -11.765   6.950  71.372  1.00  0.00    -0.358 C  
BRANCH   4   5
HETATM    5  C   UNL     1     -10.346   6.470  71.156  1.00  0.00    -0.205 C  
HETATM    6  N   UNL     1      -9.877   6.335  69.851  1.00  0.00    -0.165 N  
HETATM    7  O   UNL     1      -9.630   6.189  72.122  1.00  0.00    -0.152 OA 
BRANCH   6   8
HETATM    8  C   UNL     1     -10.702   6.701  68.662  1.00  0.00    -0.254 C  
BRANCH   8   9
HETATM    9  C   UNL     1     -10.483   8.114  68.147  1.00  0.00    -0.225 A  
HETATM   10  C   UNL     1     -10.533   9.197  69.024  1.00  0.00    -0.238 A  
HETATM   11  C   UNL     1     -10.655  10.506  68.531  1.00  0.00    -0.234 A  
HETATM   12  C   UNL     1     -10.642  10.806  67.157  1.00  0.00    -0.306 A  
HETATM   13  C   UNL     1     -10.295   8.409  66.793  1.00  0.00    -0.357 A  
HETATM   14  C   UNL     1     -10.342   9.729  66.309  1.00  0.00    -0.235 A  
BRANCH  12  15
HETATM   15  C   UNL     1     -10.946  12.194  66.668  1.00  0.00    -0.325 A  
HETATM   16  C   UNL     1     -12.111  12.351  65.860  1.00  0.00    -0.352 A  
HETATM   17  C   UNL     1     -12.448  13.545  65.221  1.00  0.00    -0.525 A  
HETATM   18  C   UNL     1     -11.654  14.662  65.401  1.00  0.00    -0.345 A  
HETATM   19  C   UNL     1     -10.532  14.570  66.221  1.00  0.00    -0.303 A  
HETATM   20  C   UNL     1     -10.151  13.359  66.858  1.00  0.00    -0.255 A  
BRANCH  20  21
HETATM   21  C   UNL     1      -8.923  13.455  67.644  1.00  0.00    -0.202 A  
HETATM   22  N   UNL     1      -8.814  14.198  68.767  1.00  0.00    -0.337 NA 
HETATM   23  N   UNL     1      -7.519  14.028  69.056  1.00  0.00    -0.098 NA 
HETATM   24  H   UNL     1      -9.524  14.740  69.258  1.00  0.00     0.000 HD 
HETATM   25  N   UNL     1      -6.836  13.228  68.228  1.00  0.00    -0.092 NA 
HETATM   26  N   UNL     1      -7.719  12.885  67.298  1.00  0.00    -0.149 NA 
ENDBRANCH  20  21
ENDBRANCH  12  15
ENDBRANCH   8   9
ENDBRANCH   6   8
BRANCH   6  27
HETATM   27  C   UNL     1      -8.416   6.042  69.602  1.00  0.00    -0.126 C  
HETATM   28  C   UNL     1      -7.835   6.012  68.153  1.00  0.00    -0.106 C  
HETATM   29  O   UNL     1      -6.687   6.382  67.909  1.00  0.00    -0.059 OA 
HETATM   30  C   UNL     1      -7.857   4.886  70.489  1.00  0.00    -0.066 C  
HETATM   31  O   UNL     1      -8.580   5.472  67.175  1.00  0.00    -0.111 OA 
HETATM   32  C   UNL     1      -8.643   3.581  70.434  1.00  0.00    -0.107 C  
HETATM   33  C   UNL     1      -6.359   4.629  70.319  1.00  0.00    -0.026 C  
ENDBRANCH   6  27
ENDBRANCH   4   5
ENDBRANCH   3   4
ENDBRANCH   2   3
TORSDOF 8
ENDMDL
MODEL      170
REMARK 921   NORMALIZED FREE ENERGY PREDICTED BY IDOCK:   -4.90 KCAL/MOL
REMARK 922        TOTAL FREE ENERGY PREDICTED BY IDOCK:   -7.72 KCAL/MOL
REMARK 923 INTER-LIGAND FREE ENERGY PREDICTED BY IDOCK:   -8.12 KCAL/MOL
REMARK 924 INTRA-LIGAND FREE ENERGY PREDICTED BY IDOCK:    0.40 KCAL/MOL
REMARK 927      BINDING AFFINITY PREDICTED BY RF-SCORE:    0.00 PKD
ROOT
HETATM    1  C   UNL     1     -11.289   4.375  73.403  1.00  0.00    -0.353 C  
HETATM    2  C   UNL     1     -10.425   5.549  73.817  1.00  0.00    -0.302 C  
ENDROOT
BRANCH   2   3
HETATM    3  C   UNL     1     -10.711   6.808  72.994  1.00  0.00    -0.315 C  
BRANCH   3   4
HETATM    4  C   UNL     1     -10.350   6.544  71.532  1.00  0.00    -0.238 C  
BRANCH   4   5
HETATM    5  C   UNL     1      -8.961   6.999  71.141  1.00  0.00    -0.146 C  
HETATM    6  N   UNL     1      -8.775   7.581  69.888  1.00  0.00    -0.140 N  
HETATM    7  O   UNL     1      -8.013   6.840  71.916  1.00  0.00    -0.100 OA 
BRANCH   6   8
HETATM    8  C   UNL     1      -9.904   7.822  68.942  1.00  0.00    -0.166 C  
BRANCH   8   9
HETATM    9  C   UNL     1     -10.740   9.053  69.251  1.00  0.00    -0.189 A  
HETATM   10  C   UNL     1     -10.867  10.072  68.306  1.00  0.00    -0.286 A  
HETATM   11  C   UNL     1     -11.353  11.333  68.681  1.00  0.00    -0.336 A  
HETATM   12  C   UNL     1     -11.816  11.616  69.979  1.00  0.00    -0.435 A  
HETATM   13  C   UNL     1     -11.353   9.266  70.489  1.00  0.00    -0.306 A  
HETATM   14  C   UNL     1     -11.908  10.510  70.838  1.00  0.00    -0.455 A  
BRANCH  12  15
HETATM   15  C   UNL     1     -12.167  13.020  70.385  1.00  0.00    -0.386 A  
HETATM   16  C   UNL     1     -12.690  13.198  71.699  1.00  0.00    -0.320 A  
HETATM   17  C   UNL     1     -13.188  14.413  72.170  1.00  0.00    -0.472 A  
HETATM   18  C   UNL     1     -13.140  15.530  71.357  1.00  0.00    -0.580 A  
HETATM   19  C   UNL     1     -12.591  15.416  70.082  1.00  0.00    -0.329 A  
HETATM   20  C   UNL     1     -12.106  14.183  69.569  1.00  0.00    -0.388 A  
BRANCH  20  21
HETATM   21  C   UNL     1     -11.606  14.260  68.198  1.00  0.00    -0.332 A  
HETATM   22  N   UNL     1     -10.348  14.636  67.884  1.00  0.00    -0.236 NA 
HETATM   23  N   UNL     1     -10.408  14.626  66.548  1.00  0.00    -0.276 NA 
HETATM   24  H   UNL     1      -9.567  14.866  68.498  1.00  0.00     0.000 HD 
HETATM   25  N   UNL     1     -11.579  14.251  66.019  1.00  0.00    -0.351 NA 
HETATM   26  N   UNL     1     -12.366  14.050  67.069  1.00  0.00    -0.338 NA 
ENDBRANCH  20  21
ENDBRANCH  12  15
ENDBRANCH   8   9
ENDBRANCH   6   8
BRANCH   6  27
HETATM   27  C   UNL     1      -7.449   8.215  69.542  1.00  0.00    -0.087 C  
HETATM   28  C   UNL     1      -7.097   9.661  70.016  1.00  0.00    -0.104 C  
HETATM   29  O   UNL     1      -5.947   9.983  70.311  1.00  0.00    -0.053 OA 
HETATM   30  C   UNL     1      -7.001   7.949  68.071  1.00  0.00    -0.073 C  
HETATM   31  O   UNL     1      -8.065  10.593  70.001  1.00  0.00     0.105 OA 
HETATM   32  C   UNL     1      -8.021   8.315  67.000  1.00  0.00    -0.100 C  
HETATM   33  C   UNL     1      -5.619   8.506  67.722  1.00  0.00    -0.035 C  
ENDBRANCH   6  27
ENDBRANCH   4   5
ENDBRANCH   3   4
ENDBRANCH   2   3
TORSDOF 8
ENDMDL
MODEL      171
REMARK 921   NORMALIZED FREE ENERGY PREDICTED BY IDOCK:   -4.89 KCAL/MOL
REMARK 922        TOTAL FREE ENERGY PREDICTED BY IDOCK:   -7.70 KCAL/MOL
REMARK 923 INTER-LIGAND FREE ENERGY PREDICTED BY IDOCK:   -8.01 KCAL/MOL
REMARK 924 INTRA-LIGAND FREE ENERGY PREDICTED BY IDOCK:    0.31 KCAL/MOL
REMARK 927      BINDING AFFINITY PREDICTED BY RF-SCORE:    0.00 PKD
ROOT
HETATM    1  C   UNL     1      -9.480   6.900  66.722  1.00  0.00    -0.204 C  
HETATM    2  C   UNL     1     -10.690   7.372  67.502  1.00  0.00    -0.310 C  
ENDROOT
BRANCH   2   3
HETATM    3  C   UNL     1     -11.210   6.315  68.478  1.00  0.00    -0.305 C  
BRANCH   3   4
HETATM    4  C   UNL     1     -11.154   6.874  69.900  1.00  0.00    -0.333 C  
BRANCH   4   5
HETATM    5  C   UNL     1      -9.756   6.990  70.469  1.00  0.00    -0.176 C  
HETATM    6  N   UNL     1      -9.382   8.184  71.085  1.00  0.00    -0.148 N  
HETATM    7  O   UNL     1      -8.964   6.048  70.372  1.00  0.00    -0.145 OA 
BRANCH   6   8
HETATM    8  C   UNL     1     -10.324   9.328  71.253  1.00  0.00    -0.327 C  
BRANCH   8   9
HETATM    9  C   UNL     1     -10.456  10.227  70.034  1.00  0.00    -0.293 A  
HETATM   10  C   UNL     1     -11.713  10.662  69.615  1.00  0.00    -0.368 A  
HETATM   11  C   UNL     1     -11.885  11.212  68.335  1.00  0.00    -0.302 A  
HETATM   12  C   UNL     1     -10.813  11.436  67.452  1.00  0.00    -0.301 A  
HETATM   13  C   UNL     1      -9.366  10.600  69.243  1.00  0.00    -0.136 A  
HETATM   14  C   UNL     1      -9.536  11.220  67.992  1.00  0.00    -0.173 A  
BRANCH  12  15
HETATM   15  C   UNL     1     -11.059  11.864  66.033  1.00  0.00    -0.369 A  
HETATM   16  C   UNL     1     -12.160  12.741  65.807  1.00  0.00    -0.505 A  
HETATM   17  C   UNL     1     -12.598  13.115  64.536  1.00  0.00    -0.344 A  
HETATM   18  C   UNL     1     -11.916  12.663  63.421  1.00  0.00    -0.613 A  
HETATM   19  C   UNL     1     -10.803  11.844  63.594  1.00  0.00    -0.510 A  
HETATM   20  C   UNL     1     -10.357  11.425  64.876  1.00  0.00    -0.347 A  
BRANCH  20  21
HETATM   21  C   UNL     1      -9.198  10.536  64.847  1.00  0.00    -0.215 A  
HETATM   22  N   UNL     1      -9.200   9.329  64.241  1.00  0.00    -0.425 NA 
HETATM   23  N   UNL     1      -7.978   8.887  64.555  1.00  0.00    -0.127 NA 
HETATM   24  H   UNL     1      -9.933   8.879  63.694  1.00  0.00     0.000 HD 
HETATM   25  N   UNL     1      -7.221   9.725  65.274  1.00  0.00    -0.113 NA 
HETATM   26  N   UNL     1      -8.007  10.771  65.498  1.00  0.00    -0.113 NA 
ENDBRANCH  20  21
ENDBRANCH  12  15
ENDBRANCH   8   9
ENDBRANCH   6   8
BRANCH   6  27
HETATM   27  C   UNL     1      -8.068   8.268  71.826  1.00  0.00    -0.141 C  
HETATM   28  C   UNL     1      -6.746   7.739  71.187  1.00  0.00    -0.041 C  
HETATM   29  O   UNL     1      -5.662   8.280  71.401  1.00  0.00    -0.033 OA 
HETATM   30  C   UNL     1      -8.185   7.897  73.337  1.00  0.00    -0.246 C  
HETATM   31  O   UNL     1      -6.791   6.605  70.468  1.00  0.00    -0.059 OA 
HETATM   32  C   UNL     1      -8.837   6.551  73.632  1.00  0.00    -0.137 C  
HETATM   33  C   UNL     1      -6.887   8.061  74.129  1.00  0.00    -0.150 C  
ENDBRANCH   6  27
ENDBRANCH   4   5
ENDBRANCH   3   4
ENDBRANCH   2   3
TORSDOF 8
ENDMDL
MODEL      172
REMARK 921   NORMALIZED FREE ENERGY PREDICTED BY IDOCK:   -4.87 KCAL/MOL
REMARK 922        TOTAL FREE ENERGY PREDICTED BY IDOCK:   -7.67 KCAL/MOL
REMARK 923 INTER-LIGAND FREE ENERGY PREDICTED BY IDOCK:   -7.01 KCAL/MOL
REMARK 924 INTRA-LIGAND FREE ENERGY PREDICTED BY IDOCK:   -0.66 KCAL/MOL
REMARK 927      BINDING AFFINITY PREDICTED BY RF-SCORE:    0.00 PKD
ROOT
HETATM    1  C   UNL     1     -13.270  12.285  71.812  1.00  0.00    -0.428 C  
HETATM    2  C   UNL     1     -12.867  11.117  70.936  1.00  0.00    -0.374 C  
ENDROOT
BRANCH   2   3
HETATM    3  C   UNL     1     -12.227  11.562  69.619  1.00  0.00    -0.296 C  
BRANCH   3   4
HETATM    4  C   UNL     1     -11.286  12.736  69.890  1.00  0.00    -0.032 C  
BRANCH   4   5
HETATM    5  C   UNL     1     -11.594  13.980  69.083  1.00  0.00    -0.313 C  
HETATM    6  N   UNL     1     -10.560  14.590  68.374  1.00  0.00    -0.238 N  
HETATM    7  O   UNL     1     -12.736  14.448  69.072  1.00  0.00     0.093 OA 
BRANCH   6   8
HETATM    8  C   UNL     1      -9.177  14.031  68.335  1.00  0.00    -0.196 C  
BRANCH   8   9
HETATM    9  C   UNL     1      -9.093  12.569  67.928  1.00  0.00    -0.199 A  
HETATM   10  C   UNL     1      -9.796  12.108  66.815  1.00  0.00    -0.218 A  
HETATM   11  C   UNL     1      -9.989  10.732  66.616  1.00  0.00    -0.251 A  
HETATM   12  C   UNL     1      -9.425   9.755  67.455  1.00  0.00    -0.178 A  
HETATM   13  C   UNL     1      -8.387  11.614  68.665  1.00  0.00    -0.100 A  
HETATM   14  C   UNL     1      -8.523  10.236  68.416  1.00  0.00    -0.124 A  
BRANCH  12  15
HETATM   15  C   UNL     1      -9.795   8.305  67.309  1.00  0.00    -0.258 A  
HETATM   16  C   UNL     1     -10.722   7.780  68.257  1.00  0.00    -0.093 A  
HETATM   17  C   UNL     1     -11.056   6.428  68.337  1.00  0.00    -0.374 A  
HETATM   18  C   UNL     1     -10.511   5.537  67.432  1.00  0.00    -0.284 A  
HETATM   19  C   UNL     1      -9.639   6.012  66.456  1.00  0.00    -0.182 A  
HETATM   20  C   UNL     1      -9.259   7.378  66.373  1.00  0.00    -0.203 A  
BRANCH  20  21
HETATM   21  C   UNL     1      -8.304   7.672  65.306  1.00  0.00    -0.115 A  
HETATM   22  N   UNL     1      -8.664   8.150  64.095  1.00  0.00    -0.374 NA 
HETATM   23  N   UNL     1      -7.482   8.171  63.471  1.00  0.00    -0.113 NA 
HETATM   24  H   UNL     1      -9.586   8.419  63.752  1.00  0.00     0.000 HD 
HETATM   25  N   UNL     1      -6.430   7.776  64.200  1.00  0.00    -0.056 NA 
HETATM   26  N   UNL     1      -6.952   7.419  65.367  1.00  0.00    -0.058 NA 
ENDBRANCH  20  21
ENDBRANCH  12  15
ENDBRANCH   8   9
ENDBRANCH   6   8
BRANCH   6  27
HETATM   27  C   UNL     1     -10.868  15.714  67.413  1.00  0.00    -0.315 C  
HETATM   28  C   UNL     1     -10.630  15.551  65.879  1.00  0.00    -0.339 C  
HETATM   29  O   UNL     1     -11.362  16.091  65.050  1.00  0.00    -0.262 OA 
HETATM   30  C   UNL     1     -10.423  17.115  67.937  1.00  0.00    -0.369 C  
HETATM   31  O   UNL     1      -9.537  14.887  65.467  1.00  0.00    -0.296 OA 
HETATM   32  C   UNL     1      -8.965  17.218  68.372  1.00  0.00    -0.269 C  
HETATM   33  C   UNL     1     -10.803  18.280  67.021  1.00  0.00    -0.196 C  
ENDBRANCH   6  27
ENDBRANCH   4   5
ENDBRANCH   3   4
ENDBRANCH   2   3
TORSDOF 8
ENDMDL
MODEL      173
REMARK 921   NORMALIZED FREE ENERGY PREDICTED BY IDOCK:   -4.85 KCAL/MOL
REMARK 922        TOTAL FREE ENERGY PREDICTED BY IDOCK:   -7.65 KCAL/MOL
REMARK 923 INTER-LIGAND FREE ENERGY PREDICTED BY IDOCK:   -8.31 KCAL/MOL
REMARK 924 INTRA-LIGAND FREE ENERGY PREDICTED BY IDOCK:    0.66 KCAL/MOL
REMARK 927      BINDING AFFINITY PREDICTED BY RF-SCORE:    0.00 PKD
ROOT
HETATM    1  C   UNL     1      -6.440  18.207  68.994  1.00  0.00    -0.245 C  
HETATM    2  C   UNL     1      -6.554  16.837  69.631  1.00  0.00    -0.148 C  
ENDROOT
BRANCH   2   3
HETATM    3  C   UNL     1      -6.587  15.708  68.598  1.00  0.00    -0.110 C  
BRANCH   3   4
HETATM    4  C   UNL     1      -7.878  14.907  68.771  1.00  0.00    -0.149 C  
BRANCH   4   5
HETATM    5  C   UNL     1      -8.972  15.270  67.790  1.00  0.00    -0.177 C  
HETATM    6  N   UNL     1      -9.248  14.394  66.741  1.00  0.00    -0.259 N  
HETATM    7  O   UNL     1      -9.593  16.330  67.913  1.00  0.00    -0.224 OA 
BRANCH   6   8
HETATM    8  C   UNL     1      -8.544  13.088  66.583  1.00  0.00     0.040 C  
BRANCH   8   9
HETATM    9  C   UNL     1      -9.185  11.927  67.323  1.00  0.00    -0.179 A  
HETATM   10  C   UNL     1      -8.865  11.682  68.659  1.00  0.00    -0.084 A  
HETATM   11  C   UNL     1      -9.188  10.453  69.254  1.00  0.00    -0.198 A  
HETATM   12  C   UNL     1      -9.916   9.452  68.586  1.00  0.00    -0.187 A  
HETATM   13  C   UNL     1     -10.053  11.019  66.709  1.00  0.00    -0.260 A  
HETATM   14  C   UNL     1     -10.438   9.820  67.337  1.00  0.00    -0.319 A  
BRANCH  12  15
HETATM   15  C   UNL     1     -10.092   8.089  69.195  1.00  0.00    -0.202 A  
HETATM   16  C   UNL     1      -9.268   7.044  68.682  1.00  0.00    -0.131 A  
HETATM   17  C   UNL     1      -9.410   5.705  69.046  1.00  0.00    -0.150 A  
HETATM   18  C   UNL     1     -10.359   5.351  69.988  1.00  0.00    -0.366 A  
HETATM   19  C   UNL     1     -11.153   6.345  70.554  1.00  0.00    -0.388 A  
HETATM   20  C   UNL     1     -11.049   7.711  70.177  1.00  0.00    -0.229 A  
BRANCH  20  21
HETATM   21  C   UNL     1     -11.995   8.594  70.855  1.00  0.00    -0.191 A  
HETATM   22  N   UNL     1     -12.714   9.544  70.219  1.00  0.00    -0.291 NA 
HETATM   23  N   UNL     1     -13.345  10.116  71.250  1.00  0.00    -0.348 NA 
HETATM   24  H   UNL     1     -12.762   9.764  69.225  1.00  0.00     0.000 HD 
HETATM   25  N   UNL     1     -13.097   9.583  72.454  1.00  0.00    -0.397 NA 
HETATM   26  N   UNL     1     -12.204   8.631  72.216  1.00  0.00    -0.379 NA 
ENDBRANCH  20  21
ENDBRANCH  12  15
ENDBRANCH   8   9
ENDBRANCH   6   8
BRANCH   6  27
HETATM   27  C   UNL     1     -10.452  14.631  65.860  1.00  0.00    -0.314 C  
HETATM   28  C   UNL     1     -10.774  16.052  65.299  1.00  0.00    -0.399 C  
HETATM   29  O   UNL     1     -11.283  16.209  64.190  1.00  0.00    -0.661 OA 
HETATM   30  C   UNL     1     -11.732  13.882  66.346  1.00  0.00    -0.403 C  
HETATM   31  O   UNL     1     -10.577  17.115  66.096  1.00  0.00    -0.299 OA 
HETATM   32  C   UNL     1     -12.123  14.130  67.798  1.00  0.00    -0.321 C  
HETATM   33  C   UNL     1     -12.941  14.035  65.421  1.00  0.00    -0.346 C  
ENDBRANCH   6  27
ENDBRANCH   4   5
ENDBRANCH   3   4
ENDBRANCH   2   3
TORSDOF 8
ENDMDL
MODEL      174
REMARK 921   NORMALIZED FREE ENERGY PREDICTED BY IDOCK:   -4.85 KCAL/MOL
REMARK 922        TOTAL FREE ENERGY PREDICTED BY IDOCK:   -7.64 KCAL/MOL
REMARK 923 INTER-LIGAND FREE ENERGY PREDICTED BY IDOCK:   -7.47 KCAL/MOL
REMARK 924 INTRA-LIGAND FREE ENERGY PREDICTED BY IDOCK:   -0.18 KCAL/MOL
REMARK 927      BINDING AFFINITY PREDICTED BY RF-SCORE:    0.00 PKD
ROOT
HETATM    1  C   UNL     1      -5.184   9.693  65.206  1.00  0.00    -0.044 C  
HETATM    2  C   UNL     1      -5.256  11.028  65.917  1.00  0.00    -0.139 C  
ENDROOT
BRANCH   2   3
HETATM    3  C   UNL     1      -5.648  10.890  67.390  1.00  0.00    -0.045 C  
BRANCH   3   4
HETATM    4  C   UNL     1      -7.156  10.660  67.489  1.00  0.00    -0.089 C  
BRANCH   4   5
HETATM    5  C   UNL     1      -7.947  11.885  67.895  1.00  0.00    -0.144 C  
HETATM    6  N   UNL     1      -9.048  12.257  67.125  1.00  0.00    -0.186 N  
HETATM    7  O   UNL     1      -7.609  12.545  68.882  1.00  0.00    -0.067 OA 
BRANCH   6   8
HETATM    8  C   UNL     1      -9.507  11.462  65.948  1.00  0.00    -0.228 C  
BRANCH   8   9
HETATM    9  C   UNL     1      -9.752   9.989  66.233  1.00  0.00    -0.272 A  
HETATM   10  C   UNL     1     -10.722   9.604  67.159  1.00  0.00    -0.258 A  
HETATM   11  C   UNL     1     -10.741   8.296  67.666  1.00  0.00    -0.195 A  
HETATM   12  C   UNL     1      -9.864   7.292  67.218  1.00  0.00    -0.224 A  
HETATM   13  C   UNL     1      -8.994   8.967  65.656  1.00  0.00    -0.249 A  
HETATM   14  C   UNL     1      -9.068   7.639  66.115  1.00  0.00    -0.189 A  
BRANCH  12  15
HETATM   15  C   UNL     1      -9.803   5.957  67.905  1.00  0.00    -0.139 A  
HETATM   16  C   UNL     1      -9.537   5.967  69.306  1.00  0.00    -0.172 A  
HETATM   17  C   UNL     1      -9.314   4.810  70.054  1.00  0.00    -0.213 A  
HETATM   18  C   UNL     1      -9.396   3.575  69.439  1.00  0.00    -0.243 A  
HETATM   19  C   UNL     1      -9.703   3.513  68.082  1.00  0.00    -0.073 A  
HETATM   20  C   UNL     1      -9.904   4.677  67.293  1.00  0.00    -0.218 A  
BRANCH  20  21
HETATM   21  C   UNL     1     -10.176   4.406  65.883  1.00  0.00    -0.227 A  
HETATM   22  N   UNL     1     -11.407   4.485  65.334  1.00  0.00    -0.995 NA 
HETATM   23  N   UNL     1     -11.153   4.078  64.085  1.00  0.00    -0.242 NA 
HETATM   24  H   UNL     1     -12.289   4.775  65.756  1.00  0.00     0.000 HD 
HETATM   25  N   UNL     1      -9.874   3.785  63.816  1.00  0.00    -0.161 NA 
HETATM   26  N   UNL     1      -9.246   3.956  64.972  1.00  0.00    -0.140 NA 
ENDBRANCH  20  21
ENDBRANCH  12  15
ENDBRANCH   8   9
ENDBRANCH   6   8
BRANCH   6  27
HETATM   27  C   UNL     1      -9.967  13.355  67.605  1.00  0.00    -0.229 C  
HETATM   28  C   UNL     1     -11.478  13.077  67.884  1.00  0.00    -0.311 C  
HETATM   29  O   UNL     1     -12.087  13.657  68.782  1.00  0.00    -0.355 OA 
HETATM   30  C   UNL     1      -9.739  14.716  66.877  1.00  0.00    -0.249 C  
HETATM   31  O   UNL     1     -12.143  12.259  67.052  1.00  0.00    -0.575 OA 
HETATM   32  C   UNL     1      -9.786  14.659  65.354  1.00  0.00    -0.280 C  
HETATM   33  C   UNL     1     -10.597  15.866  67.408  1.00  0.00    -0.315 C  
ENDBRANCH   6  27
ENDBRANCH   4   5
ENDBRANCH   3   4
ENDBRANCH   2   3
TORSDOF 8
ENDMDL
MODEL      175
REMARK 921   NORMALIZED FREE ENERGY PREDICTED BY IDOCK:   -4.84 KCAL/MOL
REMARK 922        TOTAL FREE ENERGY PREDICTED BY IDOCK:   -7.63 KCAL/MOL
REMARK 923 INTER-LIGAND FREE ENERGY PREDICTED BY IDOCK:   -8.08 KCAL/MOL
REMARK 924 INTRA-LIGAND FREE ENERGY PREDICTED BY IDOCK:    0.45 KCAL/MOL
REMARK 927      BINDING AFFINITY PREDICTED BY RF-SCORE:    0.00 PKD
ROOT
HETATM    1  C   UNL     1     -12.154  15.816  71.906  1.00  0.00    -0.548 C  
HETATM    2  C   UNL     1     -12.588  14.511  71.272  1.00  0.00    -0.415 C  
ENDROOT
BRANCH   2   3
HETATM    3  C   UNL     1     -11.615  14.030  70.192  1.00  0.00    -0.273 C  
BRANCH   3   4
HETATM    4  C   UNL     1     -11.486  15.109  69.116  1.00  0.00    -0.322 C  
BRANCH   4   5
HETATM    5  C   UNL     1     -10.059  15.478  68.773  1.00  0.00    -0.211 C  
HETATM    6  N   UNL     1      -9.494  14.955  67.611  1.00  0.00    -0.198 N  
HETATM    7  O   UNL     1      -9.410  16.216  69.520  1.00  0.00    -0.223 OA 
BRANCH   6   8
HETATM    8  C   UNL     1     -10.260  14.091  66.667  1.00  0.00    -0.275 C  
BRANCH   8   9
HETATM    9  C   UNL     1     -10.104  12.598  66.902  1.00  0.00    -0.234 A  
HETATM   10  C   UNL     1     -11.060  11.706  66.417  1.00  0.00    -0.347 A  
HETATM   11  C   UNL     1     -11.106  10.386  66.890  1.00  0.00    -0.083 A  
HETATM   12  C   UNL     1     -10.159   9.867  67.791  1.00  0.00    -0.221 A  
HETATM   13  C   UNL     1      -9.062  12.052  67.657  1.00  0.00    -0.179 A  
HETATM   14  C   UNL     1      -9.070  10.707  68.069  1.00  0.00    -0.147 A  
BRANCH  12  15
HETATM   15  C   UNL     1     -10.341   8.506  68.404  1.00  0.00    -0.241 A  
HETATM   16  C   UNL     1      -9.801   7.400  67.685  1.00  0.00    -0.194 A  
HETATM   17  C   UNL     1     -10.008   6.070  68.052  1.00  0.00    -0.162 A  
HETATM   18  C   UNL     1     -10.731   5.783  69.195  1.00  0.00    -0.370 A  
HETATM   19  C   UNL     1     -11.237   6.833  69.957  1.00  0.00    -0.380 A  
HETATM   20  C   UNL     1     -11.065   8.194  69.588  1.00  0.00    -0.015 A  
BRANCH  20  21
HETATM   21  C   UNL     1     -11.704   9.147  70.494  1.00  0.00    -0.152 A  
HETATM   22  N   UNL     1     -11.773  10.473  70.252  1.00  0.00    -0.305 NA 
HETATM   23  N   UNL     1     -12.356  10.905  71.375  1.00  0.00    -0.331 NA 
HETATM   24  H   UNL     1     -11.464  11.001  69.436  1.00  0.00     0.000 HD 
HETATM   25  N   UNL     1     -12.673   9.959  72.268  1.00  0.00    -0.280 NA 
HETATM   26  N   UNL     1     -12.226   8.832  71.729  1.00  0.00    -0.325 NA 
ENDBRANCH  20  21
ENDBRANCH  12  15
ENDBRANCH   8   9
ENDBRANCH   6   8
BRANCH   6  27
HETATM   27  C   UNL     1      -8.146  15.450  67.142  1.00  0.00    -0.217 C  
HETATM   28  C   UNL     1      -6.840  15.096  67.921  1.00  0.00    -0.155 C  
HETATM   29  O   UNL     1      -5.769  14.919  67.343  1.00  0.00    -0.342 OA 
HETATM   30  C   UNL     1      -8.165  16.935  66.661  1.00  0.00    -0.292 C  
HETATM   31  O   UNL     1      -6.879  15.086  69.264  1.00  0.00    -0.124 OA 
HETATM   32  C   UNL     1      -8.744  17.936  67.653  1.00  0.00    -0.242 C  
HETATM   33  C   UNL     1      -6.832  17.432  66.098  1.00  0.00    -0.278 C  
ENDBRANCH   6  27
ENDBRANCH   4   5
ENDBRANCH   3   4
ENDBRANCH   2   3
TORSDOF 8
ENDMDL
MODEL      176
REMARK 921   NORMALIZED FREE ENERGY PREDICTED BY IDOCK:   -4.84 KCAL/MOL
REMARK 922        TOTAL FREE ENERGY PREDICTED BY IDOCK:   -7.62 KCAL/MOL
REMARK 923 INTER-LIGAND FREE ENERGY PREDICTED BY IDOCK:   -7.11 KCAL/MOL
REMARK 924 INTRA-LIGAND FREE ENERGY PREDICTED BY IDOCK:   -0.52 KCAL/MOL
REMARK 927      BINDING AFFINITY PREDICTED BY RF-SCORE:    0.00 PKD
ROOT
HETATM    1  C   UNL     1      -5.838   9.731  69.313  1.00  0.00    -0.034 C  
HETATM    2  C   UNL     1      -6.588  10.822  70.050  1.00  0.00    -0.159 C  
ENDROOT
BRANCH   2   3
HETATM    3  C   UNL     1      -6.909  12.022  69.156  1.00  0.00    -0.090 C  
BRANCH   3   4
HETATM    4  C   UNL     1      -7.564  11.527  67.867  1.00  0.00    -0.113 C  
BRANCH   4   5
HETATM    5  C   UNL     1      -8.827  12.269  67.485  1.00  0.00    -0.182 C  
HETATM    6  N   UNL     1      -9.425  11.985  66.258  1.00  0.00    -0.227 N  
HETATM    7  O   UNL     1      -9.302  13.120  68.243  1.00  0.00    -0.212 OA 
BRANCH   6   8
HETATM    8  C   UNL     1      -8.899  10.938  65.334  1.00  0.00    -0.180 C  
BRANCH   8   9
HETATM    9  C   UNL     1      -9.023   9.514  65.850  1.00  0.00    -0.210 A  
HETATM   10  C   UNL     1     -10.271   9.005  66.213  1.00  0.00    -0.237 A  
HETATM   11  C   UNL     1     -10.364   7.833  66.979  1.00  0.00    -0.405 A  
HETATM   12  C   UNL     1      -9.241   7.070  67.344  1.00  0.00    -0.134 A  
HETATM   13  C   UNL     1      -7.921   8.680  66.055  1.00  0.00    -0.107 A  
HETATM   14  C   UNL     1      -8.029   7.467  66.759  1.00  0.00    -0.115 A  
BRANCH  12  15
HETATM   15  C   UNL     1      -9.367   5.922  68.305  1.00  0.00    -0.118 A  
HETATM   16  C   UNL     1      -8.831   4.669  67.886  1.00  0.00    -0.117 A  
HETATM   17  C   UNL     1      -8.992   3.484  68.604  1.00  0.00    -0.183 A  
HETATM   18  C   UNL     1      -9.663   3.506  69.813  1.00  0.00    -0.114 A  
HETATM   19  C   UNL     1     -10.161   4.717  70.288  1.00  0.00    -0.276 A  
HETATM   20  C   UNL     1     -10.036   5.931  69.561  1.00  0.00    -0.238 A  
BRANCH  20  21
HETATM   21  C   UNL     1     -10.659   7.084  70.207  1.00  0.00    -0.226 A  
HETATM   22  N   UNL     1     -11.993   7.288  70.239  1.00  0.00    -0.551 NA 
HETATM   23  N   UNL     1     -12.051   8.478  70.849  1.00  0.00    -0.204 NA 
HETATM   24  H   UNL     1     -12.749   6.698  69.894  1.00  0.00     0.000 HD 
HETATM   25  N   UNL     1     -10.876   9.004  71.215  1.00  0.00    -0.286 NA 
HETATM   26  N   UNL     1      -9.974   8.135  70.774  1.00  0.00    -0.187 NA 
ENDBRANCH  20  21
ENDBRANCH  12  15
ENDBRANCH   8   9
ENDBRANCH   6   8
BRANCH   6  27
HETATM   27  C   UNL     1     -10.780  12.565  65.929  1.00  0.00    -0.264 C  
HETATM   28  C   UNL     1     -11.572  12.099  64.667  1.00  0.00    -0.328 C  
HETATM   29  O   UNL     1     -12.800  12.033  64.662  1.00  0.00    -0.460 OA 
HETATM   30  C   UNL     1     -10.861  14.109  66.143  1.00  0.00    -0.296 C  
HETATM   31  O   UNL     1     -10.890  11.865  63.533  1.00  0.00    -0.387 OA 
HETATM   32  C   UNL     1      -9.786  14.925  65.434  1.00  0.00    -0.303 C  
HETATM   33  C   UNL     1     -12.249  14.707  65.901  1.00  0.00    -0.165 C  
ENDBRANCH   6  27
ENDBRANCH   4   5
ENDBRANCH   3   4
ENDBRANCH   2   3
TORSDOF 8
ENDMDL
MODEL      177
REMARK 921   NORMALIZED FREE ENERGY PREDICTED BY IDOCK:   -4.82 KCAL/MOL
REMARK 922        TOTAL FREE ENERGY PREDICTED BY IDOCK:   -7.60 KCAL/MOL
REMARK 923 INTER-LIGAND FREE ENERGY PREDICTED BY IDOCK:   -7.19 KCAL/MOL
REMARK 924 INTRA-LIGAND FREE ENERGY PREDICTED BY IDOCK:   -0.42 KCAL/MOL
REMARK 927      BINDING AFFINITY PREDICTED BY RF-SCORE:    0.00 PKD
ROOT
HETATM    1  C   UNL     1      -9.406   2.712  67.549  1.00  0.00    -0.188 C  
HETATM    2  C   UNL     1      -9.323   4.059  68.237  1.00  0.00    -0.216 C  
ENDROOT
BRANCH   2   3
HETATM    3  C   UNL     1      -9.529   5.227  67.269  1.00  0.00    -0.134 C  
BRANCH   3   4
HETATM    4  C   UNL     1      -8.169   5.688  66.743  1.00  0.00    -0.105 C  
BRANCH   4   5
HETATM    5  C   UNL     1      -8.236   6.482  65.457  1.00  0.00    -0.138 C  
HETATM    6  N   UNL     1      -7.881   7.830  65.483  1.00  0.00    -0.103 N  
HETATM    7  O   UNL     1      -8.613   5.944  64.412  1.00  0.00    -0.047 OA 
BRANCH   6   8
HETATM    8  C   UNL     1      -7.386   8.503  66.719  1.00  0.00    -0.082 C  
BRANCH   8   9
HETATM    9  C   UNL     1      -8.457   8.793  67.758  1.00  0.00    -0.125 A  
HETATM   10  C   UNL     1      -9.798   8.874  67.381  1.00  0.00    -0.247 A  
HETATM   11  C   UNL     1     -10.745   9.448  68.244  1.00  0.00    -0.220 A  
HETATM   12  C   UNL     1     -10.427   9.882  69.543  1.00  0.00    -0.261 A  
HETATM   13  C   UNL     1      -8.164   9.058  69.099  1.00  0.00    -0.121 A  
HETATM   14  C   UNL     1      -9.134   9.563  69.984  1.00  0.00    -0.255 A  
BRANCH  12  15
HETATM   15  C   UNL     1     -11.426  10.645  70.367  1.00  0.00    -0.422 A  
HETATM   16  C   UNL     1     -12.063   9.932  71.425  1.00  0.00    -0.501 A  
HETATM   17  C   UNL     1     -13.108  10.459  72.187  1.00  0.00    -0.427 A  
HETATM   18  C   UNL     1     -13.534  11.753  71.955  1.00  0.00    -0.278 A  
HETATM   19  C   UNL     1     -12.907  12.505  70.964  1.00  0.00    -0.246 A  
HETATM   20  C   UNL     1     -11.863  11.981  70.156  1.00  0.00    -0.383 A  
BRANCH  20  21
HETATM   21  C   UNL     1     -11.362  12.912  69.146  1.00  0.00    -0.273 A  
HETATM   22  N   UNL     1     -10.703  14.051  69.445  1.00  0.00    -0.433 NA 
HETATM   23  N   UNL     1     -10.536  14.574  68.226  1.00  0.00    -0.237 NA 
HETATM   24  H   UNL     1     -10.412  14.414  70.353  1.00  0.00     0.000 HD 
HETATM   25  N   UNL     1     -11.010  13.843  67.208  1.00  0.00    -0.286 NA 
HETATM   26  N   UNL     1     -11.575  12.793  67.791  1.00  0.00    -0.332 NA 
ENDBRANCH  20  21
ENDBRANCH  12  15
ENDBRANCH   8   9
ENDBRANCH   6   8
BRANCH   6  27
HETATM   27  C   UNL     1      -7.755   8.601  64.190  1.00  0.00    -0.129 C  
HETATM   28  C   UNL     1      -6.453   9.391  63.846  1.00  0.00    -0.095 C  
HETATM   29  O   UNL     1      -6.047   9.496  62.690  1.00  0.00    -0.096 OA 
HETATM   30  C   UNL     1      -9.046   9.393  63.813  1.00  0.00    -0.073 C  
HETATM   31  O   UNL     1      -5.825  10.051  64.833  1.00  0.00    -0.085 OA 
HETATM   32  C   UNL     1      -9.582  10.322  64.895  1.00  0.00    -0.365 C  
HETATM   33  C   UNL     1      -8.973  10.110  62.463  1.00  0.00    -0.284 C  
ENDBRANCH   6  27
ENDBRANCH   4   5
ENDBRANCH   3   4
ENDBRANCH   2   3
TORSDOF 8
ENDMDL
MODEL      178
REMARK 921   NORMALIZED FREE ENERGY PREDICTED BY IDOCK:   -4.79 KCAL/MOL
REMARK 922        TOTAL FREE ENERGY PREDICTED BY IDOCK:   -7.56 KCAL/MOL
REMARK 923 INTER-LIGAND FREE ENERGY PREDICTED BY IDOCK:   -8.16 KCAL/MOL
REMARK 924 INTRA-LIGAND FREE ENERGY PREDICTED BY IDOCK:    0.60 KCAL/MOL
REMARK 927      BINDING AFFINITY PREDICTED BY RF-SCORE:    0.00 PKD
ROOT
HETATM    1  C   UNL     1     -13.216  11.346  71.730  1.00  0.00    -0.472 C  
HETATM    2  C   UNL     1     -12.260  10.373  71.070  1.00  0.00    -0.498 C  
ENDROOT
BRANCH   2   3
HETATM    3  C   UNL     1     -11.448  11.019  69.944  1.00  0.00    -0.400 C  
BRANCH   3   4
HETATM    4  C   UNL     1     -10.137  10.253  69.768  1.00  0.00    -0.244 C  
BRANCH   4   5
HETATM    5  C   UNL     1     -10.062   9.429  68.500  1.00  0.00    -0.187 C  
HETATM    6  N   UNL     1      -8.983   9.622  67.640  1.00  0.00    -0.125 N  
HETATM    7  O   UNL     1     -10.952   8.616  68.232  1.00  0.00    -0.008 OA 
BRANCH   6   8
HETATM    8  C   UNL     1      -7.871  10.568  67.949  1.00  0.00    -0.105 C  
BRANCH   8   9
HETATM    9  C   UNL     1      -8.096  11.992  67.468  1.00  0.00    -0.159 A  
HETATM   10  C   UNL     1      -7.324  13.036  67.976  1.00  0.00    -0.123 A  
HETATM   11  C   UNL     1      -7.722  14.369  67.793  1.00  0.00    -0.172 A  
HETATM   12  C   UNL     1      -8.846  14.730  67.028  1.00  0.00    -0.258 A  
HETATM   13  C   UNL     1      -9.107  12.339  66.567  1.00  0.00    -0.188 A  
HETATM   14  C   UNL     1      -9.457  13.681  66.326  1.00  0.00    -0.209 A  
BRANCH  12  15
HETATM   15  C   UNL     1      -9.335  16.151  66.999  1.00  0.00    -0.232 A  
HETATM   16  C   UNL     1      -8.675  17.077  67.860  1.00  0.00    -0.216 A  
HETATM   17  C   UNL     1      -9.101  18.392  68.046  1.00  0.00    -0.308 A  
HETATM   18  C   UNL     1     -10.191  18.862  67.337  1.00  0.00    -0.456 A  
HETATM   19  C   UNL     1     -10.837  18.009  66.446  1.00  0.00     0.034 A  
HETATM   20  C   UNL     1     -10.441  16.657  66.261  1.00  0.00    -0.272 A  
BRANCH  20  21
HETATM   21  C   UNL     1     -11.269  15.913  65.315  1.00  0.00    -0.153 A  
HETATM   22  N   UNL     1     -11.436  16.277  64.025  1.00  0.00    -1.521 NA 
HETATM   23  N   UNL     1     -12.316  15.357  63.615  1.00  0.00    -0.249 NA 
HETATM   24  H   UNL     1     -11.007  17.043  63.506  1.00  0.00     0.000 HD 
HETATM   25  N   UNL     1     -12.680  14.449  64.530  1.00  0.00    -0.644 NA 
HETATM   26  N   UNL     1     -12.043  14.819  65.634  1.00  0.00    -0.187 NA 
ENDBRANCH  20  21
ENDBRANCH  12  15
ENDBRANCH   8   9
ENDBRANCH   6   8
BRANCH   6  27
HETATM   27  C   UNL     1      -8.778   8.690  66.468  1.00  0.00    -0.126 C  
HETATM   28  C   UNL     1      -8.629   7.150  66.679  1.00  0.00    -0.124 C  
HETATM   29  O   UNL     1      -9.058   6.341  65.858  1.00  0.00    -0.145 OA 
HETATM   30  C   UNL     1      -7.777   9.242  65.406  1.00  0.00    -0.099 C  
HETATM   31  O   UNL     1      -7.925   6.714  67.737  1.00  0.00    -0.110 OA 
HETATM   32  C   UNL     1      -6.417   9.667  65.947  1.00  0.00    -0.079 C  
HETATM   33  C   UNL     1      -7.621   8.357  64.168  1.00  0.00    -0.125 C  
ENDBRANCH   6  27
ENDBRANCH   4   5
ENDBRANCH   3   4
ENDBRANCH   2   3
TORSDOF 8
ENDMDL
MODEL      179
REMARK 921   NORMALIZED FREE ENERGY PREDICTED BY IDOCK:   -4.78 KCAL/MOL
REMARK 922        TOTAL FREE ENERGY PREDICTED BY IDOCK:   -7.55 KCAL/MOL
REMARK 923 INTER-LIGAND FREE ENERGY PREDICTED BY IDOCK:   -6.50 KCAL/MOL
REMARK 924 INTRA-LIGAND FREE ENERGY PREDICTED BY IDOCK:   -1.04 KCAL/MOL
REMARK 927      BINDING AFFINITY PREDICTED BY RF-SCORE:    0.00 PKD
ROOT
HETATM    1  C   UNL     1      -9.822   8.055  71.044  1.00  0.00    -0.200 C  
HETATM    2  C   UNL     1     -11.192   8.423  71.577  1.00  0.00    -0.328 C  
ENDROOT
BRANCH   2   3
HETATM    3  C   UNL     1     -11.587   9.863  71.240  1.00  0.00    -0.456 C  
BRANCH   3   4
HETATM    4  C   UNL     1     -10.616  10.419  70.197  1.00  0.00    -0.245 C  
BRANCH   4   5
HETATM    5  C   UNL     1     -11.275  11.224  69.099  1.00  0.00    -0.273 C  
HETATM    6  N   UNL     1     -10.586  11.413  67.902  1.00  0.00    -0.181 N  
HETATM    7  O   UNL     1     -12.396  11.713  69.272  1.00  0.00    -0.208 OA 
BRANCH   6   8
HETATM    8  C   UNL     1      -9.248  10.805  67.644  1.00  0.00    -0.147 C  
BRANCH   8   9
HETATM    9  C   UNL     1      -9.240   9.287  67.586  1.00  0.00    -0.139 A  
HETATM   10  C   UNL     1      -8.064   8.580  67.837  1.00  0.00    -0.115 A  
HETATM   11  C   UNL     1      -7.957   7.227  67.479  1.00  0.00    -0.113 A  
HETATM   12  C   UNL     1      -9.031   6.495  66.941  1.00  0.00    -0.128 A  
HETATM   13  C   UNL     1     -10.359   8.534  67.218  1.00  0.00    -0.372 A  
HETATM   14  C   UNL     1     -10.266   7.160  66.930  1.00  0.00    -0.330 A  
BRANCH  12  15
HETATM   15  C   UNL     1      -8.828   5.103  66.413  1.00  0.00    -0.120 A  
HETATM   16  C   UNL     1      -8.777   4.953  64.996  1.00  0.00    -0.149 A  
HETATM   17  C   UNL     1      -8.731   3.715  64.355  1.00  0.00    -0.105 A  
HETATM   18  C   UNL     1      -8.686   2.558  65.110  1.00  0.00    -0.114 A  
HETATM   19  C   UNL     1      -8.683   2.656  66.499  1.00  0.00    -0.127 A  
HETATM   20  C   UNL     1      -8.759   3.903  67.175  1.00  0.00    -0.118 A  
BRANCH  20  21
HETATM   21  C   UNL     1      -8.784   3.795  68.632  1.00  0.00    -0.101 A  
HETATM   22  N   UNL     1      -7.710   4.031  69.415  1.00  0.00    -0.053 NA 
HETATM   23  N   UNL     1      -8.205   3.728  70.620  1.00  0.00    -0.057 NA 
HETATM   24  H   UNL     1      -6.777   4.352  69.157  1.00  0.00     0.000 HD 
HETATM   25  N   UNL     1      -9.491   3.355  70.646  1.00  0.00    -0.163 NA 
HETATM   26  N   UNL     1      -9.861   3.359  69.371  1.00  0.00     0.073 NA 
ENDBRANCH  20  21
ENDBRANCH  12  15
ENDBRANCH   8   9
ENDBRANCH   6   8
BRANCH   6  27
HETATM   27  C   UNL     1     -11.286  12.046  66.723  1.00  0.00    -0.322 C  
HETATM   28  C   UNL     1     -10.880  11.689  65.258  1.00  0.00    -0.283 C  
HETATM   29  O   UNL     1     -11.707  11.651  64.348  1.00  0.00    -0.257 OA 
HETATM   30  C   UNL     1     -11.554  13.572  66.908  1.00  0.00    -0.398 C  
HETATM   31  O   UNL     1      -9.577  11.520  64.977  1.00  0.00    -0.232 OA 
HETATM   32  C   UNL     1     -10.335  14.411  67.271  1.00  0.00    -0.260 C  
HETATM   33  C   UNL     1     -12.340  14.217  65.764  1.00  0.00    -0.481 C  
ENDBRANCH   6  27
ENDBRANCH   4   5
ENDBRANCH   3   4
ENDBRANCH   2   3
TORSDOF 8
ENDMDL
MODEL      180
REMARK 921   NORMALIZED FREE ENERGY PREDICTED BY IDOCK:   -4.77 KCAL/MOL
REMARK 922        TOTAL FREE ENERGY PREDICTED BY IDOCK:   -7.53 KCAL/MOL
REMARK 923 INTER-LIGAND FREE ENERGY PREDICTED BY IDOCK:   -6.77 KCAL/MOL
REMARK 924 INTRA-LIGAND FREE ENERGY PREDICTED BY IDOCK:   -0.75 KCAL/MOL
REMARK 927      BINDING AFFINITY PREDICTED BY RF-SCORE:    0.00 PKD
ROOT
HETATM    1  C   UNL     1      -7.921   9.449  70.845  1.00  0.00    -0.096 C  
HETATM    2  C   UNL     1      -7.599  10.376  69.691  1.00  0.00    -0.158 C  
ENDROOT
BRANCH   2   3
HETATM    3  C   UNL     1      -6.268  10.035  69.016  1.00  0.00    -0.044 C  
BRANCH   3   4
HETATM    4  C   UNL     1      -6.301  10.522  67.567  1.00  0.00    -0.057 C  
BRANCH   4   5
HETATM    5  C   UNL     1      -6.330   9.413  66.537  1.00  0.00    -0.066 C  
HETATM    6  N   UNL     1      -7.087   9.594  65.381  1.00  0.00    -0.095 N  
HETATM    7  O   UNL     1      -5.706   8.366  66.732  1.00  0.00    -0.042 OA 
BRANCH   6   8
HETATM    8  C   UNL     1      -7.823  10.860  65.096  1.00  0.00     0.173 C  
BRANCH   8   9
HETATM    9  C   UNL     1      -8.976  11.152  66.041  1.00  0.00    -0.210 A  
HETATM   10  C   UNL     1      -9.123  12.423  66.598  1.00  0.00    -0.204 A  
HETATM   11  C   UNL     1      -9.969  12.622  67.700  1.00  0.00    -0.216 A  
HETATM   12  C   UNL     1     -10.770  11.600  68.241  1.00  0.00    -0.246 A  
HETATM   13  C   UNL     1      -9.888  10.176  66.453  1.00  0.00    -0.279 A  
HETATM   14  C   UNL     1     -10.789  10.402  67.510  1.00  0.00    -0.358 A  
BRANCH  12  15
HETATM   15  C   UNL     1     -11.528  11.809  69.521  1.00  0.00    -0.363 A  
HETATM   16  C   UNL     1     -12.050  10.644  70.157  1.00  0.00    -0.414 A  
HETATM   17  C   UNL     1     -12.889  10.687  71.271  1.00  0.00    -0.535 A  
HETATM   18  C   UNL     1     -13.208  11.907  71.837  1.00  0.00    -0.467 A  
HETATM   19  C   UNL     1     -12.681  13.070  71.280  1.00  0.00    -0.385 A  
HETATM   20  C   UNL     1     -11.850  13.054  70.128  1.00  0.00    -0.324 A  
BRANCH  20  21
HETATM   21  C   UNL     1     -11.430  14.378  69.673  1.00  0.00    -0.283 A  
HETATM   22  N   UNL     1     -10.448  15.092  70.265  1.00  0.00    -0.502 NA 
HETATM   23  N   UNL     1     -10.499  16.225  69.557  1.00  0.00    -0.285 NA 
HETATM   24  H   UNL     1      -9.836  14.836  71.039  1.00  0.00     0.000 HD 
HETATM   25  N   UNL     1     -11.404  16.257  68.570  1.00  0.00    -0.367 NA 
HETATM   26  N   UNL     1     -12.032  15.091  68.661  1.00  0.00    -0.287 NA 
ENDBRANCH  20  21
ENDBRANCH  12  15
ENDBRANCH   8   9
ENDBRANCH   6   8
BRANCH   6  27
HETATM   27  C   UNL     1      -6.989   8.594  64.253  1.00  0.00    -0.081 C  
HETATM   28  C   UNL     1      -5.760   8.583  63.290  1.00  0.00    -0.072 C  
HETATM   29  O   UNL     1      -5.322   7.538  62.811  1.00  0.00    -0.043 OA 
HETATM   30  C   UNL     1      -8.337   8.380  63.496  1.00  0.00    -0.055 C  
HETATM   31  O   UNL     1      -5.240   9.760  62.902  1.00  0.00    -0.079 OA 
HETATM   32  C   UNL     1      -9.005   9.648  62.979  1.00  0.00    -0.257 C  
HETATM   33  C   UNL     1      -8.284   7.307  62.407  1.00  0.00    -0.074 C  
ENDBRANCH   6  27
ENDBRANCH   4   5
ENDBRANCH   3   4
ENDBRANCH   2   3
TORSDOF 8
ENDMDL
MODEL      181
REMARK 921   NORMALIZED FREE ENERGY PREDICTED BY IDOCK:   -4.77 KCAL/MOL
REMARK 922        TOTAL FREE ENERGY PREDICTED BY IDOCK:   -7.52 KCAL/MOL
REMARK 923 INTER-LIGAND FREE ENERGY PREDICTED BY IDOCK:   -7.40 KCAL/MOL
REMARK 924 INTRA-LIGAND FREE ENERGY PREDICTED BY IDOCK:   -0.12 KCAL/MOL
REMARK 927      BINDING AFFINITY PREDICTED BY RF-SCORE:    0.00 PKD
ROOT
HETATM    1  C   UNL     1     -11.073   6.176  68.339  1.00  0.00    -0.343 C  
HETATM    2  C   UNL     1     -10.592   5.500  67.071  1.00  0.00    -0.332 C  
ENDROOT
BRANCH   2   3
HETATM    3  C   UNL     1      -9.348   4.639  67.299  1.00  0.00    -0.159 C  
BRANCH   3   4
HETATM    4  C   UNL     1      -8.101   5.511  67.157  1.00  0.00    -0.101 C  
BRANCH   4   5
HETATM    5  C   UNL     1      -7.732   6.278  68.408  1.00  0.00    -0.104 C  
HETATM    6  N   UNL     1      -7.057   7.491  68.275  1.00  0.00    -0.081 N  
HETATM    7  O   UNL     1      -8.013   5.825  69.522  1.00  0.00    -0.094 OA 
BRANCH   6   8
HETATM    8  C   UNL     1      -6.735   8.086  66.945  1.00  0.00    -0.064 C  
BRANCH   8   9
HETATM    9  C   UNL     1      -7.837   8.947  66.351  1.00  0.00    -0.103 A  
HETATM   10  C   UNL     1      -7.520  10.118  65.662  1.00  0.00    -0.144 A  
HETATM   11  C   UNL     1      -8.511  11.074  65.392  1.00  0.00    -0.030 A  
HETATM   12  C   UNL     1      -9.866  10.877  65.711  1.00  0.00    -0.286 A  
HETATM   13  C   UNL     1      -9.196   8.663  66.515  1.00  0.00    -0.236 A  
HETATM   14  C   UNL     1     -10.194   9.594  66.174  1.00  0.00    -0.276 A  
BRANCH  12  15
HETATM   15  C   UNL     1     -10.864  11.992  65.562  1.00  0.00    -0.336 A  
HETATM   16  C   UNL     1     -10.963  12.599  64.276  1.00  0.00    -0.404 A  
HETATM   17  C   UNL     1     -11.739  13.729  64.018  1.00  0.00    -0.364 A  
HETATM   18  C   UNL     1     -12.497  14.282  65.033  1.00  0.00    -0.409 A  
HETATM   19  C   UNL     1     -12.471  13.693  66.295  1.00  0.00    -0.420 A  
HETATM   20  C   UNL     1     -11.666  12.560  66.590  1.00  0.00    -0.453 A  
BRANCH  20  21
HETATM   21  C   UNL     1     -11.745  12.115  67.980  1.00  0.00    -0.344 A  
HETATM   22  N   UNL     1     -12.277  10.931  68.353  1.00  0.00    -0.810 NA 
HETATM   23  N   UNL     1     -12.193  11.026  69.685  1.00  0.00    -0.329 NA 
HETATM   24  H   UNL     1     -12.642  10.173  67.777  1.00  0.00     0.000 HD 
HETATM   25  N   UNL     1     -11.634  12.148  70.156  1.00  0.00    -0.196 NA 
HETATM   26  N   UNL     1     -11.377  12.869  69.072  1.00  0.00    -0.276 NA 
ENDBRANCH  20  21
ENDBRANCH  12  15
ENDBRANCH   8   9
ENDBRANCH   6   8
BRANCH   6  27
HETATM   27  C   UNL     1      -6.842   8.370  69.485  1.00  0.00    -0.041 C  
HETATM   28  C   UNL     1      -7.994   9.259  70.050  1.00  0.00    -0.121 C  
HETATM   29  O   UNL     1      -8.109   9.482  71.255  1.00  0.00    -0.284 OA 
HETATM   30  C   UNL     1      -5.470   9.113  69.474  1.00  0.00    -0.034 C  
HETATM   31  O   UNL     1      -8.815   9.873  69.181  1.00  0.00    -0.142 OA 
HETATM   32  C   UNL     1      -5.173   9.919  68.215  1.00  0.00    -0.036 C  
HETATM   33  C   UNL     1      -5.192   9.940  70.731  1.00  0.00    -0.051 C  
ENDBRANCH   6  27
ENDBRANCH   4   5
ENDBRANCH   3   4
ENDBRANCH   2   3
TORSDOF 8
ENDMDL
MODEL      182
REMARK 921   NORMALIZED FREE ENERGY PREDICTED BY IDOCK:   -4.76 KCAL/MOL
REMARK 922        TOTAL FREE ENERGY PREDICTED BY IDOCK:   -7.51 KCAL/MOL
REMARK 923 INTER-LIGAND FREE ENERGY PREDICTED BY IDOCK:   -8.32 KCAL/MOL
REMARK 924 INTRA-LIGAND FREE ENERGY PREDICTED BY IDOCK:    0.81 KCAL/MOL
REMARK 927      BINDING AFFINITY PREDICTED BY RF-SCORE:    0.00 PKD
ROOT
HETATM    1  C   UNL     1     -12.081  15.085  73.694  1.00  0.00    -0.539 C  
HETATM    2  C   UNL     1     -12.755  15.123  72.338  1.00  0.00    -0.432 C  
ENDROOT
BRANCH   2   3
HETATM    3  C   UNL     1     -11.791  14.808  71.192  1.00  0.00    -0.387 C  
BRANCH   3   4
HETATM    4  C   UNL     1     -12.483  13.879  70.194  1.00  0.00    -0.355 C  
BRANCH   4   5
HETATM    5  C   UNL     1     -11.682  13.604  68.940  1.00  0.00    -0.338 C  
HETATM    6  N   UNL     1     -11.628  12.299  68.453  1.00  0.00    -0.304 N  
HETATM    7  O   UNL     1     -11.077  14.520  68.374  1.00  0.00    -0.240 OA 
BRANCH   6   8
HETATM    8  C   UNL     1     -12.376  11.176  69.090  1.00  0.00    -0.039 C  
BRANCH   8   9
HETATM    9  C   UNL     1     -11.502  10.129  69.760  1.00  0.00    -0.288 A  
HETATM   10  C   UNL     1     -11.568   9.937  71.140  1.00  0.00    -0.468 A  
HETATM   11  C   UNL     1     -10.562   9.222  71.807  1.00  0.00    -0.286 A  
HETATM   12  C   UNL     1      -9.499   8.593  71.133  1.00  0.00    -0.274 A  
HETATM   13  C   UNL     1     -10.557   9.370  69.065  1.00  0.00    -0.233 A  
HETATM   14  C   UNL     1      -9.593   8.592  69.733  1.00  0.00    -0.170 A  
BRANCH  12  15
HETATM   15  C   UNL     1      -8.354   7.986  71.894  1.00  0.00    -0.167 A  
HETATM   16  C   UNL     1      -7.076   8.595  71.726  1.00  0.00    -0.102 A  
HETATM   17  C   UNL     1      -5.897   8.067  72.254  1.00  0.00    -0.042 A  
HETATM   18  C   UNL     1      -5.950   6.919  73.022  1.00  0.00    -0.056 A  
HETATM   19  C   UNL     1      -7.183   6.316  73.255  1.00  0.00    -0.087 A  
HETATM   20  C   UNL     1      -8.393   6.818  72.704  1.00  0.00    -0.114 A  
BRANCH  20  21
HETATM   21  C   UNL     1      -9.576   6.023  73.030  1.00  0.00    -0.154 A  
HETATM   22  N   UNL     1     -10.611   5.847  72.182  1.00  0.00    -0.211 NA 
HETATM   23  N   UNL     1     -11.448   5.140  72.949  1.00  0.00    -0.292 NA 
HETATM   24  H   UNL     1     -10.723   6.166  71.220  1.00  0.00     0.000 HD 
HETATM   25  N   UNL     1     -11.006   4.847  74.178  1.00  0.00    -0.304 NA 
HETATM   26  N   UNL     1      -9.821   5.440  74.253  1.00  0.00    -0.179 NA 
ENDBRANCH  20  21
ENDBRANCH  12  15
ENDBRANCH   8   9
ENDBRANCH   6   8
BRANCH   6  27
HETATM   27  C   UNL     1     -10.999  12.023  67.108  1.00  0.00    -0.270 C  
HETATM   28  C   UNL     1      -9.492  12.335  66.843  1.00  0.00    -0.217 C  
HETATM   29  O   UNL     1      -8.809  11.637  66.096  1.00  0.00    -0.196 OA 
HETATM   30  C   UNL     1     -11.908  12.426  65.905  1.00  0.00    -0.467 C  
HETATM   31  O   UNL     1      -8.968  13.454  67.370  1.00  0.00    -0.194 OA 
HETATM   32  C   UNL     1     -12.425  13.860  65.927  1.00  0.00    -0.519 C  
HETATM   33  C   UNL     1     -11.330  12.075  64.533  1.00  0.00    -0.393 C  
ENDBRANCH   6  27
ENDBRANCH   4   5
ENDBRANCH   3   4
ENDBRANCH   2   3
TORSDOF 8
ENDMDL
MODEL      183
REMARK 921   NORMALIZED FREE ENERGY PREDICTED BY IDOCK:   -4.74 KCAL/MOL
REMARK 922        TOTAL FREE ENERGY PREDICTED BY IDOCK:   -7.49 KCAL/MOL
REMARK 923 INTER-LIGAND FREE ENERGY PREDICTED BY IDOCK:   -8.09 KCAL/MOL
REMARK 924 INTRA-LIGAND FREE ENERGY PREDICTED BY IDOCK:    0.60 KCAL/MOL
REMARK 927      BINDING AFFINITY PREDICTED BY RF-SCORE:    0.00 PKD
ROOT
HETATM    1  C   UNL     1      -8.796   3.676  71.875  1.00  0.00    -0.131 C  
HETATM    2  C   UNL     1      -9.786   3.777  70.732  1.00  0.00    -0.235 C  
ENDROOT
BRANCH   2   3
HETATM    3  C   UNL     1     -10.358   5.187  70.572  1.00  0.00    -0.314 C  
BRANCH   3   4
HETATM    4  C   UNL     1      -9.345   6.058  69.828  1.00  0.00    -0.166 C  
BRANCH   4   5
HETATM    5  C   UNL     1      -9.004   5.568  68.437  1.00  0.00    -0.110 C  
HETATM    6  N   UNL     1      -9.746   6.048  67.359  1.00  0.00    -0.111 N  
HETATM    7  O   UNL     1      -8.097   4.748  68.271  1.00  0.00    -0.085 OA 
BRANCH   6   8
HETATM    8  C   UNL     1     -10.824   7.067  67.519  1.00  0.00    -0.267 C  
BRANCH   8   9
HETATM    9  C   UNL     1     -10.343   8.508  67.501  1.00  0.00    -0.334 A  
HETATM   10  C   UNL     1     -10.450   9.299  68.646  1.00  0.00    -0.236 A  
HETATM   11  C   UNL     1     -10.317  10.694  68.561  1.00  0.00    -0.202 A  
HETATM   12  C   UNL     1      -9.986  11.356  67.366  1.00  0.00    -0.207 A  
HETATM   13  C   UNL     1      -9.847   9.131  66.352  1.00  0.00    -0.350 A  
HETATM   14  C   UNL     1      -9.642  10.521  66.292  1.00  0.00    -0.232 A  
BRANCH  12  15
HETATM   15  C   UNL     1     -10.021  12.856  67.279  1.00  0.00    -0.224 A  
HETATM   16  C   UNL     1      -9.329  13.575  68.297  1.00  0.00    -0.205 A  
HETATM   17  C   UNL     1      -9.385  14.963  68.431  1.00  0.00    -0.197 A  
HETATM   18  C   UNL     1     -10.104  15.708  67.515  1.00  0.00    -0.253 A  
HETATM   19  C   UNL     1     -10.756  15.052  66.473  1.00  0.00    -0.312 A  
HETATM   20  C   UNL     1     -10.739  13.639  66.333  1.00  0.00    -0.281 A  
BRANCH  20  21
HETATM   21  C   UNL     1     -11.516  13.139  65.201  1.00  0.00    -0.300 A  
HETATM   22  N   UNL     1     -11.180  13.360  63.912  1.00  0.00    -0.575 NA 
HETATM   23  N   UNL     1     -12.213  12.791  63.280  1.00  0.00    -0.610 NA 
HETATM   24  H   UNL     1     -10.362  13.831  63.526  1.00  0.00     0.000 HD 
HETATM   25  N   UNL     1     -13.134  12.220  64.067  1.00  0.00    -0.746 NA 
HETATM   26  N   UNL     1     -12.716  12.470  65.301  1.00  0.00    -0.590 NA 
ENDBRANCH  20  21
ENDBRANCH  12  15
ENDBRANCH   8   9
ENDBRANCH   6   8
BRANCH   6  27
HETATM   27  C   UNL     1      -9.314   5.728  65.947  1.00  0.00    -0.077 C  
HETATM   28  C   UNL     1      -9.310   4.259  65.418  1.00  0.00    -0.164 C  
HETATM   29  O   UNL     1      -9.570   3.993  64.246  1.00  0.00    -0.154 OA 
HETATM   30  C   UNL     1      -8.054   6.527  65.490  1.00  0.00    -0.127 C  
HETATM   31  O   UNL     1      -8.912   3.281  66.248  1.00  0.00    -0.134 OA 
HETATM   32  C   UNL     1      -6.845   6.427  66.413  1.00  0.00    -0.061 C  
HETATM   33  C   UNL     1      -7.650   6.287  64.034  1.00  0.00    -0.098 C  
ENDBRANCH   6  27
ENDBRANCH   4   5
ENDBRANCH   3   4
ENDBRANCH   2   3
TORSDOF 8
ENDMDL
MODEL      184
REMARK 921   NORMALIZED FREE ENERGY PREDICTED BY IDOCK:   -4.71 KCAL/MOL
REMARK 922        TOTAL FREE ENERGY PREDICTED BY IDOCK:   -7.44 KCAL/MOL
REMARK 923 INTER-LIGAND FREE ENERGY PREDICTED BY IDOCK:   -6.87 KCAL/MOL
REMARK 924 INTRA-LIGAND FREE ENERGY PREDICTED BY IDOCK:   -0.57 KCAL/MOL
REMARK 927      BINDING AFFINITY PREDICTED BY RF-SCORE:    0.00 PKD
ROOT
HETATM    1  C   UNL     1      -5.588   9.342  70.929  1.00  0.00    -0.051 C  
HETATM    2  C   UNL     1      -6.410  10.372  70.182  1.00  0.00    -0.123 C  
ENDROOT
BRANCH   2   3
HETATM    3  C   UNL     1      -5.590  11.134  69.137  1.00  0.00    -0.040 C  
BRANCH   3   4
HETATM    4  C   UNL     1      -6.383  11.205  67.831  1.00  0.00    -0.054 C  
BRANCH   4   5
HETATM    5  C   UNL     1      -6.661   9.859  67.198  1.00  0.00    -0.074 C  
HETATM    6  N   UNL     1      -7.606   9.783  66.176  1.00  0.00    -0.099 N  
HETATM    7  O   UNL     1      -6.070   8.850  67.594  1.00  0.00    -0.047 OA 
BRANCH   6   8
HETATM    8  C   UNL     1      -8.311  10.987  65.647  1.00  0.00    -0.060 C  
BRANCH   8   9
HETATM    9  C   UNL     1      -9.388  11.546  66.562  1.00  0.00    -0.210 A  
HETATM   10  C   UNL     1      -9.076  12.540  67.490  1.00  0.00    -0.187 A  
HETATM   11  C   UNL     1      -9.958  12.833  68.541  1.00  0.00    -0.168 A  
HETATM   12  C   UNL     1     -11.219  12.223  68.670  1.00  0.00    -0.305 A  
HETATM   13  C   UNL     1     -10.699  11.062  66.577  1.00  0.00    -0.298 A  
HETATM   14  C   UNL     1     -11.609  11.415  67.591  1.00  0.00    -0.315 A  
BRANCH  12  15
HETATM   15  C   UNL     1     -12.058  12.437  69.899  1.00  0.00    -0.317 A  
HETATM   16  C   UNL     1     -12.578  13.749  70.102  1.00  0.00    -0.253 A  
HETATM   17  C   UNL     1     -13.255  14.136  71.259  1.00  0.00    -0.399 A  
HETATM   18  C   UNL     1     -13.488  13.207  72.256  1.00  0.00    -0.665 A  
HETATM   19  C   UNL     1     -13.041  11.900  72.080  1.00  0.00    -0.441 A  
HETATM   20  C   UNL     1     -12.324  11.488  70.925  1.00  0.00    -0.460 A  
BRANCH  20  21
HETATM   21  C   UNL     1     -11.907  10.088  70.945  1.00  0.00    -0.368 A  
HETATM   22  N   UNL     1     -12.570   9.104  70.301  1.00  0.00    -0.123 NA 
HETATM   23  N   UNL     1     -11.866   8.033  70.683  1.00  0.00    -0.166 NA 
HETATM   24  H   UNL     1     -13.385   9.162  69.691  1.00  0.00     0.000 HD 
HETATM   25  N   UNL     1     -10.818   8.278  71.479  1.00  0.00    -0.238 NA 
HETATM   26  N   UNL     1     -10.857   9.589  71.683  1.00  0.00    -0.278 NA 
ENDBRANCH  20  21
ENDBRANCH  12  15
ENDBRANCH   8   9
ENDBRANCH   6   8
BRANCH   6  27
HETATM   27  C   UNL     1      -7.771   8.500  65.397  1.00  0.00    -0.095 C  
HETATM   28  C   UNL     1      -8.191   8.517  63.893  1.00  0.00    -0.127 C  
HETATM   29  O   UNL     1      -7.773   7.680  63.095  1.00  0.00    -0.115 OA 
HETATM   30  C   UNL     1      -8.497   7.376  66.201  1.00  0.00    -0.147 C  
HETATM   31  O   UNL     1      -9.110   9.413  63.495  1.00  0.00    -0.195 OA 
HETATM   32  C   UNL     1      -9.841   7.767  66.805  1.00  0.00    -0.312 C  
HETATM   33  C   UNL     1      -8.597   6.039  65.465  1.00  0.00    -0.145 C  
ENDBRANCH   6  27
ENDBRANCH   4   5
ENDBRANCH   3   4
ENDBRANCH   2   3
TORSDOF 8
ENDMDL
MODEL      185
REMARK 921   NORMALIZED FREE ENERGY PREDICTED BY IDOCK:   -4.70 KCAL/MOL
REMARK 922        TOTAL FREE ENERGY PREDICTED BY IDOCK:   -7.42 KCAL/MOL
REMARK 923 INTER-LIGAND FREE ENERGY PREDICTED BY IDOCK:   -8.05 KCAL/MOL
REMARK 924 INTRA-LIGAND FREE ENERGY PREDICTED BY IDOCK:    0.63 KCAL/MOL
REMARK 927      BINDING AFFINITY PREDICTED BY RF-SCORE:    0.00 PKD
ROOT
HETATM    1  C   UNL     1      -9.568  17.960  68.538  1.00  0.00    -0.327 C  
HETATM    2  C   UNL     1     -10.485  17.119  67.674  1.00  0.00    -0.355 C  
ENDROOT
BRANCH   2   3
HETATM    3  C   UNL     1     -11.281  16.094  68.486  1.00  0.00    -0.365 C  
BRANCH   3   4
HETATM    4  C   UNL     1     -10.335  14.997  68.975  1.00  0.00    -0.243 C  
BRANCH   4   5
HETATM    5  C   UNL     1      -9.853  14.061  67.888  1.00  0.00    -0.233 C  
HETATM    6  N   UNL     1     -10.546  12.871  67.673  1.00  0.00    -0.221 N  
HETATM    7  O   UNL     1      -8.854  14.345  67.219  1.00  0.00    -0.191 OA 
BRANCH   6   8
HETATM    8  C   UNL     1     -11.777  12.513  68.436  1.00  0.00    -0.328 C  
BRANCH   8   9
HETATM    9  C   UNL     1     -11.719  11.168  69.142  1.00  0.00    -0.408 A  
HETATM   10  C   UNL     1     -12.059  11.068  70.492  1.00  0.00    -0.470 A  
HETATM   11  C   UNL     1     -11.709   9.927  71.229  1.00  0.00    -0.472 A  
HETATM   12  C   UNL     1     -11.091   8.804  70.649  1.00  0.00    -0.285 A  
HETATM   13  C   UNL     1     -11.267  10.002  68.520  1.00  0.00    -0.180 A  
HETATM   14  C   UNL     1     -10.988   8.832  69.250  1.00  0.00    -0.006 A  
BRANCH  12  15
HETATM   15  C   UNL     1     -10.580   7.678  71.502  1.00  0.00    -0.239 A  
HETATM   16  C   UNL     1     -11.552   6.781  72.034  1.00  0.00    -0.327 A  
HETATM   17  C   UNL     1     -11.249   5.773  72.950  1.00  0.00    -0.319 A  
HETATM   18  C   UNL     1      -9.938   5.582  73.344  1.00  0.00    -0.189 A  
HETATM   19  C   UNL     1      -8.946   6.402  72.812  1.00  0.00    -0.124 A  
HETATM   20  C   UNL     1      -9.233   7.454  71.902  1.00  0.00    -0.151 A  
BRANCH  20  21
HETATM   21  C   UNL     1      -8.063   8.227  71.489  1.00  0.00    -0.130 A  
HETATM   22  N   UNL     1      -7.631   8.299  70.212  1.00  0.00    -0.070 NA 
HETATM   23  N   UNL     1      -6.522   9.032  70.362  1.00  0.00    -0.042 NA 
HETATM   24  H   UNL     1      -8.038   7.903  69.366  1.00  0.00     0.000 HD 
HETATM   25  N   UNL     1      -6.254   9.436  71.611  1.00  0.00    -0.245 NA 
HETATM   26  N   UNL     1      -7.217   8.894  72.347  1.00  0.00    -0.335 NA 
ENDBRANCH  20  21
ENDBRANCH  12  15
ENDBRANCH   8   9
ENDBRANCH   6   8
BRANCH   6  27
HETATM   27  C   UNL     1     -10.210  12.008  66.480  1.00  0.00    -0.206 C  
HETATM   28  C   UNL     1      -8.824  11.298  66.363  1.00  0.00    -0.182 C  
HETATM   29  O   UNL     1      -8.705  10.196  65.829  1.00  0.00    -0.142 OA 
HETATM   30  C   UNL     1     -10.678  12.619  65.122  1.00  0.00    -0.321 C  
HETATM   31  O   UNL     1      -7.728  11.960  66.769  1.00  0.00    -0.135 OA 
HETATM   32  C   UNL     1     -10.213  14.045  64.851  1.00  0.00    -0.377 C  
HETATM   33  C   UNL     1     -10.427  11.723  63.908  1.00  0.00    -0.437 C  
ENDBRANCH   6  27
ENDBRANCH   4   5
ENDBRANCH   3   4
ENDBRANCH   2   3
TORSDOF 8
ENDMDL
MODEL      186
REMARK 921   NORMALIZED FREE ENERGY PREDICTED BY IDOCK:   -4.67 KCAL/MOL
REMARK 922        TOTAL FREE ENERGY PREDICTED BY IDOCK:   -7.38 KCAL/MOL
REMARK 923 INTER-LIGAND FREE ENERGY PREDICTED BY IDOCK:   -8.47 KCAL/MOL
REMARK 924 INTRA-LIGAND FREE ENERGY PREDICTED BY IDOCK:    1.09 KCAL/MOL
REMARK 927      BINDING AFFINITY PREDICTED BY RF-SCORE:    0.00 PKD
ROOT
HETATM    1  C   UNL     1     -11.834  15.423  72.898  1.00  0.00    -0.547 C  
HETATM    2  C   UNL     1     -11.422  16.269  71.710  1.00  0.00    -0.317 C  
ENDROOT
BRANCH   2   3
HETATM    3  C   UNL     1     -10.905  15.429  70.540  1.00  0.00    -0.327 C  
BRANCH   3   4
HETATM    4  C   UNL     1     -11.652  15.829  69.267  1.00  0.00    -0.380 C  
BRANCH   4   5
HETATM    5  C   UNL     1     -11.227  15.067  68.030  1.00  0.00    -0.316 C  
HETATM    6  N   UNL     1     -11.507  13.704  67.955  1.00  0.00    -0.291 N  
HETATM    7  O   UNL     1     -10.630  15.645  67.117  1.00  0.00    -0.299 OA 
BRANCH   6   8
HETATM    8  C   UNL     1     -12.259  12.981  69.023  1.00  0.00    -0.044 C  
BRANCH   8   9
HETATM    9  C   UNL     1     -11.612  11.689  69.492  1.00  0.00    -0.397 A  
HETATM   10  C   UNL     1     -10.402  11.268  68.941  1.00  0.00    -0.214 A  
HETATM   11  C   UNL     1      -9.960   9.948  69.120  1.00  0.00    -0.205 A  
HETATM   12  C   UNL     1     -10.645   9.018  69.921  1.00  0.00    -0.240 A  
HETATM   13  C   UNL     1     -12.208  10.835  70.425  1.00  0.00    -0.437 A  
HETATM   14  C   UNL     1     -11.719   9.537  70.660  1.00  0.00    -0.330 A  
BRANCH  12  15
HETATM   15  C   UNL     1     -10.234   7.572  69.949  1.00  0.00    -0.210 A  
HETATM   16  C   UNL     1     -10.805   6.722  68.957  1.00  0.00    -0.290 A  
HETATM   17  C   UNL     1     -10.630   5.338  68.937  1.00  0.00    -0.128 A  
HETATM   18  C   UNL     1      -9.827   4.739  69.891  1.00  0.00    -0.291 A  
HETATM   19  C   UNL     1      -9.208   5.536  70.851  1.00  0.00    -0.179 A  
HETATM   20  C   UNL     1      -9.395   6.943  70.910  1.00  0.00    -0.157 A  
BRANCH  20  21
HETATM   21  C   UNL     1      -8.694   7.595  72.013  1.00  0.00    -0.117 A  
HETATM   22  N   UNL     1      -7.352   7.747  72.057  1.00  0.00    -0.070 NA 
HETATM   23  N   UNL     1      -7.201   8.307  73.262  1.00  0.00    -0.186 NA 
HETATM   24  H   UNL     1      -6.648   7.501  71.362  1.00  0.00     0.000 HD 
HETATM   25  N   UNL     1      -8.330   8.536  73.945  1.00  0.00    -0.350 NA 
HETATM   26  N   UNL     1      -9.290   8.049  73.169  1.00  0.00    -0.271 NA 
ENDBRANCH  20  21
ENDBRANCH  12  15
ENDBRANCH   8   9
ENDBRANCH   6   8
BRANCH   6  27
HETATM   27  C   UNL     1     -11.269  12.956  66.665  1.00  0.00    -0.304 C  
HETATM   28  C   UNL     1      -9.879  12.997  65.954  1.00  0.00    -0.237 C  
HETATM   29  O   UNL     1      -9.440  12.029  65.335  1.00  0.00    -0.185 OA 
HETATM   30  C   UNL     1     -12.454  13.068  65.656  1.00  0.00    -0.452 C  
HETATM   31  O   UNL     1      -9.201  14.157  65.940  1.00  0.00    -0.086 OA 
HETATM   32  C   UNL     1     -12.904  14.488  65.332  1.00  0.00    -0.124 C  
HETATM   33  C   UNL     1     -12.273  12.247  64.378  1.00  0.00    -0.488 C  
ENDBRANCH   6  27
ENDBRANCH   4   5
ENDBRANCH   3   4
ENDBRANCH   2   3
TORSDOF 8
ENDMDL
MODEL      187
REMARK 921   NORMALIZED FREE ENERGY PREDICTED BY IDOCK:   -4.65 KCAL/MOL
REMARK 922        TOTAL FREE ENERGY PREDICTED BY IDOCK:   -7.35 KCAL/MOL
REMARK 923 INTER-LIGAND FREE ENERGY PREDICTED BY IDOCK:   -7.42 KCAL/MOL
REMARK 924 INTRA-LIGAND FREE ENERGY PREDICTED BY IDOCK:    0.07 KCAL/MOL
REMARK 927      BINDING AFFINITY PREDICTED BY RF-SCORE:    0.00 PKD
ROOT
HETATM    1  C   UNL     1     -12.679  10.214  71.642  1.00  0.00    -0.549 C  
HETATM    2  C   UNL     1     -11.626   9.131  71.756  1.00  0.00    -0.457 C  
ENDROOT
BRANCH   2   3
HETATM    3  C   UNL     1     -12.135   7.764  71.293  1.00  0.00    -0.328 C  
BRANCH   3   4
HETATM    4  C   UNL     1     -10.946   6.903  70.866  1.00  0.00    -0.290 C  
BRANCH   4   5
HETATM    5  C   UNL     1     -10.819   6.715  69.370  1.00  0.00    -0.292 C  
HETATM    6  N   UNL     1      -9.996   7.581  68.653  1.00  0.00    -0.167 N  
HETATM    7  O   UNL     1     -11.449   5.818  68.800  1.00  0.00     0.122 OA 
BRANCH   6   8
HETATM    8  C   UNL     1      -9.193   8.651  69.313  1.00  0.00    -0.150 C  
BRANCH   8   9
HETATM    9  C   UNL     1      -9.623  10.069  68.976  1.00  0.00    -0.200 A  
HETATM   10  C   UNL     1     -10.933  10.329  68.573  1.00  0.00    -0.294 A  
HETATM   11  C   UNL     1     -11.260  11.547  67.958  1.00  0.00    -0.335 A  
HETATM   12  C   UNL     1     -10.331  12.591  67.796  1.00  0.00    -0.224 A  
HETATM   13  C   UNL     1      -8.741  11.153  68.979  1.00  0.00    -0.027 A  
HETATM   14  C   UNL     1      -9.094  12.399  68.430  1.00  0.00    -0.141 A  
BRANCH  12  15
HETATM   15  C   UNL     1     -10.673  13.808  66.983  1.00  0.00    -0.283 A  
HETATM   16  C   UNL     1     -10.450  13.725  65.577  1.00  0.00    -0.327 A  
HETATM   17  C   UNL     1     -10.587  14.811  64.712  1.00  0.00    -0.355 A  
HETATM   18  C   UNL     1     -11.004  16.031  65.210  1.00  0.00    -0.309 A  
HETATM   19  C   UNL     1     -11.282  16.147  66.570  1.00  0.00     0.203 A  
HETATM   20  C   UNL     1     -11.122  15.065  67.476  1.00  0.00    -0.317 A  
BRANCH  20  21
HETATM   21  C   UNL     1     -11.425  15.396  68.866  1.00  0.00    -0.342 A  
HETATM   22  N   UNL     1     -12.589  15.074  69.471  1.00  0.00    -0.595 NA 
HETATM   23  N   UNL     1     -12.418  15.649  70.667  1.00  0.00    -0.429 NA 
HETATM   24  H   UNL     1     -13.380  14.540  69.114  1.00  0.00     0.000 HD 
HETATM   25  N   UNL     1     -11.246  16.268  70.855  1.00  0.00    -0.318 NA 
HETATM   26  N   UNL     1     -10.617  16.144  69.693  1.00  0.00    -0.291 NA 
ENDBRANCH  20  21
ENDBRANCH  12  15
ENDBRANCH   8   9
ENDBRANCH   6   8
BRANCH   6  27
HETATM   27  C   UNL     1      -9.700   7.307  67.198  1.00  0.00    -0.168 C  
HETATM   28  C   UNL     1      -9.516   5.848  66.673  1.00  0.00    -0.151 C  
HETATM   29  O   UNL     1      -9.875   5.516  65.544  1.00  0.00     0.062 OA 
HETATM   30  C   UNL     1      -8.660   8.293  66.581  1.00  0.00    -0.135 C  
HETATM   31  O   UNL     1      -8.858   4.967  67.446  1.00  0.00    -0.104 OA 
HETATM   32  C   UNL     1      -7.344   8.416  67.341  1.00  0.00    -0.089 C  
HETATM   33  C   UNL     1      -8.409   8.091  65.085  1.00  0.00    -0.139 C  
ENDBRANCH   6  27
ENDBRANCH   4   5
ENDBRANCH   3   4
ENDBRANCH   2   3
TORSDOF 8
ENDMDL
MODEL      188
REMARK 921   NORMALIZED FREE ENERGY PREDICTED BY IDOCK:   -4.64 KCAL/MOL
REMARK 922        TOTAL FREE ENERGY PREDICTED BY IDOCK:   -7.34 KCAL/MOL
REMARK 923 INTER-LIGAND FREE ENERGY PREDICTED BY IDOCK:   -6.96 KCAL/MOL
REMARK 924 INTRA-LIGAND FREE ENERGY PREDICTED BY IDOCK:   -0.38 KCAL/MOL
REMARK 927      BINDING AFFINITY PREDICTED BY RF-SCORE:    0.00 PKD
ROOT
HETATM    1  C   UNL     1      -5.208  10.723  69.113  1.00  0.00    -0.041 C  
HETATM    2  C   UNL     1      -5.921  11.756  69.961  1.00  0.00    -0.158 C  
ENDROOT
BRANCH   2   3
HETATM    3  C   UNL     1      -6.262  13.026  69.178  1.00  0.00    -0.101 C  
BRANCH   3   4
HETATM    4  C   UNL     1      -6.662  12.645  67.752  1.00  0.00    -0.127 C  
BRANCH   4   5
HETATM    5  C   UNL     1      -7.962  13.262  67.283  1.00  0.00    -0.125 C  
HETATM    6  N   UNL     1      -8.877  12.459  66.604  1.00  0.00    -0.191 N  
HETATM    7  O   UNL     1      -8.193  14.457  67.488  1.00  0.00    -0.161 OA 
BRANCH   6   8
HETATM    8  C   UNL     1      -8.647  11.003  66.372  1.00  0.00    -0.165 C  
BRANCH   8   9
HETATM    9  C   UNL     1      -9.291  10.087  67.400  1.00  0.00    -0.167 A  
HETATM   10  C   UNL     1      -9.112  10.324  68.763  1.00  0.00    -0.159 A  
HETATM   11  C   UNL     1      -9.419   9.328  69.703  1.00  0.00    -0.188 A  
HETATM   12  C   UNL     1      -9.995   8.096  69.348  1.00  0.00    -0.188 A  
HETATM   13  C   UNL     1     -10.018   8.945  67.051  1.00  0.00    -0.300 A  
HETATM   14  C   UNL     1     -10.392   7.983  68.007  1.00  0.00    -0.262 A  
BRANCH  12  15
HETATM   15  C   UNL     1     -10.149   6.995  70.359  1.00  0.00    -0.198 A  
HETATM   16  C   UNL     1      -9.216   5.919  70.286  1.00  0.00    -0.170 A  
HETATM   17  C   UNL     1      -9.311   4.764  71.062  1.00  0.00    -0.208 A  
HETATM   18  C   UNL     1     -10.328   4.651  71.992  1.00  0.00    -0.234 A  
HETATM   19  C   UNL     1     -11.234   5.698  72.135  1.00  0.00    -0.288 A  
HETATM   20  C   UNL     1     -11.176   6.871  71.336  1.00  0.00    -0.296 A  
BRANCH  20  21
HETATM   21  C   UNL     1     -12.238   7.837  71.608  1.00  0.00    -0.313 A  
HETATM   22  N   UNL     1     -12.079   8.914  72.407  1.00  0.00    -0.322 NA 
HETATM   23  N   UNL     1     -13.318   9.417  72.401  1.00  0.00    -0.455 NA 
HETATM   24  H   UNL     1     -11.242   9.251  72.883  1.00  0.00     0.000 HD 
HETATM   25  N   UNL     1     -14.212   8.760  71.651  1.00  0.00    -0.378 NA 
HETATM   26  N   UNL     1     -13.538   7.724  71.168  1.00  0.00    -0.158 NA 
ENDBRANCH  20  21
ENDBRANCH  12  15
ENDBRANCH   8   9
ENDBRANCH   6   8
BRANCH   6  27
HETATM   27  C   UNL     1     -10.256  12.990  66.291  1.00  0.00    -0.288 C  
HETATM   28  C   UNL     1     -10.450  14.248  65.387  1.00  0.00    -0.365 C  
HETATM   29  O   UNL     1     -11.415  14.360  64.633  1.00  0.00    -0.377 OA 
HETATM   30  C   UNL     1     -11.213  12.993  67.523  1.00  0.00    -0.320 C  
HETATM   31  O   UNL     1      -9.588  15.270  65.518  1.00  0.00    -0.317 OA 
HETATM   32  C   UNL     1     -10.679  13.699  68.764  1.00  0.00    -0.265 C  
HETATM   33  C   UNL     1     -12.642  13.443  67.211  1.00  0.00     0.327 C  
ENDBRANCH   6  27
ENDBRANCH   4   5
ENDBRANCH   3   4
ENDBRANCH   2   3
TORSDOF 8
ENDMDL
MODEL      189
REMARK 921   NORMALIZED FREE ENERGY PREDICTED BY IDOCK:   -4.63 KCAL/MOL
REMARK 922        TOTAL FREE ENERGY PREDICTED BY IDOCK:   -7.32 KCAL/MOL
REMARK 923 INTER-LIGAND FREE ENERGY PREDICTED BY IDOCK:   -7.20 KCAL/MOL
REMARK 924 INTRA-LIGAND FREE ENERGY PREDICTED BY IDOCK:   -0.13 KCAL/MOL
REMARK 927      BINDING AFFINITY PREDICTED BY RF-SCORE:    0.00 PKD
ROOT
HETATM    1  C   UNL     1      -8.258   9.860  70.147  1.00  0.00    -0.162 C  
HETATM    2  C   UNL     1      -6.898   9.767  69.486  1.00  0.00    -0.060 C  
ENDROOT
BRANCH   2   3
HETATM    3  C   UNL     1      -6.316  11.140  69.141  1.00  0.00    -0.064 C  
BRANCH   3   4
HETATM    4  C   UNL     1      -7.028  11.690  67.905  1.00  0.00    -0.080 C  
BRANCH   4   5
HETATM    5  C   UNL     1      -6.784  10.895  66.640  1.00  0.00    -0.127 C  
HETATM    6  N   UNL     1      -7.848  10.195  66.074  1.00  0.00    -0.117 N  
HETATM    7  O   UNL     1      -5.658  10.859  66.135  1.00  0.00    -0.103 OA 
BRANCH   6   8
HETATM    8  C   UNL     1      -9.230  10.246  66.637  1.00  0.00    -0.155 C  
BRANCH   8   9
HETATM    9  C   UNL     1      -9.812  11.644  66.766  1.00  0.00    -0.222 A  
HETATM   10  C   UNL     1      -9.846  12.495  65.662  1.00  0.00    -0.227 A  
HETATM   11  C   UNL     1     -10.075  13.870  65.831  1.00  0.00    -0.331 A  
HETATM   12  C   UNL     1     -10.367  14.445  67.080  1.00  0.00    -0.262 A  
HETATM   13  C   UNL     1     -10.269  12.168  67.978  1.00  0.00    -0.203 A  
HETATM   14  C   UNL     1     -10.571  13.534  68.128  1.00  0.00    -0.253 A  
BRANCH  12  15
HETATM   15  C   UNL     1     -10.436  15.937  67.246  1.00  0.00    -0.310 A  
HETATM   16  C   UNL     1      -9.931  16.727  66.172  1.00  0.00    -0.345 A  
HETATM   17  C   UNL     1      -9.799  18.115  66.233  1.00  0.00    -0.311 A  
HETATM   18  C   UNL     1     -10.217  18.789  67.366  1.00  0.00    -0.444 A  
HETATM   19  C   UNL     1     -10.763  18.064  68.422  1.00  0.00    -0.132 A  
HETATM   20  C   UNL     1     -10.880  16.648  68.395  1.00  0.00    -0.361 A  
BRANCH  20  21
HETATM   21  C   UNL     1     -11.441  16.069  69.614  1.00  0.00    -0.326 A  
HETATM   22  N   UNL     1     -12.766  15.923  69.826  1.00  0.00    -0.557 NA 
HETATM   23  N   UNL     1     -12.770  15.442  71.074  1.00  0.00    -0.415 NA 
HETATM   24  H   UNL     1     -13.550  16.125  69.205  1.00  0.00     0.000 HD 
HETATM   25  N   UNL     1     -11.566  15.256  71.631  1.00  0.00    -0.381 NA 
HETATM   26  N   UNL     1     -10.709  15.690  70.716  1.00  0.00    -0.247 NA 
ENDBRANCH  20  21
ENDBRANCH  12  15
ENDBRANCH   8   9
ENDBRANCH   6   8
BRANCH   6  27
HETATM   27  C   UNL     1      -7.689   9.550  64.718  1.00  0.00    -0.119 C  
HETATM   28  C   UNL     1      -8.610   9.948  63.522  1.00  0.00    -0.199 C  
HETATM   29  O   UNL     1      -8.196   9.963  62.364  1.00  0.00    -0.121 OA 
HETATM   30  C   UNL     1      -7.444   8.010  64.790  1.00  0.00    -0.091 C  
HETATM   31  O   UNL     1      -9.911  10.181  63.765  1.00  0.00    -0.252 OA 
HETATM   32  C   UNL     1      -8.468   7.222  65.598  1.00  0.00    -0.138 C  
HETATM   33  C   UNL     1      -7.191   7.348  63.434  1.00  0.00    -0.079 C  
ENDBRANCH   6  27
ENDBRANCH   4   5
ENDBRANCH   3   4
ENDBRANCH   2   3
TORSDOF 8
ENDMDL
MODEL      190
REMARK 921   NORMALIZED FREE ENERGY PREDICTED BY IDOCK:   -4.62 KCAL/MOL
REMARK 922        TOTAL FREE ENERGY PREDICTED BY IDOCK:   -7.30 KCAL/MOL
REMARK 923 INTER-LIGAND FREE ENERGY PREDICTED BY IDOCK:   -8.35 KCAL/MOL
REMARK 924 INTRA-LIGAND FREE ENERGY PREDICTED BY IDOCK:    1.05 KCAL/MOL
REMARK 927      BINDING AFFINITY PREDICTED BY RF-SCORE:    0.00 PKD
ROOT
HETATM    1  C   UNL     1      -9.449   7.886  66.080  1.00  0.00    -0.158 C  
HETATM    2  C   UNL     1      -9.421   8.554  67.440  1.00  0.00    -0.188 C  
ENDROOT
BRANCH   2   3
HETATM    3  C   UNL     1      -8.495   9.773  67.477  1.00  0.00    -0.122 C  
BRANCH   3   4
HETATM    4  C   UNL     1      -9.335  11.035  67.677  1.00  0.00    -0.162 C  
BRANCH   4   5
HETATM    5  C   UNL     1     -10.163  11.430  66.473  1.00  0.00    -0.221 C  
HETATM    6  N   UNL     1     -11.289  12.228  66.668  1.00  0.00    -0.323 N  
HETATM    7  O   UNL     1      -9.850  11.036  65.346  1.00  0.00    -0.223 OA 
BRANCH   6   8
HETATM    8  C   UNL     1     -11.675  12.752  68.011  1.00  0.00    -0.356 C  
BRANCH   8   9
HETATM    9  C   UNL     1     -11.102  14.118  68.349  1.00  0.00    -0.273 A  
HETATM   10  C   UNL     1     -11.890  15.262  68.222  1.00  0.00    -0.251 A  
HETATM   11  C   UNL     1     -11.299  16.535  68.216  1.00  0.00    -0.180 A  
HETATM   12  C   UNL     1      -9.923  16.737  68.422  1.00  0.00    -0.268 A  
HETATM   13  C   UNL     1      -9.770  14.312  68.725  1.00  0.00    -0.173 A  
HETATM   14  C   UNL     1      -9.197  15.595  68.792  1.00  0.00    -0.211 A  
BRANCH  12  15
HETATM   15  C   UNL     1      -9.306  18.095  68.238  1.00  0.00    -0.312 A  
HETATM   16  C   UNL     1     -10.197  19.208  68.210  1.00  0.00    -0.486 A  
HETATM   17  C   UNL     1      -9.792  20.509  67.910  1.00  0.00    -0.360 A  
HETATM   18  C   UNL     1      -8.456  20.769  67.670  1.00  0.00    -0.114 A  
HETATM   19  C   UNL     1      -7.541  19.722  67.736  1.00  0.00    -0.321 A  
HETATM   20  C   UNL     1      -7.932  18.384  68.009  1.00  0.00    -0.289 A  
BRANCH  20  21
HETATM   21  C   UNL     1      -6.831  17.422  67.996  1.00  0.00    -0.181 A  
HETATM   22  N   UNL     1      -6.080  17.136  69.080  1.00  0.00    -0.191 NA 
HETATM   23  N   UNL     1      -5.186  16.293  68.552  1.00  0.00    -0.100 NA 
HETATM   24  H   UNL     1      -6.170  17.470  70.039  1.00  0.00     0.000 HD 
HETATM   25  N   UNL     1      -5.340  16.019  67.250  1.00  0.00    -0.325 NA 
HETATM   26  N   UNL     1      -6.371  16.767  66.876  1.00  0.00    -0.186 NA 
ENDBRANCH  20  21
ENDBRANCH  12  15
ENDBRANCH   8   9
ENDBRANCH   6   8
BRANCH   6  27
HETATM   27  C   UNL     1     -12.025  12.794  65.478  1.00  0.00    -0.449 C  
HETATM   28  C   UNL     1     -12.264  11.937  64.195  1.00  0.00    -0.281 C  
HETATM   29  O   UNL     1     -13.283  12.058  63.516  1.00  0.00    -0.724 OA 
HETATM   30  C   UNL     1     -11.622  14.264  65.142  1.00  0.00    -0.355 C  
HETATM   31  O   UNL     1     -11.281  11.122  63.777  1.00  0.00    -0.275 OA 
HETATM   32  C   UNL     1     -10.127  14.507  64.963  1.00  0.00    -0.325 C  
HETATM   33  C   UNL     1     -12.418  14.889  63.995  1.00  0.00     0.026 C  
ENDBRANCH   6  27
ENDBRANCH   4   5
ENDBRANCH   3   4
ENDBRANCH   2   3
TORSDOF 8
ENDMDL
MODEL      191
REMARK 921   NORMALIZED FREE ENERGY PREDICTED BY IDOCK:   -4.61 KCAL/MOL
REMARK 922        TOTAL FREE ENERGY PREDICTED BY IDOCK:   -7.29 KCAL/MOL
REMARK 923 INTER-LIGAND FREE ENERGY PREDICTED BY IDOCK:   -6.02 KCAL/MOL
REMARK 924 INTRA-LIGAND FREE ENERGY PREDICTED BY IDOCK:   -1.27 KCAL/MOL
REMARK 927      BINDING AFFINITY PREDICTED BY RF-SCORE:    0.00 PKD
ROOT
HETATM    1  C   UNL     1      -8.797   6.217  71.554  1.00  0.00    -0.135 C  
HETATM    2  C   UNL     1     -10.083   5.991  70.786  1.00  0.00    -0.248 C  
ENDROOT
BRANCH   2   3
HETATM    3  C   UNL     1     -10.224   4.552  70.284  1.00  0.00    -0.137 C  
BRANCH   3   4
HETATM    4  C   UNL     1      -8.854   4.040  69.838  1.00  0.00    -0.138 C  
BRANCH   4   5
HETATM    5  C   UNL     1      -8.852   3.362  68.485  1.00  0.00    -0.115 C  
HETATM    6  N   UNL     1      -8.121   3.940  67.448  1.00  0.00    -0.091 N  
HETATM    7  O   UNL     1      -9.502   2.327  68.306  1.00  0.00    -0.205 OA 
BRANCH   6   8
HETATM    8  C   UNL     1      -7.295   5.168  67.638  1.00  0.00    -0.075 C  
BRANCH   8   9
HETATM    9  C   UNL     1      -8.073   6.472  67.574  1.00  0.00    -0.121 A  
HETATM   10  C   UNL     1      -7.429   7.687  67.813  1.00  0.00    -0.108 A  
HETATM   11  C   UNL     1      -8.174   8.847  68.073  1.00  0.00    -0.110 A  
HETATM   12  C   UNL     1      -9.579   8.877  68.021  1.00  0.00    -0.167 A  
HETATM   13  C   UNL     1      -9.451   6.526  67.348  1.00  0.00    -0.135 A  
HETATM   14  C   UNL     1     -10.188   7.709  67.537  1.00  0.00    -0.294 A  
BRANCH  12  15
HETATM   15  C   UNL     1     -10.342  10.091  68.472  1.00  0.00    -0.217 A  
HETATM   16  C   UNL     1     -10.775  10.110  69.831  1.00  0.00    -0.340 A  
HETATM   17  C   UNL     1     -11.607  11.098  70.359  1.00  0.00    -0.355 A  
HETATM   18  C   UNL     1     -12.010  12.149  69.557  1.00  0.00    -0.338 A  
HETATM   19  C   UNL     1     -11.571  12.200  68.236  1.00  0.00    -0.382 A  
HETATM   20  C   UNL     1     -10.749  11.191  67.667  1.00  0.00    -0.273 A  
BRANCH  20  21
HETATM   21  C   UNL     1     -10.429  11.402  66.257  1.00  0.00    -0.255 A  
HETATM   22  N   UNL     1     -10.255  12.623  65.708  1.00  0.00    -0.269 NA 
HETATM   23  N   UNL     1     -10.071  12.299  64.424  1.00  0.00    -0.291 NA 
HETATM   24  H   UNL     1     -10.263  13.542  66.152  1.00  0.00     0.000 HD 
HETATM   25  N   UNL     1     -10.089  10.989  64.145  1.00  0.00    -0.315 NA 
HETATM   26  N   UNL     1     -10.355  10.407  65.308  1.00  0.00    -0.255 NA 
ENDBRANCH  20  21
ENDBRANCH  12  15
ENDBRANCH   8   9
ENDBRANCH   6   8
BRANCH   6  27
HETATM   27  C   UNL     1      -7.944   3.195  66.146  1.00  0.00    -0.085 C  
HETATM   28  C   UNL     1      -6.745   3.506  65.195  1.00  0.00    -0.044 C  
HETATM   29  O   UNL     1      -6.210   2.628  64.520  1.00  0.00    -0.018 OA 
HETATM   30  C   UNL     1      -9.279   2.986  65.366  1.00  0.00    -0.141 C  
HETATM   31  O   UNL     1      -6.362   4.785  65.044  1.00  0.00    -0.033 OA 
HETATM   32  C   UNL     1     -10.092   4.251  65.109  1.00  0.00    -0.221 C  
HETATM   33  C   UNL     1      -9.140   2.158  64.087  1.00  0.00    -0.113 C  
ENDBRANCH   6  27
ENDBRANCH   4   5
ENDBRANCH   3   4
ENDBRANCH   2   3
TORSDOF 8
ENDMDL
MODEL      192
REMARK 921   NORMALIZED FREE ENERGY PREDICTED BY IDOCK:   -4.61 KCAL/MOL
REMARK 922        TOTAL FREE ENERGY PREDICTED BY IDOCK:   -7.29 KCAL/MOL
REMARK 923 INTER-LIGAND FREE ENERGY PREDICTED BY IDOCK:   -7.82 KCAL/MOL
REMARK 924 INTRA-LIGAND FREE ENERGY PREDICTED BY IDOCK:    0.53 KCAL/MOL
REMARK 927      BINDING AFFINITY PREDICTED BY RF-SCORE:    0.00 PKD
ROOT
HETATM    1  C   UNL     1     -12.557  13.464  65.210  1.00  0.00    -0.518 C  
HETATM    2  C   UNL     1     -12.324  13.345  66.702  1.00  0.00    -0.324 C  
ENDROOT
BRANCH   2   3
HETATM    3  C   UNL     1     -11.187  12.379  67.045  1.00  0.00    -0.358 C  
BRANCH   3   4
HETATM    4  C   UNL     1     -10.096  12.489  65.980  1.00  0.00    -0.268 C  
BRANCH   4   5
HETATM    5  C   UNL     1      -9.084  11.364  66.006  1.00  0.00    -0.208 C  
HETATM    6  N   UNL     1      -8.398  11.109  67.193  1.00  0.00    -0.131 N  
HETATM    7  O   UNL     1      -8.864  10.701  64.989  1.00  0.00    -0.192 OA 
BRANCH   6   8
HETATM    8  C   UNL     1      -8.665  11.866  68.451  1.00  0.00    -0.157 C  
BRANCH   8   9
HETATM    9  C   UNL     1      -8.319  13.344  68.388  1.00  0.00    -0.137 A  
HETATM   10  C   UNL     1      -9.066  14.273  69.114  1.00  0.00     0.156 A  
HETATM   11  C   UNL     1      -8.972  15.643  68.825  1.00  0.00    -0.205 A  
HETATM   12  C   UNL     1      -8.076  16.160  67.872  1.00  0.00    -0.152 A  
HETATM   13  C   UNL     1      -7.307  13.855  67.570  1.00  0.00    -0.181 A  
HETATM   14  C   UNL     1      -7.166  15.235  67.338  1.00  0.00    -0.235 A  
BRANCH  12  15
HETATM   15  C   UNL     1      -8.127  17.608  67.471  1.00  0.00    -0.217 A  
HETATM   16  C   UNL     1      -7.295  18.507  68.199  1.00  0.00    -0.276 A  
HETATM   17  C   UNL     1      -7.333  19.892  68.038  1.00  0.00    -0.332 A  
HETATM   18  C   UNL     1      -8.181  20.445  67.096  1.00  0.00    -0.374 A  
HETATM   19  C   UNL     1      -8.978  19.602  66.326  1.00  0.00    -0.420 A  
HETATM   20  C   UNL     1      -8.979  18.191  66.492  1.00  0.00    -0.288 A  
BRANCH  20  21
HETATM   21  C   UNL     1      -9.913  17.484  65.618  1.00  0.00     0.092 A  
HETATM   22  N   UNL     1     -10.950  18.084  64.997  1.00  0.00    -0.587 NA 
HETATM   23  N   UNL     1     -11.531  17.035  64.404  1.00  0.00    -0.941 NA 
HETATM   24  H   UNL     1     -11.218  19.068  64.983  1.00  0.00     0.000 HD 
HETATM   25  N   UNL     1     -10.926  15.854  64.586  1.00  0.00    -0.569 NA 
HETATM   26  N   UNL     1      -9.908  16.126  65.394  1.00  0.00    -0.472 NA 
ENDBRANCH  20  21
ENDBRANCH  12  15
ENDBRANCH   8   9
ENDBRANCH   6   8
BRANCH   6  27
HETATM   27  C   UNL     1      -7.525   9.882  67.309  1.00  0.00    -0.087 C  
HETATM   28  C   UNL     1      -7.249   9.216  68.694  1.00  0.00    -0.075 C  
HETATM   29  O   UNL     1      -7.110   8.000  68.811  1.00  0.00    -0.068 OA 
HETATM   30  C   UNL     1      -6.246   9.945  66.416  1.00  0.00    -0.070 C  
HETATM   31  O   UNL     1      -7.060  10.012  69.760  1.00  0.00    -0.085 OA 
HETATM   32  C   UNL     1      -5.383  11.188  66.598  1.00  0.00    -0.106 C  
HETATM   33  C   UNL     1      -5.391   8.677  66.449  1.00  0.00    -0.031 C  
ENDBRANCH   6  27
ENDBRANCH   4   5
ENDBRANCH   3   4
ENDBRANCH   2   3
TORSDOF 8
ENDMDL
MODEL      193
REMARK 921   NORMALIZED FREE ENERGY PREDICTED BY IDOCK:   -4.60 KCAL/MOL
REMARK 922        TOTAL FREE ENERGY PREDICTED BY IDOCK:   -7.27 KCAL/MOL
REMARK 923 INTER-LIGAND FREE ENERGY PREDICTED BY IDOCK:   -7.44 KCAL/MOL
REMARK 924 INTRA-LIGAND FREE ENERGY PREDICTED BY IDOCK:    0.17 KCAL/MOL
REMARK 927      BINDING AFFINITY PREDICTED BY RF-SCORE:    0.00 PKD
ROOT
HETATM    1  C   UNL     1      -7.868   7.935  69.322  1.00  0.00    -0.115 C  
HETATM    2  C   UNL     1      -9.270   7.432  69.044  1.00  0.00    -0.146 C  
ENDROOT
BRANCH   2   3
HETATM    3  C   UNL     1     -10.236   8.560  68.673  1.00  0.00    -0.217 C  
BRANCH   3   4
HETATM    4  C   UNL     1      -9.446   9.854  68.477  1.00  0.00    -0.149 C  
BRANCH   4   5
HETATM    5  C   UNL     1     -10.208  10.946  67.759  1.00  0.00    -0.180 C  
HETATM    6  N   UNL     1      -9.493  12.003  67.197  1.00  0.00    -0.184 N  
HETATM    7  O   UNL     1     -11.440  10.903  67.688  1.00  0.00    -0.468 OA 
BRANCH   6   8
HETATM    8  C   UNL     1      -8.003  12.069  67.231  1.00  0.00    -0.174 C  
BRANCH   8   9
HETATM    9  C   UNL     1      -7.436  13.297  67.922  1.00  0.00    -0.143 A  
HETATM   10  C   UNL     1      -8.148  13.917  68.949  1.00  0.00     0.033 A  
HETATM   11  C   UNL     1      -7.805  15.211  69.371  1.00  0.00    -0.208 A  
HETATM   12  C   UNL     1      -6.696  15.910  68.861  1.00  0.00    -0.134 A  
HETATM   13  C   UNL     1      -6.238  13.904  67.533  1.00  0.00    -0.016 A  
HETATM   14  C   UNL     1      -5.857  15.170  68.014  1.00  0.00    -0.154 A  
BRANCH  12  15
HETATM   15  C   UNL     1      -6.466  17.353  69.212  1.00  0.00    -0.245 A  
HETATM   16  C   UNL     1      -5.433  17.628  70.155  1.00  0.00    -0.243 A  
HETATM   17  C   UNL     1      -5.191  18.897  70.683  1.00  0.00    -0.236 A  
HETATM   18  C   UNL     1      -5.948  19.970  70.250  1.00  0.00    -0.375 A  
HETATM   19  C   UNL     1      -6.936  19.758  69.292  1.00  0.00    -0.349 A  
HETATM   20  C   UNL     1      -7.221  18.471  68.762  1.00  0.00    -0.316 A  
BRANCH  20  21
HETATM   21  C   UNL     1      -8.319  18.449  67.798  1.00  0.00    -0.262 A  
HETATM   22  N   UNL     1      -9.569  18.874  68.084  1.00  0.00    -0.321 NA 
HETATM   23  N   UNL     1     -10.202  18.581  66.942  1.00  0.00    -0.360 NA 
HETATM   24  H   UNL     1      -9.930  19.301  68.936  1.00  0.00     0.000 HD 
HETATM   25  N   UNL     1      -9.446  18.040  65.978  1.00  0.00    -0.523 NA 
HETATM   26  N   UNL     1      -8.245  17.917  66.530  1.00  0.00    -0.261 NA 
ENDBRANCH  20  21
ENDBRANCH  12  15
ENDBRANCH   8   9
ENDBRANCH   6   8
BRANCH   6  27
HETATM   27  C   UNL     1     -10.200  13.006  66.316  1.00  0.00    -0.288 C  
HETATM   28  C   UNL     1     -11.416  13.830  66.845  1.00  0.00    -0.347 C  
HETATM   29  O   UNL     1     -11.622  14.986  66.478  1.00  0.00    -0.302 OA 
HETATM   30  C   UNL     1     -10.417  12.500  64.855  1.00  0.00    -0.328 C  
HETATM   31  O   UNL     1     -12.307  13.217  67.642  1.00  0.00    -0.204 OA 
HETATM   32  C   UNL     1     -11.112  11.149  64.727  1.00  0.00    -0.136 C  
HETATM   33  C   UNL     1     -11.052  13.531  63.919  1.00  0.00    -0.091 C  
ENDBRANCH   6  27
ENDBRANCH   4   5
ENDBRANCH   3   4
ENDBRANCH   2   3
TORSDOF 8
ENDMDL
MODEL      194
REMARK 921   NORMALIZED FREE ENERGY PREDICTED BY IDOCK:   -4.59 KCAL/MOL
REMARK 922        TOTAL FREE ENERGY PREDICTED BY IDOCK:   -7.27 KCAL/MOL
REMARK 923 INTER-LIGAND FREE ENERGY PREDICTED BY IDOCK:   -7.65 KCAL/MOL
REMARK 924 INTRA-LIGAND FREE ENERGY PREDICTED BY IDOCK:    0.38 KCAL/MOL
REMARK 927      BINDING AFFINITY PREDICTED BY RF-SCORE:    0.00 PKD
ROOT
HETATM    1  C   UNL     1      -9.394   3.959  68.478  1.00  0.00    -0.224 C  
HETATM    2  C   UNL     1     -10.150   4.654  69.592  1.00  0.00    -0.232 C  
ENDROOT
BRANCH   2   3
HETATM    3  C   UNL     1     -10.950   5.861  69.097  1.00  0.00    -0.382 C  
BRANCH   3   4
HETATM    4  C   UNL     1      -9.980   6.942  68.616  1.00  0.00    -0.149 C  
BRANCH   4   5
HETATM    5  C   UNL     1      -8.957   7.364  69.647  1.00  0.00    -0.141 C  
HETATM    6  N   UNL     1      -9.255   8.437  70.485  1.00  0.00    -0.147 N  
HETATM    7  O   UNL     1      -7.874   6.776  69.728  1.00  0.00    -0.110 OA 
BRANCH   6   8
HETATM    8  C   UNL     1     -10.567   9.147  70.441  1.00  0.00    -0.230 C  
BRANCH   8   9
HETATM    9  C   UNL     1     -10.552  10.463  69.681  1.00  0.00    -0.289 A  
HETATM   10  C   UNL     1     -11.632  11.342  69.776  1.00  0.00    -0.408 A  
HETATM   11  C   UNL     1     -11.780  12.387  68.852  1.00  0.00    -0.372 A  
HETATM   12  C   UNL     1     -10.828  12.663  67.854  1.00  0.00    -0.244 A  
HETATM   13  C   UNL     1      -9.519  10.828  68.813  1.00  0.00    -0.187 A  
HETATM   14  C   UNL     1      -9.639  11.923  67.938  1.00  0.00    -0.193 A  
BRANCH  12  15
HETATM   15  C   UNL     1     -11.106  13.678  66.781  1.00  0.00    -0.315 A  
HETATM   16  C   UNL     1     -12.227  13.429  65.935  1.00  0.00    -0.502 A  
HETATM   17  C   UNL     1     -12.530  14.202  64.814  1.00  0.00    -0.395 A  
HETATM   18  C   UNL     1     -11.747  15.301  64.512  1.00  0.00    -0.306 A  
HETATM   19  C   UNL     1     -10.671  15.613  65.339  1.00  0.00    -0.424 A  
HETATM   20  C   UNL     1     -10.324  14.824  66.468  1.00  0.00    -0.287 A  
BRANCH  20  21
HETATM   21  C   UNL     1      -9.139  15.291  67.185  1.00  0.00    -0.210 A  
HETATM   22  N   UNL     1      -7.881  14.915  66.869  1.00  0.00    -0.323 NA 
HETATM   23  N   UNL     1      -7.186  15.525  67.836  1.00  0.00    -0.129 NA 
HETATM   24  H   UNL     1      -7.552  14.328  66.104  1.00  0.00     0.000 HD 
HETATM   25  N   UNL     1      -7.903  16.260  68.695  1.00  0.00    -0.189 NA 
HETATM   26  N   UNL     1      -9.161  16.087  68.309  1.00  0.00    -0.188 NA 
ENDBRANCH  20  21
ENDBRANCH  12  15
ENDBRANCH   8   9
ENDBRANCH   6   8
BRANCH   6  27
HETATM   27  C   UNL     1      -8.343   8.764  71.644  1.00  0.00    -0.125 C  
HETATM   28  C   UNL     1      -6.827   9.060  71.418  1.00  0.00    -0.066 C  
HETATM   29  O   UNL     1      -6.216   9.870  72.113  1.00  0.00    -0.228 OA 
HETATM   30  C   UNL     1      -8.591   7.869  72.899  1.00  0.00    -0.236 C  
HETATM   31  O   UNL     1      -6.161   8.333  70.505  1.00  0.00    -0.032 OA 
HETATM   32  C   UNL     1      -8.557   6.366  72.647  1.00  0.00    -0.122 C  
HETATM   33  C   UNL     1      -7.740   8.239  74.115  1.00  0.00    -0.264 C  
ENDBRANCH   6  27
ENDBRANCH   4   5
ENDBRANCH   3   4
ENDBRANCH   2   3
TORSDOF 8
ENDMDL
MODEL      195
REMARK 921   NORMALIZED FREE ENERGY PREDICTED BY IDOCK:   -4.59 KCAL/MOL
REMARK 922        TOTAL FREE ENERGY PREDICTED BY IDOCK:   -7.26 KCAL/MOL
REMARK 923 INTER-LIGAND FREE ENERGY PREDICTED BY IDOCK:   -7.62 KCAL/MOL
REMARK 924 INTRA-LIGAND FREE ENERGY PREDICTED BY IDOCK:    0.36 KCAL/MOL
REMARK 927      BINDING AFFINITY PREDICTED BY RF-SCORE:    0.00 PKD
ROOT
HETATM    1  C   UNL     1      -6.670  18.336  67.731  1.00  0.00    -0.206 C  
HETATM    2  C   UNL     1      -7.129  17.691  69.023  1.00  0.00    -0.227 C  
ENDROOT
BRANCH   2   3
HETATM    3  C   UNL     1      -6.760  16.208  69.103  1.00  0.00    -0.190 C  
BRANCH   3   4
HETATM    4  C   UNL     1      -8.020  15.393  69.399  1.00  0.00    -0.234 C  
BRANCH   4   5
HETATM    5  C   UNL     1      -9.110  15.531  68.358  1.00  0.00    -0.190 C  
HETATM    6  N   UNL     1      -9.039  14.747  67.207  1.00  0.00    -0.195 N  
HETATM    7  O   UNL     1     -10.031  16.336  68.523  1.00  0.00    -0.220 OA 
BRANCH   6   8
HETATM    8  C   UNL     1      -7.961  13.738  66.991  1.00  0.00     0.074 C  
BRANCH   8   9
HETATM    9  C   UNL     1      -8.322  12.323  67.410  1.00  0.00    -0.177 A  
HETATM   10  C   UNL     1      -9.091  11.516  66.571  1.00  0.00    -0.199 A  
HETATM   11  C   UNL     1      -9.696  10.350  67.064  1.00  0.00    -0.216 A  
HETATM   12  C   UNL     1      -9.496   9.885  68.376  1.00  0.00    -0.142 A  
HETATM   13  C   UNL     1      -7.976  11.786  68.653  1.00  0.00    -0.116 A  
HETATM   14  C   UNL     1      -8.526  10.577  69.117  1.00  0.00    -0.152 A  
BRANCH  12  15
HETATM   15  C   UNL     1     -10.294   8.732  68.917  1.00  0.00    -0.229 A  
HETATM   16  C   UNL     1     -11.159   9.008  70.016  1.00  0.00    -0.197 A  
HETATM   17  C   UNL     1     -11.857   8.020  70.712  1.00  0.00    -0.171 A  
HETATM   18  C   UNL     1     -11.758   6.702  70.305  1.00  0.00    -0.432 A  
HETATM   19  C   UNL     1     -10.964   6.391  69.205  1.00  0.00    -0.416 A  
HETATM   20  C   UNL     1     -10.220   7.374  68.499  1.00  0.00    -0.201 A  
BRANCH  20  21
HETATM   21  C   UNL     1      -9.417   6.844  67.400  1.00  0.00    -0.132 A  
HETATM   22  N   UNL     1      -9.939   6.448  66.219  1.00  0.00    -0.395 NA 
HETATM   23  N   UNL     1      -8.847   5.982  65.604  1.00  0.00    -0.142 NA 
HETATM   24  H   UNL     1     -10.902   6.491  65.888  1.00  0.00     0.000 HD 
HETATM   25  N   UNL     1      -7.702   6.083  66.291  1.00  0.00    -0.100 NA 
HETATM   26  N   UNL     1      -8.063   6.601  67.459  1.00  0.00    -0.117 NA 
ENDBRANCH  20  21
ENDBRANCH  12  15
ENDBRANCH   8   9
ENDBRANCH   6   8
BRANCH   6  27
HETATM   27  C   UNL     1     -10.200  14.721  66.242  1.00  0.00    -0.298 C  
HETATM   28  C   UNL     1     -10.719  16.030  65.568  1.00  0.00    -0.361 C  
HETATM   29  O   UNL     1     -11.169  16.035  64.423  1.00  0.00    -0.531 OA 
HETATM   30  C   UNL     1     -11.365  13.789  66.700  1.00  0.00    -0.340 C  
HETATM   31  O   UNL     1     -10.763  17.155  66.303  1.00  0.00    -0.221 OA 
HETATM   32  C   UNL     1     -11.894  14.045  68.106  1.00  0.00    -0.402 C  
HETATM   33  C   UNL     1     -12.515  13.677  65.696  1.00  0.00    -0.540 C  
ENDBRANCH   6  27
ENDBRANCH   4   5
ENDBRANCH   3   4
ENDBRANCH   2   3
TORSDOF 8
ENDMDL
MODEL      196
REMARK 921   NORMALIZED FREE ENERGY PREDICTED BY IDOCK:   -4.58 KCAL/MOL
REMARK 922        TOTAL FREE ENERGY PREDICTED BY IDOCK:   -7.25 KCAL/MOL
REMARK 923 INTER-LIGAND FREE ENERGY PREDICTED BY IDOCK:   -6.95 KCAL/MOL
REMARK 924 INTRA-LIGAND FREE ENERGY PREDICTED BY IDOCK:   -0.30 KCAL/MOL
REMARK 927      BINDING AFFINITY PREDICTED BY RF-SCORE:    0.00 PKD
ROOT
HETATM    1  C   UNL     1     -11.748   7.936  72.474  1.00  0.00    -0.423 C  
HETATM    2  C   UNL     1     -10.277   8.298  72.523  1.00  0.00    -0.386 C  
ENDROOT
BRANCH   2   3
HETATM    3  C   UNL     1      -9.714   8.662  71.148  1.00  0.00    -0.287 C  
BRANCH   3   4
HETATM    4  C   UNL     1      -8.475   7.811  70.871  1.00  0.00    -0.127 C  
BRANCH   4   5
HETATM    5  C   UNL     1      -8.684   6.723  69.840  1.00  0.00    -0.141 C  
HETATM    6  N   UNL     1      -7.998   6.808  68.629  1.00  0.00    -0.117 N  
HETATM    7  O   UNL     1      -9.460   5.790  70.068  1.00  0.00    -0.152 OA 
BRANCH   6   8
HETATM    8  C   UNL     1      -7.025   7.901  68.336  1.00  0.00    -0.075 C  
BRANCH   8   9
HETATM    9  C   UNL     1      -7.652   9.197  67.850  1.00  0.00    -0.085 A  
HETATM   10  C   UNL     1      -7.347  10.404  68.479  1.00  0.00    -0.086 A  
HETATM   11  C   UNL     1      -8.143  11.539  68.264  1.00  0.00    -0.148 A  
HETATM   12  C   UNL     1      -9.216  11.555  67.355  1.00  0.00    -0.166 A  
HETATM   13  C   UNL     1      -8.598   9.246  66.823  1.00  0.00    -0.134 A  
HETATM   14  C   UNL     1      -9.345  10.408  66.557  1.00  0.00    -0.193 A  
BRANCH  12  15
HETATM   15  C   UNL     1     -10.146  12.733  67.280  1.00  0.00    -0.226 A  
HETATM   16  C   UNL     1      -9.809  13.761  66.351  1.00  0.00    -0.305 A  
HETATM   17  C   UNL     1     -10.494  14.973  66.264  1.00  0.00    -0.309 A  
HETATM   18  C   UNL     1     -11.590  15.197  67.077  1.00  0.00    -0.179 A  
HETATM   19  C   UNL     1     -11.987  14.201  67.966  1.00  0.00    -0.372 A  
HETATM   20  C   UNL     1     -11.288  12.971  68.094  1.00  0.00    -0.329 A  
BRANCH  20  21
HETATM   21  C   UNL     1     -11.836  12.073  69.109  1.00  0.00    -0.311 A  
HETATM   22  N   UNL     1     -12.274  10.824  68.840  1.00  0.00    -0.795 NA 
HETATM   23  N   UNL     1     -12.738  10.456  70.039  1.00  0.00    -0.125 NA 
HETATM   24  H   UNL     1     -12.255  10.305  67.963  1.00  0.00     0.000 HD 
HETATM   25  N   UNL     1     -12.599  11.357  71.020  1.00  0.00    -0.404 NA 
HETATM   26  N   UNL     1     -12.055  12.411  70.426  1.00  0.00    -0.349 NA 
ENDBRANCH  20  21
ENDBRANCH  12  15
ENDBRANCH   8   9
ENDBRANCH   6   8
BRANCH   6  27
HETATM   27  C   UNL     1      -8.036   5.651  67.660  1.00  0.00    -0.101 C  
HETATM   28  C   UNL     1      -9.370   5.216  66.975  1.00  0.00    -0.124 C  
HETATM   29  O   UNL     1      -9.393   4.771  65.828  1.00  0.00    -0.147 OA 
HETATM   30  C   UNL     1      -7.181   4.429  68.120  1.00  0.00    -0.064 C  
HETATM   31  O   UNL     1     -10.500   5.239  67.701  1.00  0.00    -0.176 OA 
HETATM   32  C   UNL     1      -7.480   3.912  69.523  1.00  0.00    -0.053 C  
HETATM   33  C   UNL     1      -7.132   3.278  67.113  1.00  0.00    -0.058 C  
ENDBRANCH   6  27
ENDBRANCH   4   5
ENDBRANCH   3   4
ENDBRANCH   2   3
TORSDOF 8
ENDMDL
MODEL      197
REMARK 921   NORMALIZED FREE ENERGY PREDICTED BY IDOCK:   -4.58 KCAL/MOL
REMARK 922        TOTAL FREE ENERGY PREDICTED BY IDOCK:   -7.24 KCAL/MOL
REMARK 923 INTER-LIGAND FREE ENERGY PREDICTED BY IDOCK:   -7.06 KCAL/MOL
REMARK 924 INTRA-LIGAND FREE ENERGY PREDICTED BY IDOCK:   -0.19 KCAL/MOL
REMARK 927      BINDING AFFINITY PREDICTED BY RF-SCORE:    0.00 PKD
ROOT
HETATM    1  C   UNL     1      -9.257   5.858  71.143  1.00  0.00    -0.163 C  
HETATM    2  C   UNL     1     -10.453   5.933  70.216  1.00  0.00    -0.327 C  
ENDROOT
BRANCH   2   3
HETATM    3  C   UNL     1     -10.411   4.873  69.114  1.00  0.00    -0.103 C  
BRANCH   3   4
HETATM    4  C   UNL     1      -9.053   4.931  68.413  1.00  0.00    -0.141 C  
BRANCH   4   5
HETATM    5  C   UNL     1      -9.118   4.746  66.912  1.00  0.00    -0.117 C  
HETATM    6  N   UNL     1      -8.514   5.698  66.094  1.00  0.00    -0.123 N  
HETATM    7  O   UNL     1      -9.710   3.775  66.430  1.00  0.00    -0.194 OA 
BRANCH   6   8
HETATM    8  C   UNL     1      -7.759   6.863  66.643  1.00  0.00    -0.105 C  
BRANCH   8   9
HETATM    9  C   UNL     1      -8.525   8.175  66.640  1.00  0.00    -0.129 A  
HETATM   10  C   UNL     1      -9.913   8.179  66.783  1.00  0.00    -0.349 A  
HETATM   11  C   UNL     1     -10.656   9.326  66.465  1.00  0.00    -0.117 A  
HETATM   12  C   UNL     1     -10.058  10.539  66.081  1.00  0.00    -0.306 A  
HETATM   13  C   UNL     1      -7.911   9.413  66.430  1.00  0.00    -0.108 A  
HETATM   14  C   UNL     1      -8.659  10.580  66.186  1.00  0.00    -0.155 A  
BRANCH  12  15
HETATM   15  C   UNL     1     -10.891  11.688  65.586  1.00  0.00    -0.330 A  
HETATM   16  C   UNL     1     -11.003  11.839  64.172  1.00  0.00    -0.437 A  
HETATM   17  C   UNL     1     -11.624  12.930  63.563  1.00  0.00    -0.528 A  
HETATM   18  C   UNL     1     -12.211  13.905  64.346  1.00  0.00    -0.449 A  
HETATM   19  C   UNL     1     -12.171  13.775  65.732  1.00  0.00    -0.495 A  
HETATM   20  C   UNL     1     -11.518  12.690  66.377  1.00  0.00    -0.409 A  
BRANCH  20  21
HETATM   21  C   UNL     1     -11.551  12.753  67.837  1.00  0.00    -0.351 A  
HETATM   22  N   UNL     1     -12.174  11.836  68.608  1.00  0.00    -0.362 NA 
HETATM   23  N   UNL     1     -11.995  12.365  69.823  1.00  0.00    -0.310 NA 
HETATM   24  H   UNL     1     -12.652  10.977  68.337  1.00  0.00     0.000 HD 
HETATM   25  N   UNL     1     -11.295  13.506  69.866  1.00  0.00    -0.106 NA 
HETATM   26  N   UNL     1     -11.037  13.782  68.593  1.00  0.00    -0.256 NA 
ENDBRANCH  20  21
ENDBRANCH  12  15
ENDBRANCH   8   9
ENDBRANCH   6   8
BRANCH   6  27
HETATM   27  C   UNL     1      -8.396   5.449  64.609  1.00  0.00    -0.141 C  
HETATM   28  C   UNL     1      -8.102   4.020  64.052  1.00  0.00    -0.090 C  
HETATM   29  O   UNL     1      -8.572   3.633  62.983  1.00  0.00    -0.088 OA 
HETATM   30  C   UNL     1      -7.592   6.555  63.857  1.00  0.00    -0.103 C  
HETATM   31  O   UNL     1      -7.231   3.241  64.715  1.00  0.00    -0.063 OA 
HETATM   32  C   UNL     1      -6.208   6.856  64.422  1.00  0.00    -0.036 C  
HETATM   33  C   UNL     1      -7.534   6.371  62.339  1.00  0.00    -0.066 C  
ENDBRANCH   6  27
ENDBRANCH   4   5
ENDBRANCH   3   4
ENDBRANCH   2   3
TORSDOF 8
ENDMDL
MODEL      198
REMARK 921   NORMALIZED FREE ENERGY PREDICTED BY IDOCK:   -4.56 KCAL/MOL
REMARK 922        TOTAL FREE ENERGY PREDICTED BY IDOCK:   -7.22 KCAL/MOL
REMARK 923 INTER-LIGAND FREE ENERGY PREDICTED BY IDOCK:   -7.10 KCAL/MOL
REMARK 924 INTRA-LIGAND FREE ENERGY PREDICTED BY IDOCK:   -0.12 KCAL/MOL
REMARK 927      BINDING AFFINITY PREDICTED BY RF-SCORE:    0.00 PKD
ROOT
HETATM    1  C   UNL     1     -13.028   6.931  71.651  1.00  0.00    -0.359 C  
HETATM    2  C   UNL     1     -12.436   8.288  71.974  1.00  0.00    -0.393 C  
ENDROOT
BRANCH   2   3
HETATM    3  C   UNL     1     -11.067   8.186  72.652  1.00  0.00    -0.450 C  
BRANCH   3   4
HETATM    4  C   UNL     1     -10.421   6.851  72.280  1.00  0.00    -0.233 C  
BRANCH   4   5
HETATM    5  C   UNL     1      -9.021   6.972  71.718  1.00  0.00    -0.133 C  
HETATM    6  N   UNL     1      -8.832   6.796  70.349  1.00  0.00    -0.151 N  
HETATM    7  O   UNL     1      -8.068   7.206  72.467  1.00  0.00    -0.102 OA 
BRANCH   6   8
HETATM    8  C   UNL     1      -9.965   6.549  69.409  1.00  0.00    -0.158 C  
BRANCH   8   9
HETATM    9  C   UNL     1     -10.468   7.784  68.682  1.00  0.00    -0.199 A  
HETATM   10  C   UNL     1     -10.603   7.776  67.293  1.00  0.00    -0.376 A  
HETATM   11  C   UNL     1     -10.751   8.979  66.586  1.00  0.00    -0.043 A  
HETATM   12  C   UNL     1     -10.862  10.228  67.223  1.00  0.00    -0.312 A  
HETATM   13  C   UNL     1     -10.749   8.989  69.333  1.00  0.00    -0.202 A  
HETATM   14  C   UNL     1     -10.973  10.182  68.621  1.00  0.00    -0.273 A  
BRANCH  12  15
HETATM   15  C   UNL     1     -10.847  11.504  66.429  1.00  0.00    -0.334 A  
HETATM   16  C   UNL     1     -11.744  12.531  66.845  1.00  0.00    -0.447 A  
HETATM   17  C   UNL     1     -11.944  13.713  66.130  1.00  0.00    -0.453 A  
HETATM   18  C   UNL     1     -11.214  13.945  64.980  1.00  0.00    -0.342 A  
HETATM   19  C   UNL     1     -10.289  12.992  64.561  1.00  0.00    -0.386 A  
HETATM   20  C   UNL     1     -10.089  11.768  65.255  1.00  0.00    -0.300 A  
BRANCH  20  21
HETATM   21  C   UNL     1      -9.105  10.882  64.636  1.00  0.00    -0.170 A  
HETATM   22  N   UNL     1      -7.851  10.717  65.108  1.00  0.00    -0.355 NA 
HETATM   23  N   UNL     1      -7.338   9.901  64.181  1.00  0.00    -0.130 NA 
HETATM   24  H   UNL     1      -7.415  11.108  65.943  1.00  0.00     0.000 HD 
HETATM   25  N   UNL     1      -8.173   9.533  63.201  1.00  0.00    -0.148 NA 
HETATM   26  N   UNL     1      -9.299  10.186  63.463  1.00  0.00    -0.284 NA 
ENDBRANCH  20  21
ENDBRANCH  12  15
ENDBRANCH   8   9
ENDBRANCH   6   8
BRANCH   6  27
HETATM   27  C   UNL     1      -7.487   7.095  69.730  1.00  0.00    -0.097 C  
HETATM   28  C   UNL     1      -6.205   6.321  70.172  1.00  0.00    -0.031 C  
HETATM   29  O   UNL     1      -5.302   6.059  69.380  1.00  0.00    -0.004 OA 
HETATM   30  C   UNL     1      -7.220   8.620  69.536  1.00  0.00    -0.060 C  
HETATM   31  O   UNL     1      -6.052   6.027  71.474  1.00  0.00    -0.033 OA 
HETATM   32  C   UNL     1      -7.395   9.479  70.783  1.00  0.00    -0.103 C  
HETATM   33  C   UNL     1      -5.902   8.945  68.830  1.00  0.00    -0.040 C  
ENDBRANCH   6  27
ENDBRANCH   4   5
ENDBRANCH   3   4
ENDBRANCH   2   3
TORSDOF 8
ENDMDL
MODEL      199
REMARK 921   NORMALIZED FREE ENERGY PREDICTED BY IDOCK:   -4.55 KCAL/MOL
REMARK 922        TOTAL FREE ENERGY PREDICTED BY IDOCK:   -7.21 KCAL/MOL
REMARK 923 INTER-LIGAND FREE ENERGY PREDICTED BY IDOCK:   -8.04 KCAL/MOL
REMARK 924 INTRA-LIGAND FREE ENERGY PREDICTED BY IDOCK:    0.83 KCAL/MOL
REMARK 927      BINDING AFFINITY PREDICTED BY RF-SCORE:    0.00 PKD
ROOT
HETATM    1  C   UNL     1     -10.124   4.147  65.133  1.00  0.00    -0.219 C  
HETATM    2  C   UNL     1      -9.853   4.585  66.558  1.00  0.00    -0.244 C  
ENDROOT
BRANCH   2   3
HETATM    3  C   UNL     1      -9.541   6.080  66.665  1.00  0.00    -0.179 C  
BRANCH   3   4
HETATM    4  C   UNL     1     -10.707   6.787  67.357  1.00  0.00    -0.405 C  
BRANCH   4   5
HETATM    5  C   UNL     1     -10.694   6.677  68.866  1.00  0.00    -0.264 C  
HETATM    6  N   UNL     1      -9.877   7.541  69.593  1.00  0.00    -0.178 N  
HETATM    7  O   UNL     1     -11.385   5.826  69.434  1.00  0.00    -0.247 OA 
BRANCH   6   8
HETATM    8  C   UNL     1      -9.058   8.606  68.942  1.00  0.00    -0.145 C  
BRANCH   8   9
HETATM    9  C   UNL     1      -9.863   9.730  68.312  1.00  0.00    -0.167 A  
HETATM   10  C   UNL     1     -10.231   9.664  66.968  1.00  0.00    -0.308 A  
HETATM   11  C   UNL     1     -10.682  10.811  66.297  1.00  0.00    -0.205 A  
HETATM   12  C   UNL     1     -10.873  12.045  66.943  1.00  0.00    -0.302 A  
HETATM   13  C   UNL     1     -10.211  10.895  69.001  1.00  0.00    -0.219 A  
HETATM   14  C   UNL     1     -10.734  12.021  68.339  1.00  0.00    -0.255 A  
BRANCH  12  15
HETATM   15  C   UNL     1     -11.191  13.286  66.157  1.00  0.00    -0.317 A  
HETATM   16  C   UNL     1     -12.173  13.163  65.131  1.00  0.00    -0.497 A  
HETATM   17  C   UNL     1     -12.475  14.185  64.230  1.00  0.00    -0.301 A  
HETATM   18  C   UNL     1     -11.838  15.406  64.345  1.00  0.00    -0.260 A  
HETATM   19  C   UNL     1     -10.907  15.589  65.365  1.00  0.00    -0.402 A  
HETATM   20  C   UNL     1     -10.560  14.555  66.275  1.00  0.00    -0.304 A  
BRANCH  20  21
HETATM   21  C   UNL     1      -9.534  14.930  67.246  1.00  0.00    -0.213 A  
HETATM   22  N   UNL     1      -9.814  15.419  68.474  1.00  0.00    -0.203 NA 
HETATM   23  N   UNL     1      -8.583  15.676  68.929  1.00  0.00    -0.193 NA 
HETATM   24  H   UNL     1     -10.717  15.554  68.928  1.00  0.00     0.000 HD 
HETATM   25  N   UNL     1      -7.578  15.364  68.102  1.00  0.00    -0.110 NA 
HETATM   26  N   UNL     1      -8.178  14.920  67.005  1.00  0.00    -0.213 NA 
ENDBRANCH  20  21
ENDBRANCH  12  15
ENDBRANCH   8   9
ENDBRANCH   6   8
BRANCH   6  27
HETATM   27  C   UNL     1      -9.981   7.587  71.099  1.00  0.00    -0.180 C  
HETATM   28  C   UNL     1     -10.997   8.537  71.809  1.00  0.00    -0.306 C  
HETATM   29  O   UNL     1     -11.551   8.222  72.861  1.00  0.00    -0.351 OA 
HETATM   30  C   UNL     1      -8.596   7.559  71.817  1.00  0.00    -0.127 C  
HETATM   31  O   UNL     1     -11.186   9.767  71.302  1.00  0.00    -0.361 OA 
HETATM   32  C   UNL     1      -7.598   8.615  71.355  1.00  0.00    -0.136 C  
HETATM   33  C   UNL     1      -8.677   7.515  73.344  1.00  0.00    -0.229 C  
ENDBRANCH   6  27
ENDBRANCH   4   5
ENDBRANCH   3   4
ENDBRANCH   2   3
TORSDOF 8
ENDMDL
MODEL      200
REMARK 921   NORMALIZED FREE ENERGY PREDICTED BY IDOCK:   -4.55 KCAL/MOL
REMARK 922        TOTAL FREE ENERGY PREDICTED BY IDOCK:   -7.20 KCAL/MOL
REMARK 923 INTER-LIGAND FREE ENERGY PREDICTED BY IDOCK:   -7.13 KCAL/MOL
REMARK 924 INTRA-LIGAND FREE ENERGY PREDICTED BY IDOCK:   -0.07 KCAL/MOL
REMARK 927      BINDING AFFINITY PREDICTED BY RF-SCORE:    0.00 PKD
ROOT
HETATM    1  C   UNL     1      -9.309   7.905  70.030  1.00  0.00    -0.157 C  
HETATM    2  C   UNL     1      -9.989   6.709  70.664  1.00  0.00    -0.201 C  
ENDROOT
BRANCH   2   3
HETATM    3  C   UNL     1      -9.779   5.421  69.864  1.00  0.00    -0.249 C  
BRANCH   3   4
HETATM    4  C   UNL     1      -8.655   5.637  68.850  1.00  0.00    -0.101 C  
BRANCH   4   5
HETATM    5  C   UNL     1      -8.862   4.926  67.530  1.00  0.00    -0.103 C  
HETATM    6  N   UNL     1      -8.360   5.512  66.369  1.00  0.00    -0.110 N  
HETATM    7  O   UNL     1      -9.477   3.857  67.488  1.00  0.00    -0.177 OA 
BRANCH   6   8
HETATM    8  C   UNL     1      -7.579   6.784  66.386  1.00  0.00    -0.089 C  
BRANCH   8   9
HETATM    9  C   UNL     1      -8.423   8.047  66.427  1.00  0.00    -0.138 A  
HETATM   10  C   UNL     1      -7.812   9.298  66.516  1.00  0.00    -0.100 A  
HETATM   11  C   UNL     1      -8.560  10.430  66.874  1.00  0.00    -0.127 A  
HETATM   12  C   UNL     1      -9.952  10.392  67.071  1.00  0.00    -0.252 A  
HETATM   13  C   UNL     1      -9.821   8.027  66.448  1.00  0.00    -0.237 A  
HETATM   14  C   UNL     1     -10.574   9.181  66.734  1.00  0.00    -0.207 A  
BRANCH  12  15
HETATM   15  C   UNL     1     -10.687  11.584  67.619  1.00  0.00    -0.255 A  
HETATM   16  C   UNL     1     -10.583  11.814  69.022  1.00  0.00    -0.172 A  
HETATM   17  C   UNL     1     -11.314  12.792  69.697  1.00  0.00    -0.170 A  
HETATM   18  C   UNL     1     -12.155  13.626  68.985  1.00  0.00    -0.348 A  
HETATM   19  C   UNL     1     -12.252  13.472  67.604  1.00  0.00    -0.215 A  
HETATM   20  C   UNL     1     -11.541  12.464  66.899  1.00  0.00    -0.437 A  
BRANCH  20  21
HETATM   21  C   UNL     1     -11.806  12.438  65.462  1.00  0.00    -0.412 A  
HETATM   22  N   UNL     1     -10.845  12.584  64.525  1.00  0.00    -0.308 NA 
HETATM   23  N   UNL     1     -11.578  12.571  63.407  1.00  0.00    -0.486 NA 
HETATM   24  H   UNL     1      -9.836  12.680  64.639  1.00  0.00     0.000 HD 
HETATM   25  N   UNL     1     -12.896  12.402  63.575  1.00  0.00    -0.764 NA 
HETATM   26  N   UNL     1     -13.056  12.352  64.892  1.00  0.00    -0.657 NA 
ENDBRANCH  20  21
ENDBRANCH  12  15
ENDBRANCH   8   9
ENDBRANCH   6   8
BRANCH   6  27
HETATM   27  C   UNL     1      -8.382   4.744  65.068  1.00  0.00    -0.132 C  
HETATM   28  C   UNL     1      -9.730   4.359  64.381  1.00  0.00    -0.060 C  
HETATM   29  O   UNL     1      -9.843   4.315  63.157  1.00  0.00    -0.134 OA 
HETATM   30  C   UNL     1      -7.338   3.585  65.016  1.00  0.00    -0.072 C  
HETATM   31  O   UNL     1     -10.756   3.970  65.157  1.00  0.00    -0.148 OA 
HETATM   32  C   UNL     1      -7.397   2.599  66.177  1.00  0.00    -0.067 C  
HETATM   33  C   UNL     1      -7.280   2.849  63.676  1.00  0.00    -0.049 C  
ENDBRANCH   6  27
ENDBRANCH   4   5
ENDBRANCH   3   4
ENDBRANCH   2   3
TORSDOF 8
ENDMDL
MODEL      201
REMARK 921   NORMALIZED FREE ENERGY PREDICTED BY IDOCK:   -4.55 KCAL/MOL
REMARK 922        TOTAL FREE ENERGY PREDICTED BY IDOCK:   -7.20 KCAL/MOL
REMARK 923 INTER-LIGAND FREE ENERGY PREDICTED BY IDOCK:   -6.74 KCAL/MOL
REMARK 924 INTRA-LIGAND FREE ENERGY PREDICTED BY IDOCK:   -0.45 KCAL/MOL
REMARK 927      BINDING AFFINITY PREDICTED BY RF-SCORE:    0.00 PKD
ROOT
HETATM    1  C   UNL     1      -6.668   7.576  65.431  1.00  0.00    -0.045 C  
HETATM    2  C   UNL     1      -7.953   6.774  65.422  1.00  0.00    -0.121 C  
ENDROOT
BRANCH   2   3
HETATM    3  C   UNL     1      -8.363   6.304  66.820  1.00  0.00    -0.110 C  
BRANCH   3   4
HETATM    4  C   UNL     1      -9.585   7.101  67.278  1.00  0.00    -0.179 C  
BRANCH   4   5
HETATM    5  C   UNL     1     -10.185   6.625  68.583  1.00  0.00    -0.171 C  
HETATM    6  N   UNL     1      -9.901   7.335  69.748  1.00  0.00    -0.176 N  
HETATM    7  O   UNL     1     -10.899   5.618  68.610  1.00  0.00    -0.225 OA 
BRANCH   6   8
HETATM    8  C   UNL     1      -9.073   8.577  69.747  1.00  0.00    -0.153 C  
BRANCH   8   9
HETATM    9  C   UNL     1      -9.615   9.700  68.879  1.00  0.00    -0.161 A  
HETATM   10  C   UNL     1     -10.989   9.833  68.678  1.00  0.00    -0.189 A  
HETATM   11  C   UNL     1     -11.481  10.645  67.644  1.00  0.00    -0.169 A  
HETATM   12  C   UNL     1     -10.645  11.425  66.825  1.00  0.00    -0.298 A  
HETATM   13  C   UNL     1      -8.790  10.596  68.192  1.00  0.00    -0.134 A  
HETATM   14  C   UNL     1      -9.296  11.464  67.207  1.00  0.00    -0.173 A  
BRANCH  12  15
HETATM   15  C   UNL     1     -11.194  12.143  65.624  1.00  0.00    -0.381 A  
HETATM   16  C   UNL     1     -12.195  13.128  65.866  1.00  0.00    -0.497 A  
HETATM   17  C   UNL     1     -12.896  13.779  64.850  1.00  0.00    -0.242 A  
HETATM   18  C   UNL     1     -12.590  13.506  63.529  1.00  0.00    -0.063 A  
HETATM   19  C   UNL     1     -11.583  12.587  63.244  1.00  0.00    -0.445 A  
HETATM   20  C   UNL     1     -10.877  11.890  64.261  1.00  0.00    -0.396 A  
BRANCH  20  21
HETATM   21  C   UNL     1      -9.887  10.939  63.759  1.00  0.00    -0.337 A  
HETATM   22  N   UNL     1     -10.064   9.600  63.780  1.00  0.00    -0.041 NA 
HETATM   23  N   UNL     1      -8.885   9.183  63.306  1.00  0.00    -0.148 NA 
HETATM   24  H   UNL     1     -10.875   9.057  64.076  1.00  0.00     0.000 HD 
HETATM   25  N   UNL     1      -8.016  10.146  62.973  1.00  0.00    -0.145 NA 
HETATM   26  N   UNL     1      -8.635  11.275  63.295  1.00  0.00     0.090 NA 
ENDBRANCH  20  21
ENDBRANCH  12  15
ENDBRANCH   8   9
ENDBRANCH   6   8
BRANCH   6  27
HETATM   27  C   UNL     1     -10.629   7.003  71.029  1.00  0.00    -0.218 C  
HETATM   28  C   UNL     1     -10.833   8.078  72.143  1.00  0.00    -0.279 C  
HETATM   29  O   UNL     1     -11.844   8.099  72.844  1.00  0.00    -0.352 OA 
HETATM   30  C   UNL     1     -10.246   5.608  71.615  1.00  0.00    -0.261 C  
HETATM   31  O   UNL     1      -9.830   8.934  72.399  1.00  0.00    -0.244 OA 
HETATM   32  C   UNL     1      -8.754   5.370  71.816  1.00  0.00    -0.138 C  
HETATM   33  C   UNL     1     -11.036   5.211  72.864  1.00  0.00    -0.345 C  
ENDBRANCH   6  27
ENDBRANCH   4   5
ENDBRANCH   3   4
ENDBRANCH   2   3
TORSDOF 8
ENDMDL
MODEL      202
REMARK 921   NORMALIZED FREE ENERGY PREDICTED BY IDOCK:   -4.52 KCAL/MOL
REMARK 922        TOTAL FREE ENERGY PREDICTED BY IDOCK:   -7.16 KCAL/MOL
REMARK 923 INTER-LIGAND FREE ENERGY PREDICTED BY IDOCK:   -6.95 KCAL/MOL
REMARK 924 INTRA-LIGAND FREE ENERGY PREDICTED BY IDOCK:   -0.21 KCAL/MOL
REMARK 927      BINDING AFFINITY PREDICTED BY RF-SCORE:    0.00 PKD
ROOT
HETATM    1  C   UNL     1     -10.365   6.064  68.387  1.00  0.00    -0.252 C  
HETATM    2  C   UNL     1     -10.067   6.168  66.905  1.00  0.00    -0.232 C  
ENDROOT
BRANCH   2   3
HETATM    3  C   UNL     1      -9.619   7.572  66.492  1.00  0.00    -0.239 C  
BRANCH   3   4
HETATM    4  C   UNL     1     -10.675   8.586  66.935  1.00  0.00    -0.156 C  
BRANCH   4   5
HETATM    5  C   UNL     1     -10.467   9.981  66.387  1.00  0.00    -0.129 C  
HETATM    6  N   UNL     1     -10.906  11.068  67.141  1.00  0.00    -0.269 N  
HETATM    7  O   UNL     1      -9.932  10.145  65.287  1.00  0.00    -0.300 OA 
BRANCH   6   8
HETATM    8  C   UNL     1     -11.522  10.910  68.491  1.00  0.00    -0.310 C  
BRANCH   8   9
HETATM    9  C   UNL     1     -10.590  10.354  69.554  1.00  0.00    -0.274 A  
HETATM   10  C   UNL     1      -9.217  10.589  69.477  1.00  0.00    -0.072 A  
HETATM   11  C   UNL     1      -8.321   9.832  70.248  1.00  0.00    -0.172 A  
HETATM   12  C   UNL     1      -8.746   8.877  71.189  1.00  0.00    -0.280 A  
HETATM   13  C   UNL     1     -11.029   9.539  70.601  1.00  0.00    -0.370 A  
HETATM   14  C   UNL     1     -10.129   8.838  71.424  1.00  0.00    -0.354 A  
BRANCH  12  15
HETATM   15  C   UNL     1      -7.758   7.970  71.868  1.00  0.00    -0.114 A  
HETATM   16  C   UNL     1      -6.417   8.442  71.971  1.00  0.00    -0.069 A  
HETATM   17  C   UNL     1      -5.362   7.663  72.448  1.00  0.00    -0.036 A  
HETATM   18  C   UNL     1      -5.611   6.378  72.893  1.00  0.00    -0.038 A  
HETATM   19  C   UNL     1      -6.915   5.891  72.858  1.00  0.00    -0.076 A  
HETATM   20  C   UNL     1      -8.000   6.654  72.350  1.00  0.00    -0.099 A  
BRANCH  20  21
HETATM   21  C   UNL     1      -9.283   5.953  72.360  1.00  0.00    -0.143 A  
HETATM   22  N   UNL     1      -9.646   5.050  71.424  1.00  0.00    -0.157 NA 
HETATM   23  N   UNL     1     -10.893   4.768  71.816  1.00  0.00     0.027 NA 
HETATM   24  H   UNL     1      -9.114   4.684  70.634  1.00  0.00     0.000 HD 
HETATM   25  N   UNL     1     -11.313   5.396  72.921  1.00  0.00    -0.310 NA 
HETATM   26  N   UNL     1     -10.301   6.186  73.257  1.00  0.00    -0.212 NA 
ENDBRANCH  20  21
ENDBRANCH  12  15
ENDBRANCH   8   9
ENDBRANCH   6   8
BRANCH   6  27
HETATM   27  C   UNL     1     -10.547  12.473  66.717  1.00  0.00    -0.233 C  
HETATM   28  C   UNL     1     -10.754  13.684  67.680  1.00  0.00    -0.245 C  
HETATM   29  O   UNL     1      -9.990  14.648  67.681  1.00  0.00    -0.225 OA 
HETATM   30  C   UNL     1     -10.968  12.803  65.251  1.00  0.00    -0.314 C  
HETATM   31  O   UNL     1     -11.854  13.708  68.451  1.00  0.00    -0.339 OA 
HETATM   32  C   UNL     1     -12.431  12.541  64.915  1.00  0.00    -0.524 C  
HETATM   33  C   UNL     1     -10.536  14.190  64.769  1.00  0.00    -0.439 C  
ENDBRANCH   6  27
ENDBRANCH   4   5
ENDBRANCH   3   4
ENDBRANCH   2   3
TORSDOF 8
ENDMDL
MODEL      203
REMARK 921   NORMALIZED FREE ENERGY PREDICTED BY IDOCK:   -4.49 KCAL/MOL
REMARK 922        TOTAL FREE ENERGY PREDICTED BY IDOCK:   -7.12 KCAL/MOL
REMARK 923 INTER-LIGAND FREE ENERGY PREDICTED BY IDOCK:   -7.95 KCAL/MOL
REMARK 924 INTRA-LIGAND FREE ENERGY PREDICTED BY IDOCK:    0.83 KCAL/MOL
REMARK 927      BINDING AFFINITY PREDICTED BY RF-SCORE:    0.00 PKD
ROOT
HETATM    1  C   UNL     1     -13.215  10.608  72.010  1.00  0.00    -0.473 C  
HETATM    2  C   UNL     1     -12.254  11.366  71.117  1.00  0.00    -0.330 C  
ENDROOT
BRANCH   2   3
HETATM    3  C   UNL     1     -11.720  10.509  69.967  1.00  0.00    -0.394 C  
BRANCH   3   4
HETATM    4  C   UNL     1     -10.697  11.319  69.170  1.00  0.00    -0.247 C  
BRANCH   4   5
HETATM    5  C   UNL     1     -10.801  11.151  67.670  1.00  0.00    -0.247 C  
HETATM    6  N   UNL     1     -11.469  12.127  66.932  1.00  0.00    -0.345 N  
HETATM    7  O   UNL     1     -10.316  10.159  67.119  1.00  0.00    -0.212 OA 
BRANCH   6   8
HETATM    8  C   UNL     1     -12.036  13.357  67.560  1.00  0.00    -0.339 C  
BRANCH   8   9
HETATM    9  C   UNL     1     -11.027  14.467  67.807  1.00  0.00    -0.283 A  
HETATM   10  C   UNL     1     -11.457  15.784  67.969  1.00  0.00    -0.264 A  
HETATM   11  C   UNL     1     -10.544  16.846  67.875  1.00  0.00    -0.361 A  
HETATM   12  C   UNL     1      -9.161  16.649  67.707  1.00  0.00    -0.214 A  
HETATM   13  C   UNL     1      -9.646  14.251  67.814  1.00  0.00    -0.221 A  
HETATM   14  C   UNL     1      -8.729  15.318  67.796  1.00  0.00    -0.168 A  
BRANCH  12  15
HETATM   15  C   UNL     1      -8.244  17.810  67.441  1.00  0.00    -0.221 A  
HETATM   16  C   UNL     1      -8.666  18.751  66.456  1.00  0.00    -0.317 A  
HETATM   17  C   UNL     1      -7.866  19.799  66.001  1.00  0.00    -0.344 A  
HETATM   18  C   UNL     1      -6.611  19.986  66.551  1.00  0.00    -0.226 A  
HETATM   19  C   UNL     1      -6.175  19.121  67.551  1.00  0.00    -0.205 A  
HETATM   20  C   UNL     1      -6.959  18.029  68.010  1.00  0.00    -0.211 A  
BRANCH  20  21
HETATM   21  C   UNL     1      -6.310  17.214  69.035  1.00  0.00    -0.204 A  
HETATM   22  N   UNL     1      -5.870  17.709  70.211  1.00  0.00    -0.202 NA 
HETATM   23  N   UNL     1      -5.300  16.623  70.745  1.00  0.00    -0.180 NA 
HETATM   24  H   UNL     1      -5.950  18.653  70.589  1.00  0.00     0.000 HD 
HETATM   25  N   UNL     1      -5.377  15.504  70.013  1.00  0.00    -0.112 NA 
HETATM   26  N   UNL     1      -5.990  15.881  68.898  1.00  0.00    -0.111 NA 
ENDBRANCH  20  21
ENDBRANCH  12  15
ENDBRANCH   8   9
ENDBRANCH   6   8
BRANCH   6  27
HETATM   27  C   UNL     1     -11.429  12.089  65.423  1.00  0.00    -0.305 C  
HETATM   28  C   UNL     1     -10.170  12.574  64.637  1.00  0.00    -0.290 C  
HETATM   29  O   UNL     1      -9.824  12.046  63.581  1.00  0.00    -0.340 OA 
HETATM   30  C   UNL     1     -12.760  12.558  64.756  1.00  0.00    -0.415 C  
HETATM   31  O   UNL     1      -9.515  13.659  65.083  1.00  0.00     0.123 OA 
HETATM   32  C   UNL     1     -13.272  13.922  65.205  1.00  0.00    -0.012 C  
HETATM   33  C   UNL     1     -12.775  12.444  63.231  1.00  0.00    -0.286 C  
ENDBRANCH   6  27
ENDBRANCH   4   5
ENDBRANCH   3   4
ENDBRANCH   2   3
TORSDOF 8
ENDMDL
MODEL      204
REMARK 921   NORMALIZED FREE ENERGY PREDICTED BY IDOCK:   -4.46 KCAL/MOL
REMARK 922        TOTAL FREE ENERGY PREDICTED BY IDOCK:   -7.07 KCAL/MOL
REMARK 923 INTER-LIGAND FREE ENERGY PREDICTED BY IDOCK:   -7.08 KCAL/MOL
REMARK 924 INTRA-LIGAND FREE ENERGY PREDICTED BY IDOCK:    0.00 KCAL/MOL
REMARK 927      BINDING AFFINITY PREDICTED BY RF-SCORE:    0.00 PKD
ROOT
HETATM    1  C   UNL     1      -7.890   9.881  70.270  1.00  0.00    -0.151 C  
HETATM    2  C   UNL     1      -7.730  10.789  69.068  1.00  0.00    -0.133 C  
ENDROOT
BRANCH   2   3
HETATM    3  C   UNL     1      -6.440  10.514  68.291  1.00  0.00    -0.055 C  
BRANCH   3   4
HETATM    4  C   UNL     1      -6.789  10.176  66.841  1.00  0.00    -0.084 C  
BRANCH   4   5
HETATM    5  C   UNL     1      -7.003   8.701  66.579  1.00  0.00    -0.079 C  
HETATM    6  N   UNL     1      -8.109   8.308  65.827  1.00  0.00    -0.102 N  
HETATM    7  O   UNL     1      -6.219   7.867  67.041  1.00  0.00    -0.051 OA 
BRANCH   6   8
HETATM    8  C   UNL     1      -9.056   9.291  65.223  1.00  0.00    -0.215 C  
BRANCH   8   9
HETATM    9  C   UNL     1     -10.054   9.893  66.198  1.00  0.00    -0.315 A  
HETATM   10  C   UNL     1     -10.506  11.201  66.023  1.00  0.00    -0.312 A  
HETATM   11  C   UNL     1     -11.160  11.873  67.068  1.00  0.00    -0.354 A  
HETATM   12  C   UNL     1     -11.475  11.255  68.291  1.00  0.00    -0.378 A  
HETATM   13  C   UNL     1     -10.510   9.218  67.334  1.00  0.00    -0.340 A  
HETATM   14  C   UNL     1     -11.233   9.874  68.347  1.00  0.00    -0.134 A  
BRANCH  12  15
HETATM   15  C   UNL     1     -12.020  12.054  69.442  1.00  0.00    -0.334 A  
HETATM   16  C   UNL     1     -12.105  13.466  69.261  1.00  0.00    -0.312 A  
HETATM   17  C   UNL     1     -12.459  14.351  70.279  1.00  0.00    -0.413 A  
HETATM   18  C   UNL     1     -12.793  13.857  71.526  1.00  0.00    -0.441 A  
HETATM   19  C   UNL     1     -12.773  12.481  71.736  1.00  0.00    -0.244 A  
HETATM   20  C   UNL     1     -12.387  11.561  70.724  1.00  0.00    -0.472 A  
BRANCH  20  21
HETATM   21  C   UNL     1     -12.391  10.163  71.151  1.00  0.00    -0.385 A  
HETATM   22  N   UNL     1     -11.301   9.529  71.633  1.00  0.00    -0.382 NA 
HETATM   23  N   UNL     1     -11.781   8.291  71.796  1.00  0.00    -0.284 NA 
HETATM   24  H   UNL     1     -10.368   9.895  71.821  1.00  0.00     0.000 HD 
HETATM   25  N   UNL     1     -13.071   8.120  71.483  1.00  0.00    -0.311 NA 
HETATM   26  N   UNL     1     -13.462   9.306  71.033  1.00  0.00    -0.153 NA 
ENDBRANCH  20  21
ENDBRANCH  12  15
ENDBRANCH   8   9
ENDBRANCH   6   8
BRANCH   6  27
HETATM   27  C   UNL     1      -8.249   6.870  65.389  1.00  0.00    -0.134 C  
HETATM   28  C   UNL     1      -8.081   5.697  66.406  1.00  0.00    -0.106 C  
HETATM   29  O   UNL     1      -8.733   4.659  66.309  1.00  0.00    -0.113 OA 
HETATM   30  C   UNL     1      -7.562   6.569  64.020  1.00  0.00    -0.100 C  
HETATM   31  O   UNL     1      -7.126   5.796  67.346  1.00  0.00    -0.071 OA 
HETATM   32  C   UNL     1      -6.097   6.979  63.920  1.00  0.00    -0.040 C  
HETATM   33  C   UNL     1      -7.765   5.140  63.513  1.00  0.00    -0.077 C  
ENDBRANCH   6  27
ENDBRANCH   4   5
ENDBRANCH   3   4
ENDBRANCH   2   3
TORSDOF 8
ENDMDL
MODEL      205
REMARK 921   NORMALIZED FREE ENERGY PREDICTED BY IDOCK:   -4.43 KCAL/MOL
REMARK 922        TOTAL FREE ENERGY PREDICTED BY IDOCK:   -7.03 KCAL/MOL
REMARK 923 INTER-LIGAND FREE ENERGY PREDICTED BY IDOCK:   -6.29 KCAL/MOL
REMARK 924 INTRA-LIGAND FREE ENERGY PREDICTED BY IDOCK:   -0.74 KCAL/MOL
REMARK 927      BINDING AFFINITY PREDICTED BY RF-SCORE:    0.00 PKD
ROOT
HETATM    1  C   UNL     1      -6.827   9.281  70.718  1.00  0.00    -0.100 C  
HETATM    2  C   UNL     1      -7.035  10.618  70.037  1.00  0.00    -0.131 C  
ENDROOT
BRANCH   2   3
HETATM    3  C   UNL     1      -5.826  11.048  69.203  1.00  0.00    -0.041 C  
BRANCH   3   4
HETATM    4  C   UNL     1      -6.311  11.581  67.854  1.00  0.00    -0.056 C  
BRANCH   4   5
HETATM    5  C   UNL     1      -6.245  10.573  66.726  1.00  0.00    -0.070 C  
HETATM    6  N   UNL     1      -7.285  10.538  65.799  1.00  0.00    -0.145 N  
HETATM    7  O   UNL     1      -5.294   9.790  66.646  1.00  0.00    -0.043 OA 
BRANCH   6   8
HETATM    8  C   UNL     1      -8.431  11.493  65.844  1.00  0.00     0.062 C  
BRANCH   8   9
HETATM    9  C   UNL     1      -9.537  11.113  66.814  1.00  0.00    -0.215 A  
HETATM   10  C   UNL     1      -9.903  11.985  67.840  1.00  0.00    -0.196 A  
HETATM   11  C   UNL     1     -10.678  11.529  68.917  1.00  0.00    -0.245 A  
HETATM   12  C   UNL     1     -11.197  10.223  68.983  1.00  0.00    -0.260 A  
HETATM   13  C   UNL     1     -10.185   9.875  66.780  1.00  0.00    -0.301 A  
HETATM   14  C   UNL     1     -11.023   9.448  67.827  1.00  0.00    -0.122 A  
BRANCH  12  15
HETATM   15  C   UNL     1     -11.874   9.724  70.229  1.00  0.00    -0.208 A  
HETATM   16  C   UNL     1     -12.681  10.660  70.941  1.00  0.00    -0.498 A  
HETATM   17  C   UNL     1     -13.259  10.388  72.182  1.00  0.00    -0.418 A  
HETATM   18  C   UNL     1     -13.096   9.139  72.750  1.00  0.00    -0.187 A  
HETATM   19  C   UNL     1     -12.358   8.175  72.068  1.00  0.00    -0.380 A  
HETATM   20  C   UNL     1     -11.734   8.437  70.818  1.00  0.00    -0.219 A  
BRANCH  20  21
HETATM   21  C   UNL     1     -10.971   7.312  70.281  1.00  0.00    -0.260 A  
HETATM   22  N   UNL     1     -11.507   6.360  69.488  1.00  0.00    -0.586 NA 
HETATM   23  N   UNL     1     -10.462   5.539  69.338  1.00  0.00    -0.284 NA 
HETATM   24  H   UNL     1     -12.451   6.288  69.107  1.00  0.00     0.000 HD 
HETATM   25  N   UNL     1      -9.330   5.918  69.946  1.00  0.00    -0.148 NA 
HETATM   26  N   UNL     1      -9.657   7.035  70.584  1.00  0.00    -0.166 NA 
ENDBRANCH  20  21
ENDBRANCH  12  15
ENDBRANCH   8   9
ENDBRANCH   6   8
BRANCH   6  27
HETATM   27  C   UNL     1      -7.162   9.681  64.562  1.00  0.00    -0.121 C  
HETATM   28  C   UNL     1      -5.878   9.726  63.674  1.00  0.00    -0.108 C  
HETATM   29  O   UNL     1      -5.458   8.726  63.093  1.00  0.00    -0.068 OA 
HETATM   30  C   UNL     1      -8.469   9.629  63.711  1.00  0.00    -0.190 C  
HETATM   31  O   UNL     1      -5.285  10.913  63.466  1.00  0.00    -0.168 OA 
HETATM   32  C   UNL     1      -9.049  10.984  63.321  1.00  0.00    -0.228 C  
HETATM   33  C   UNL     1      -8.397   8.697  62.500  1.00  0.00    -0.195 C  
ENDBRANCH   6  27
ENDBRANCH   4   5
ENDBRANCH   3   4
ENDBRANCH   2   3
TORSDOF 8
ENDMDL
MODEL      206
REMARK 921   NORMALIZED FREE ENERGY PREDICTED BY IDOCK:   -4.41 KCAL/MOL
REMARK 922        TOTAL FREE ENERGY PREDICTED BY IDOCK:   -7.00 KCAL/MOL
REMARK 923 INTER-LIGAND FREE ENERGY PREDICTED BY IDOCK:   -7.34 KCAL/MOL
REMARK 924 INTRA-LIGAND FREE ENERGY PREDICTED BY IDOCK:    0.34 KCAL/MOL
REMARK 927      BINDING AFFINITY PREDICTED BY RF-SCORE:    0.00 PKD
ROOT
HETATM    1  C   UNL     1     -13.128  12.119  63.946  1.00  0.00    -0.192 C  
HETATM    2  C   UNL     1     -11.678  11.884  63.575  1.00  0.00    -0.550 C  
ENDROOT
BRANCH   2   3
HETATM    3  C   UNL     1     -10.744  11.940  64.787  1.00  0.00    -0.356 C  
BRANCH   3   4
HETATM    4  C   UNL     1      -9.979  13.264  64.769  1.00  0.00    -0.150 C  
BRANCH   4   5
HETATM    5  C   UNL     1     -10.436  14.261  65.812  1.00  0.00    -0.316 C  
HETATM    6  N   UNL     1      -9.764  14.309  67.032  1.00  0.00    -0.246 N  
HETATM    7  O   UNL     1     -11.396  15.003  65.585  1.00  0.00    -0.345 OA 
BRANCH   6   8
HETATM    8  C   UNL     1      -8.577  13.454  67.327  1.00  0.00    -0.213 C  
BRANCH   8   9
HETATM    9  C   UNL     1      -8.885  12.186  68.106  1.00  0.00    -0.187 A  
HETATM   10  C   UNL     1      -7.922  11.185  68.228  1.00  0.00    -0.127 A  
HETATM   11  C   UNL     1      -8.284   9.898  68.655  1.00  0.00    -0.108 A  
HETATM   12  C   UNL     1      -9.589   9.570  69.062  1.00  0.00    -0.166 A  
HETATM   13  C   UNL     1     -10.138  11.924  68.667  1.00  0.00    -0.186 A  
HETATM   14  C   UNL     1     -10.477  10.652  69.164  1.00  0.00    -0.245 A  
BRANCH  12  15
HETATM   15  C   UNL     1      -9.974   8.145  69.347  1.00  0.00    -0.188 A  
HETATM   16  C   UNL     1     -10.682   7.900  70.560  1.00  0.00    -0.233 A  
HETATM   17  C   UNL     1     -10.985   6.621  71.028  1.00  0.00    -0.305 A  
HETATM   18  C   UNL     1     -10.634   5.518  70.273  1.00  0.00    -0.357 A  
HETATM   19  C   UNL     1      -9.985   5.710  69.056  1.00  0.00    -0.233 A  
HETATM   20  C   UNL     1      -9.638   7.000  68.572  1.00  0.00    -0.137 A  
BRANCH  20  21
HETATM   21  C   UNL     1      -8.926   6.991  67.296  1.00  0.00    -0.119 A  
HETATM   22  N   UNL     1      -9.513   7.276  66.114  1.00  0.00    -0.387 NA 
HETATM   23  N   UNL     1      -8.499   7.057  65.269  1.00  0.00    -0.099 NA 
HETATM   24  H   UNL     1     -10.468   7.576  65.919  1.00  0.00     0.000 HD 
HETATM   25  N   UNL     1      -7.340   6.690  65.832  1.00  0.00    -0.077 NA 
HETATM   26  N   UNL     1      -7.614   6.609  67.128  1.00  0.00    -0.094 NA 
ENDBRANCH  20  21
ENDBRANCH  12  15
ENDBRANCH   8   9
ENDBRANCH   6   8
BRANCH   6  27
HETATM   27  C   UNL     1     -10.069  15.413  68.017  1.00  0.00    -0.226 C  
HETATM   28  C   UNL     1     -11.402  15.422  68.831  1.00  0.00    -0.314 C  
HETATM   29  O   UNL     1     -11.454  15.856  69.981  1.00  0.00    -0.313 OA 
HETATM   30  C   UNL     1      -9.685  16.832  67.494  1.00  0.00    -0.252 C  
HETATM   31  O   UNL     1     -12.531  15.036  68.215  1.00  0.00     0.092 OA 
HETATM   32  C   UNL     1     -10.262  17.207  66.133  1.00  0.00    -0.343 C  
HETATM   33  C   UNL     1      -9.903  17.958  68.508  1.00  0.00    -0.367 C  
ENDBRANCH   6  27
ENDBRANCH   4   5
ENDBRANCH   3   4
ENDBRANCH   2   3
TORSDOF 8
ENDMDL
MODEL      207
REMARK 921   NORMALIZED FREE ENERGY PREDICTED BY IDOCK:   -4.40 KCAL/MOL
REMARK 922        TOTAL FREE ENERGY PREDICTED BY IDOCK:   -6.98 KCAL/MOL
REMARK 923 INTER-LIGAND FREE ENERGY PREDICTED BY IDOCK:   -6.91 KCAL/MOL
REMARK 924 INTRA-LIGAND FREE ENERGY PREDICTED BY IDOCK:   -0.07 KCAL/MOL
REMARK 927      BINDING AFFINITY PREDICTED BY RF-SCORE:    0.00 PKD
ROOT
HETATM    1  C   UNL     1     -13.499   9.331  72.147  1.00  0.00    -0.539 C  
HETATM    2  C   UNL     1     -11.994   9.152  72.122  1.00  0.00    -0.364 C  
ENDROOT
BRANCH   2   3
HETATM    3  C   UNL     1     -11.448   8.958  70.706  1.00  0.00    -0.319 C  
BRANCH   3   4
HETATM    4  C   UNL     1     -10.498  10.108  70.372  1.00  0.00    -0.237 C  
BRANCH   4   5
HETATM    5  C   UNL     1     -11.117  11.204  69.533  1.00  0.00    -0.252 C  
HETATM    6  N   UNL     1     -10.341  11.813  68.548  1.00  0.00    -0.213 N  
HETATM    7  O   UNL     1     -12.283  11.558  69.733  1.00  0.00    -0.288 OA 
BRANCH   6   8
HETATM    8  C   UNL     1      -8.942  11.385  68.254  1.00  0.00    -0.175 C  
BRANCH   8   9
HETATM    9  C   UNL     1      -8.777   9.902  67.970  1.00  0.00    -0.125 A  
HETATM   10  C   UNL     1      -9.780   9.199  67.301  1.00  0.00    -0.225 A  
HETATM   11  C   UNL     1      -9.794   7.796  67.315  1.00  0.00    -0.249 A  
HETATM   12  C   UNL     1      -8.776   7.029  67.910  1.00  0.00    -0.125 A  
HETATM   13  C   UNL     1      -7.678   9.160  68.411  1.00  0.00    -0.094 A  
HETATM   14  C   UNL     1      -7.660   7.754  68.355  1.00  0.00    -0.109 A  
BRANCH  12  15
HETATM   15  C   UNL     1      -8.915   5.540  68.053  1.00  0.00    -0.108 A  
HETATM   16  C   UNL     1      -9.375   5.054  69.312  1.00  0.00    -0.178 A  
HETATM   17  C   UNL     1      -9.423   3.700  69.643  1.00  0.00    -0.245 A  
HETATM   18  C   UNL     1      -9.056   2.755  68.702  1.00  0.00    -0.215 A  
HETATM   19  C   UNL     1      -8.648   3.180  67.441  1.00  0.00    -0.124 A  
HETATM   20  C   UNL     1      -8.561   4.554  67.090  1.00  0.00    -0.104 A  
BRANCH  20  21
HETATM   21  C   UNL     1      -8.074   4.798  65.734  1.00  0.00    -0.111 A  
HETATM   22  N   UNL     1      -6.851   4.418  65.303  1.00  0.00    -0.056 NA 
HETATM   23  N   UNL     1      -6.852   4.925  64.065  1.00  0.00    -0.046 NA 
HETATM   24  H   UNL     1      -6.127   3.890  65.789  1.00  0.00     0.000 HD 
HETATM   25  N   UNL     1      -7.973   5.555  63.693  1.00  0.00    -0.103 NA 
HETATM   26  N   UNL     1      -8.749   5.511  64.770  1.00  0.00    -0.091 NA 
ENDBRANCH  20  21
ENDBRANCH  12  15
ENDBRANCH   8   9
ENDBRANCH   6   8
BRANCH   6  27
HETATM   27  C   UNL     1     -10.980  12.772  67.572  1.00  0.00    -0.249 C  
HETATM   28  C   UNL     1     -11.625  12.262  66.245  1.00  0.00    -0.385 C  
HETATM   29  O   UNL     1     -12.616  12.803  65.758  1.00  0.00    -0.562 OA 
HETATM   30  C   UNL     1     -10.160  14.084  67.367  1.00  0.00    -0.244 C  
HETATM   31  O   UNL     1     -11.013  11.271  65.575  1.00  0.00    -0.229 OA 
HETATM   32  C   UNL     1      -8.697  13.888  66.985  1.00  0.00    -0.215 C  
HETATM   33  C   UNL     1     -10.830  15.109  66.450  1.00  0.00    -0.326 C  
ENDBRANCH   6  27
ENDBRANCH   4   5
ENDBRANCH   3   4
ENDBRANCH   2   3
TORSDOF 8
ENDMDL
MODEL      208
REMARK 921   NORMALIZED FREE ENERGY PREDICTED BY IDOCK:   -4.38 KCAL/MOL
REMARK 922        TOTAL FREE ENERGY PREDICTED BY IDOCK:   -6.95 KCAL/MOL
REMARK 923 INTER-LIGAND FREE ENERGY PREDICTED BY IDOCK:   -6.13 KCAL/MOL
REMARK 924 INTRA-LIGAND FREE ENERGY PREDICTED BY IDOCK:   -0.82 KCAL/MOL
REMARK 927      BINDING AFFINITY PREDICTED BY RF-SCORE:    0.00 PKD
ROOT
HETATM    1  C   UNL     1     -12.158  12.830  69.840  1.00  0.00    -0.329 C  
HETATM    2  C   UNL     1     -11.870  12.373  68.425  1.00  0.00    -0.361 C  
ENDROOT
BRANCH   2   3
HETATM    3  C   UNL     1     -11.744  13.540  67.443  1.00  0.00    -0.419 C  
BRANCH   3   4
HETATM    4  C   UNL     1     -10.512  13.327  66.564  1.00  0.00    -0.282 C  
BRANCH   4   5
HETATM    5  C   UNL     1      -9.800  14.602  66.169  1.00  0.00    -0.312 C  
HETATM    6  N   UNL     1      -8.879  15.157  67.056  1.00  0.00    -0.218 N  
HETATM    7  O   UNL     1     -10.047  15.144  65.087  1.00  0.00    -0.347 OA 
BRANCH   6   8
HETATM    8  C   UNL     1      -8.528  14.510  68.354  1.00  0.00    -0.163 C  
BRANCH   8   9
HETATM    9  C   UNL     1      -7.998  13.091  68.234  1.00  0.00    -0.151 A  
HETATM   10  C   UNL     1      -6.952  12.804  67.357  1.00  0.00    -0.132 A  
HETATM   11  C   UNL     1      -6.669  11.477  66.998  1.00  0.00    -0.143 A  
HETATM   12  C   UNL     1      -7.346  10.377  67.555  1.00  0.00    -0.092 A  
HETATM   13  C   UNL     1      -8.557  12.010  68.921  1.00  0.00     0.189 A  
HETATM   14  C   UNL     1      -8.218  10.680  68.612  1.00  0.00    -0.135 A  
BRANCH  12  15
HETATM   15  C   UNL     1      -7.134   8.989  67.020  1.00  0.00    -0.079 A  
HETATM   16  C   UNL     1      -6.293   8.127  67.783  1.00  0.00    -0.053 A  
HETATM   17  C   UNL     1      -5.891   6.863  67.350  1.00  0.00    -0.020 A  
HETATM   18  C   UNL     1      -6.356   6.377  66.141  1.00  0.00    -0.042 A  
HETATM   19  C   UNL     1      -7.220   7.164  65.384  1.00  0.00    -0.070 A  
HETATM   20  C   UNL     1      -7.619   8.466  65.789  1.00  0.00    -0.085 A  
BRANCH  20  21
HETATM   21  C   UNL     1      -8.496   9.147  64.839  1.00  0.00    -0.175 A  
HETATM   22  N   UNL     1      -8.301   9.133  63.503  1.00  0.00    -0.180 NA 
HETATM   23  N   UNL     1      -9.287   9.940  63.096  1.00  0.00    -0.254 NA 
HETATM   24  H   UNL     1      -7.595   8.642  62.956  1.00  0.00     0.000 HD 
HETATM   25  N   UNL     1     -10.081  10.423  64.060  1.00  0.00    -0.251 NA 
HETATM   26  N   UNL     1      -9.560   9.950  65.185  1.00  0.00    -0.284 NA 
ENDBRANCH  20  21
ENDBRANCH  12  15
ENDBRANCH   8   9
ENDBRANCH   6   8
BRANCH   6  27
HETATM   27  C   UNL     1      -8.017  16.317  66.618  1.00  0.00    -0.289 C  
HETATM   28  C   UNL     1      -6.532  16.440  67.085  1.00  0.00    -0.192 C  
HETATM   29  O   UNL     1      -5.664  16.924  66.360  1.00  0.00    -0.330 OA 
HETATM   30  C   UNL     1      -8.762  17.688  66.648  1.00  0.00    -0.286 C  
HETATM   31  O   UNL     1      -6.227  16.097  68.348  1.00  0.00    -0.108 OA 
HETATM   32  C   UNL     1      -9.433  18.039  67.970  1.00  0.00    -0.284 C  
HETATM   33  C   UNL     1      -7.937  18.865  66.124  1.00  0.00    -0.256 C  
ENDBRANCH   6  27
ENDBRANCH   4   5
ENDBRANCH   3   4
ENDBRANCH   2   3
TORSDOF 8
ENDMDL
MODEL      209
REMARK 921   NORMALIZED FREE ENERGY PREDICTED BY IDOCK:   -4.38 KCAL/MOL
REMARK 922        TOTAL FREE ENERGY PREDICTED BY IDOCK:   -6.95 KCAL/MOL
REMARK 923 INTER-LIGAND FREE ENERGY PREDICTED BY IDOCK:   -6.40 KCAL/MOL
REMARK 924 INTRA-LIGAND FREE ENERGY PREDICTED BY IDOCK:   -0.55 KCAL/MOL
REMARK 927      BINDING AFFINITY PREDICTED BY RF-SCORE:    0.00 PKD
ROOT
HETATM    1  C   UNL     1     -12.326  12.296  70.463  1.00  0.00    -0.349 C  
HETATM    2  C   UNL     1     -11.450  11.088  70.204  1.00  0.00    -0.383 C  
ENDROOT
BRANCH   2   3
HETATM    3  C   UNL     1     -11.883  10.301  68.964  1.00  0.00     0.005 C  
BRANCH   3   4
HETATM    4  C   UNL     1     -11.414  11.042  67.711  1.00  0.00    -0.339 C  
BRANCH   4   5
HETATM    5  C   UNL     1      -9.932  11.347  67.686  1.00  0.00    -0.179 C  
HETATM    6  N   UNL     1      -9.092  10.525  66.935  1.00  0.00    -0.146 N  
HETATM    7  O   UNL     1      -9.481  12.297  68.333  1.00  0.00    -0.211 OA 
BRANCH   6   8
HETATM    8  C   UNL     1      -9.608   9.392  66.113  1.00  0.00    -0.247 C  
BRANCH   8   9
HETATM    9  C   UNL     1      -9.578   8.040  66.804  1.00  0.00    -0.281 A  
HETATM   10  C   UNL     1     -10.766   7.429  67.205  1.00  0.00    -0.379 A  
HETATM   11  C   UNL     1     -10.744   6.359  68.114  1.00  0.00    -0.359 A  
HETATM   12  C   UNL     1      -9.550   5.792  68.594  1.00  0.00    -0.154 A  
HETATM   13  C   UNL     1      -8.390   7.380  67.135  1.00  0.00    -0.118 A  
HETATM   14  C   UNL     1      -8.376   6.261  67.987  1.00  0.00    -0.114 A  
BRANCH  12  15
HETATM   15  C   UNL     1      -9.570   4.767  69.693  1.00  0.00    -0.253 A  
HETATM   16  C   UNL     1      -9.222   3.432  69.333  1.00  0.00    -0.222 A  
HETATM   17  C   UNL     1      -9.326   2.348  70.205  1.00  0.00    -0.183 A  
HETATM   18  C   UNL     1      -9.743   2.558  71.506  1.00  0.00    -0.222 A  
HETATM   19  C   UNL     1     -10.047   3.853  71.918  1.00  0.00    -0.204 A  
HETATM   20  C   UNL     1      -9.977   4.968  71.041  1.00  0.00    -0.281 A  
BRANCH  20  21
HETATM   21  C   UNL     1     -10.374   6.236  71.649  1.00  0.00    -0.212 A  
HETATM   22  N   UNL     1      -9.533   7.281  71.808  1.00  0.00    -0.150 NA 
HETATM   23  N   UNL     1     -10.321   8.141  72.464  1.00  0.00    -0.308 NA 
HETATM   24  H   UNL     1      -8.564   7.386  71.509  1.00  0.00     0.000 HD 
HETATM   25  N   UNL     1     -11.572   7.725  72.696  1.00  0.00    -0.359 NA 
HETATM   26  N   UNL     1     -11.605   6.490  72.211  1.00  0.00    -0.292 NA 
ENDBRANCH  20  21
ENDBRANCH  12  15
ENDBRANCH   8   9
ENDBRANCH   6   8
BRANCH   6  27
HETATM   27  C   UNL     1      -7.646  10.910  66.736  1.00  0.00    -0.134 C  
HETATM   28  C   UNL     1      -6.823  10.357  65.529  1.00  0.00    -0.125 C  
HETATM   29  O   UNL     1      -5.953  11.029  64.977  1.00  0.00     0.045 OA 
HETATM   30  C   UNL     1      -6.819  10.920  68.060  1.00  0.00    -0.068 C  
HETATM   31  O   UNL     1      -7.011   9.080  65.157  1.00  0.00    -0.078 OA 
HETATM   32  C   UNL     1      -6.884   9.638  68.882  1.00  0.00    -0.054 C  
HETATM   33  C   UNL     1      -5.373  11.392  67.897  1.00  0.00    -0.044 C  
ENDBRANCH   6  27
ENDBRANCH   4   5
ENDBRANCH   3   4
ENDBRANCH   2   3
TORSDOF 8
ENDMDL
MODEL      210
REMARK 921   NORMALIZED FREE ENERGY PREDICTED BY IDOCK:   -4.37 KCAL/MOL
REMARK 922        TOTAL FREE ENERGY PREDICTED BY IDOCK:   -6.94 KCAL/MOL
REMARK 923 INTER-LIGAND FREE ENERGY PREDICTED BY IDOCK:   -7.23 KCAL/MOL
REMARK 924 INTRA-LIGAND FREE ENERGY PREDICTED BY IDOCK:    0.29 KCAL/MOL
REMARK 927      BINDING AFFINITY PREDICTED BY RF-SCORE:    0.00 PKD
ROOT
HETATM    1  C   UNL     1      -7.636  19.234  67.465  1.00  0.00    -0.265 C  
HETATM    2  C   UNL     1      -8.610  19.166  68.623  1.00  0.00    -0.396 C  
ENDROOT
BRANCH   2   3
HETATM    3  C   UNL     1      -9.744  18.167  68.381  1.00  0.00    -0.363 C  
BRANCH   3   4
HETATM    4  C   UNL     1      -9.239  16.754  68.675  1.00  0.00    -0.257 C  
BRANCH   4   5
HETATM    5  C   UNL     1     -10.267  15.666  68.451  1.00  0.00    -0.222 C  
HETATM    6  N   UNL     1      -9.828  14.352  68.300  1.00  0.00    -0.222 N  
HETATM    7  O   UNL     1     -11.468  15.947  68.389  1.00  0.00    -0.365 OA 
BRANCH   6   8
HETATM    8  C   UNL     1      -8.389  13.971  68.406  1.00  0.00    -0.162 C  
BRANCH   8   9
HETATM    9  C   UNL     1      -8.070  12.560  67.943  1.00  0.00    -0.163 A  
HETATM   10  C   UNL     1      -8.235  12.205  66.604  1.00  0.00    -0.017 A  
HETATM   11  C   UNL     1      -8.257  10.854  66.224  1.00  0.00    -0.165 A  
HETATM   12  C   UNL     1      -8.029   9.804  67.131  1.00  0.00    -0.102 A  
HETATM   13  C   UNL     1      -7.671  11.544  68.817  1.00  0.00    -0.124 A  
HETATM   14  C   UNL     1      -7.621  10.197  68.415  1.00  0.00    -0.087 A  
BRANCH  12  15
HETATM   15  C   UNL     1      -8.230   8.372  66.721  1.00  0.00    -0.102 A  
HETATM   16  C   UNL     1      -7.653   7.972  65.479  1.00  0.00    -0.085 A  
HETATM   17  C   UNL     1      -7.868   6.721  64.900  1.00  0.00    -0.119 A  
HETATM   18  C   UNL     1      -8.639   5.786  65.565  1.00  0.00    -0.151 A  
HETATM   19  C   UNL     1      -9.182   6.114  66.804  1.00  0.00    -0.143 A  
HETATM   20  C   UNL     1      -9.002   7.391  67.401  1.00  0.00    -0.124 A  
BRANCH  20  21
HETATM   21  C   UNL     1      -9.684   7.555  68.683  1.00  0.00    -0.154 A  
HETATM   22  N   UNL     1     -10.791   8.311  68.847  1.00  0.00    -0.428 NA 
HETATM   23  N   UNL     1     -10.973   8.209  70.168  1.00  0.00    -0.245 NA 
HETATM   24  H   UNL     1     -11.337   8.820  68.153  1.00  0.00     0.000 HD 
HETATM   25  N   UNL     1     -10.094   7.437  70.820  1.00  0.00    -0.190 NA 
HETATM   26  N   UNL     1      -9.241   7.043  69.883  1.00  0.00    -0.145 NA 
ENDBRANCH  20  21
ENDBRANCH  12  15
ENDBRANCH   8   9
ENDBRANCH   6   8
BRANCH   6  27
HETATM   27  C   UNL     1     -10.831  13.223  68.264  1.00  0.00    -0.256 C  
HETATM   28  C   UNL     1     -11.889  13.119  67.120  1.00  0.00    -0.369 C  
HETATM   29  O   UNL     1     -12.273  12.032  66.692  1.00  0.00    -0.550 OA 
HETATM   30  C   UNL     1     -11.437  12.889  69.663  1.00  0.00    -0.251 C  
HETATM   31  O   UNL     1     -12.460  14.249  66.672  1.00  0.00    -0.407 OA 
HETATM   32  C   UNL     1     -12.044  14.069  70.412  1.00  0.00    -0.426 C  
HETATM   33  C   UNL     1     -12.388  11.691  69.668  1.00  0.00    -0.172 C  
ENDBRANCH   6  27
ENDBRANCH   4   5
ENDBRANCH   3   4
ENDBRANCH   2   3
TORSDOF 8
ENDMDL
MODEL      211
REMARK 921   NORMALIZED FREE ENERGY PREDICTED BY IDOCK:   -4.37 KCAL/MOL
REMARK 922        TOTAL FREE ENERGY PREDICTED BY IDOCK:   -6.94 KCAL/MOL
REMARK 923 INTER-LIGAND FREE ENERGY PREDICTED BY IDOCK:   -8.11 KCAL/MOL
REMARK 924 INTRA-LIGAND FREE ENERGY PREDICTED BY IDOCK:    1.17 KCAL/MOL
REMARK 927      BINDING AFFINITY PREDICTED BY RF-SCORE:    0.00 PKD
ROOT
HETATM    1  C   UNL     1     -10.942  15.149  70.705  1.00  0.00    -0.253 C  
HETATM    2  C   UNL     1     -11.650  14.246  69.715  1.00  0.00    -0.350 C  
ENDROOT
BRANCH   2   3
HETATM    3  C   UNL     1     -11.697  14.842  68.306  1.00  0.00    -0.340 C  
BRANCH   3   4
HETATM    4  C   UNL     1     -11.775  16.365  68.407  1.00  0.00     0.068 C  
BRANCH   4   5
HETATM    5  C   UNL     1     -10.456  17.072  68.182  1.00  0.00    -0.357 C  
HETATM    6  N   UNL     1      -9.815  16.918  66.954  1.00  0.00    -0.265 N  
HETATM    7  O   UNL     1      -9.956  17.758  69.079  1.00  0.00    -0.327 OA 
BRANCH   6   8
HETATM    8  C   UNL     1     -10.407  16.127  65.836  1.00  0.00    -0.367 C  
BRANCH   8   9
HETATM    9  C   UNL     1      -9.904  14.697  65.732  1.00  0.00    -0.359 A  
HETATM   10  C   UNL     1     -10.449  13.827  64.787  1.00  0.00    -0.448 A  
HETATM   11  C   UNL     1     -10.235  12.444  64.888  1.00  0.00    -0.301 A  
HETATM   12  C   UNL     1      -9.404  11.871  65.868  1.00  0.00    -0.193 A  
HETATM   13  C   UNL     1      -8.945  14.164  66.598  1.00  0.00    -0.193 A  
HETATM   14  C   UNL     1      -8.676  12.784  66.646  1.00  0.00    -0.065 A  
BRANCH  12  15
HETATM   15  C   UNL     1      -9.337  10.381  66.048  1.00  0.00    -0.219 A  
HETATM   16  C   UNL     1      -8.533   9.656  65.120  1.00  0.00    -0.159 A  
HETATM   17  C   UNL     1      -8.480   8.263  65.072  1.00  0.00    -0.141 A  
HETATM   18  C   UNL     1      -9.200   7.522  65.990  1.00  0.00    -0.102 A  
HETATM   19  C   UNL     1      -9.962   8.187  66.948  1.00  0.00    -0.343 A  
HETATM   20  C   UNL     1     -10.055   9.603  66.999  1.00  0.00    -0.275 A  
BRANCH  20  21
HETATM   21  C   UNL     1     -10.935  10.109  68.050  1.00  0.00    -0.270 A  
HETATM   22  N   UNL     1     -10.807   9.777  69.352  1.00  0.00    -0.231 NA 
HETATM   23  N   UNL     1     -11.863  10.408  69.878  1.00  0.00    -0.255 NA 
HETATM   24  H   UNL     1     -10.100   9.202  69.809  1.00  0.00     0.000 HD 
HETATM   25  N   UNL     1     -12.606  11.117  69.020  1.00  0.00    -0.230 NA 
HETATM   26  N   UNL     1     -12.042  10.902  67.838  1.00  0.00    -0.294 NA 
ENDBRANCH  20  21
ENDBRANCH  12  15
ENDBRANCH   8   9
ENDBRANCH   6   8
BRANCH   6  27
HETATM   27  C   UNL     1      -8.600  17.754  66.628  1.00  0.00    -0.258 C  
HETATM   28  C   UNL     1      -7.342  17.745  67.553  1.00  0.00    -0.198 C  
HETATM   29  O   UNL     1      -6.205  17.862  67.099  1.00  0.00    -0.146 OA 
HETATM   30  C   UNL     1      -8.954  19.188  66.124  1.00  0.00    -0.232 C  
HETATM   31  O   UNL     1      -7.525  17.707  68.883  1.00  0.00    -0.262 OA 
HETATM   32  C   UNL     1      -9.881  19.990  67.030  1.00  0.00    -0.566 C  
HETATM   33  C   UNL     1      -7.744  20.025  65.704  1.00  0.00    -0.175 C  
ENDBRANCH   6  27
ENDBRANCH   4   5
ENDBRANCH   3   4
ENDBRANCH   2   3
TORSDOF 8
ENDMDL
MODEL      212
REMARK 921   NORMALIZED FREE ENERGY PREDICTED BY IDOCK:   -4.37 KCAL/MOL
REMARK 922        TOTAL FREE ENERGY PREDICTED BY IDOCK:   -6.93 KCAL/MOL
REMARK 923 INTER-LIGAND FREE ENERGY PREDICTED BY IDOCK:   -6.86 KCAL/MOL
REMARK 924 INTRA-LIGAND FREE ENERGY PREDICTED BY IDOCK:   -0.07 KCAL/MOL
REMARK 927      BINDING AFFINITY PREDICTED BY RF-SCORE:    0.00 PKD
ROOT
HETATM    1  C   UNL     1     -11.187  14.531  66.324  1.00  0.00    -0.342 C  
HETATM    2  C   UNL     1     -10.531  15.013  65.046  1.00  0.00    -0.415 C  
ENDROOT
BRANCH   2   3
HETATM    3  C   UNL     1     -10.663  16.526  64.852  1.00  0.00    -0.168 C  
BRANCH   3   4
HETATM    4  C   UNL     1     -10.399  17.228  66.184  1.00  0.00    -0.320 C  
BRANCH   4   5
HETATM    5  C   UNL     1      -9.002  17.795  66.322  1.00  0.00    -0.174 C  
HETATM    6  N   UNL     1      -8.580  18.233  67.576  1.00  0.00    -0.248 N  
HETATM    7  O   UNL     1      -8.264  17.879  65.337  1.00  0.00     0.011 OA 
BRANCH   6   8
HETATM    8  C   UNL     1      -9.431  18.113  68.796  1.00  0.00    -0.272 C  
BRANCH   8   9
HETATM    9  C   UNL     1     -10.078  16.751  68.987  1.00  0.00    -0.283 A  
HETATM   10  C   UNL     1     -11.460  16.606  68.867  1.00  0.00    -0.023 A  
HETATM   11  C   UNL     1     -12.098  15.453  69.348  1.00  0.00    -0.308 A  
HETATM   12  C   UNL     1     -11.394  14.360  69.885  1.00  0.00    -0.273 A  
HETATM   13  C   UNL     1      -9.356  15.612  69.355  1.00  0.00    -0.279 A  
HETATM   14  C   UNL     1      -9.997  14.429  69.766  1.00  0.00     0.420 A  
BRANCH  12  15
HETATM   15  C   UNL     1     -12.120  13.221  70.544  1.00  0.00    -0.391 A  
HETATM   16  C   UNL     1     -12.845  13.524  71.734  1.00  0.00    -0.399 A  
HETATM   17  C   UNL     1     -13.453  12.554  72.531  1.00  0.00    -0.182 A  
HETATM   18  C   UNL     1     -13.406  11.227  72.145  1.00  0.00    -0.263 A  
HETATM   19  C   UNL     1     -12.752  10.889  70.963  1.00  0.00    -0.505 A  
HETATM   20  C   UNL     1     -12.099  11.855  70.150  1.00  0.00    -0.382 A  
BRANCH  20  21
HETATM   21  C   UNL     1     -11.436  11.298  68.973  1.00  0.00    -0.302 A  
HETATM   22  N   UNL     1     -10.212  10.730  69.007  1.00  0.00    -0.206 NA 
HETATM   23  N   UNL     1     -10.021  10.463  67.711  1.00  0.00    -0.171 NA 
HETATM   24  H   UNL     1      -9.600  10.553  69.804  1.00  0.00     0.000 HD 
HETATM   25  N   UNL     1     -11.029  10.793  66.893  1.00  0.00    -0.231 NA 
HETATM   26  N   UNL     1     -11.926  11.363  67.688  1.00  0.00    -0.626 NA 
ENDBRANCH  20  21
ENDBRANCH  12  15
ENDBRANCH   8   9
ENDBRANCH   6   8
BRANCH   6  27
HETATM   27  C   UNL     1      -7.137  18.627  67.789  1.00  0.00    -0.220 C  
HETATM   28  C   UNL     1      -6.448  18.445  69.179  1.00  0.00    -0.260 C  
HETATM   29  O   UNL     1      -5.256  18.158  69.277  1.00  0.00    -0.181 OA 
HETATM   30  C   UNL     1      -6.758  19.981  67.112  1.00  0.00    -0.244 C  
HETATM   31  O   UNL     1      -7.161  18.711  70.286  1.00  0.00     0.618 OA 
HETATM   32  C   UNL     1      -7.653  21.163  67.468  1.00  0.00    -0.058 C  
HETATM   33  C   UNL     1      -5.281  20.358  67.239  1.00  0.00    -0.184 C  
ENDBRANCH   6  27
ENDBRANCH   4   5
ENDBRANCH   3   4
ENDBRANCH   2   3
TORSDOF 8
ENDMDL
MODEL      213
REMARK 921   NORMALIZED FREE ENERGY PREDICTED BY IDOCK:   -4.35 KCAL/MOL
REMARK 922        TOTAL FREE ENERGY PREDICTED BY IDOCK:   -6.91 KCAL/MOL
REMARK 923 INTER-LIGAND FREE ENERGY PREDICTED BY IDOCK:   -7.48 KCAL/MOL
REMARK 924 INTRA-LIGAND FREE ENERGY PREDICTED BY IDOCK:    0.57 KCAL/MOL
REMARK 927      BINDING AFFINITY PREDICTED BY RF-SCORE:    0.00 PKD
ROOT
HETATM    1  C   UNL     1     -13.102  12.172  63.978  1.00  0.00    -0.167 C  
HETATM    2  C   UNL     1     -11.759  11.615  63.553  1.00  0.00    -0.384 C  
ENDROOT
BRANCH   2   3
HETATM    3  C   UNL     1     -10.837  11.330  64.741  1.00  0.00    -0.314 C  
BRANCH   3   4
HETATM    4  C   UNL     1      -9.715  12.368  64.765  1.00  0.00     0.001 C  
BRANCH   4   5
HETATM    5  C   UNL     1      -9.839  13.393  65.872  1.00  0.00    -0.238 C  
HETATM    6  N   UNL     1      -9.278  13.107  67.115  1.00  0.00    -0.219 N  
HETATM    7  O   UNL     1     -10.442  14.452  65.674  1.00  0.00    -0.300 OA 
BRANCH   6   8
HETATM    8  C   UNL     1      -8.511  11.854  67.378  1.00  0.00    -0.166 C  
BRANCH   8   9
HETATM    9  C   UNL     1      -9.001  11.047  68.569  1.00  0.00    -0.163 A  
HETATM   10  C   UNL     1      -8.088  10.428  69.422  1.00  0.00    -0.161 A  
HETATM   11  C   UNL     1      -8.513   9.434  70.317  1.00  0.00    -0.237 A  
HETATM   12  C   UNL     1      -9.863   9.073  70.470  1.00  0.00    -0.263 A  
HETATM   13  C   UNL     1     -10.356  10.825  68.831  1.00  0.00    -0.220 A  
HETATM   14  C   UNL     1     -10.782   9.880  69.783  1.00  0.00    -0.298 A  
BRANCH  12  15
HETATM   15  C   UNL     1     -10.256   7.890  71.309  1.00  0.00    -0.218 A  
HETATM   16  C   UNL     1     -10.438   8.123  72.704  1.00  0.00    -0.401 A  
HETATM   17  C   UNL     1     -10.667   7.105  73.630  1.00  0.00    -0.302 A  
HETATM   18  C   UNL     1     -10.773   5.798  73.193  1.00  0.00    -0.292 A  
HETATM   19  C   UNL     1     -10.652   5.527  71.833  1.00  0.00    -0.293 A  
HETATM   20  C   UNL     1     -10.389   6.542  70.874  1.00  0.00    -0.243 A  
BRANCH  20  21
HETATM   21  C   UNL     1     -10.256   6.053  69.504  1.00  0.00    -0.208 A  
HETATM   22  N   UNL     1     -10.441   6.829  68.415  1.00  0.00    -0.190 NA 
HETATM   23  N   UNL     1     -10.294   5.930  67.436  1.00  0.00    -0.193 NA 
HETATM   24  H   UNL     1     -10.638   7.828  68.355  1.00  0.00     0.000 HD 
HETATM   25  N   UNL     1     -10.010   4.682  67.828  1.00  0.00    -0.128 NA 
HETATM   26  N   UNL     1     -10.020   4.742  69.154  1.00  0.00    -0.187 NA 
ENDBRANCH  20  21
ENDBRANCH  12  15
ENDBRANCH   8   9
ENDBRANCH   6   8
BRANCH   6  27
HETATM   27  C   UNL     1      -9.218  14.178  68.178  1.00  0.00    -0.194 C  
HETATM   28  C   UNL     1     -10.516  14.701  68.871  1.00  0.00    -0.248 C  
HETATM   29  O   UNL     1     -10.525  15.050  70.050  1.00  0.00    -0.205 OA 
HETATM   30  C   UNL     1      -8.222  15.331  67.841  1.00  0.00    -0.151 C  
HETATM   31  O   UNL     1     -11.620  14.863  68.123  1.00  0.00    -0.315 OA 
HETATM   32  C   UNL     1      -8.422  15.991  66.481  1.00  0.00    -0.348 C  
HETATM   33  C   UNL     1      -8.078  16.383  68.942  1.00  0.00    -0.236 C  
ENDBRANCH   6  27
ENDBRANCH   4   5
ENDBRANCH   3   4
ENDBRANCH   2   3
TORSDOF 8
ENDMDL
MODEL      214
REMARK 921   NORMALIZED FREE ENERGY PREDICTED BY IDOCK:   -4.34 KCAL/MOL
REMARK 922        TOTAL FREE ENERGY PREDICTED BY IDOCK:   -6.89 KCAL/MOL
REMARK 923 INTER-LIGAND FREE ENERGY PREDICTED BY IDOCK:   -7.21 KCAL/MOL
REMARK 924 INTRA-LIGAND FREE ENERGY PREDICTED BY IDOCK:    0.32 KCAL/MOL
REMARK 927      BINDING AFFINITY PREDICTED BY RF-SCORE:    0.00 PKD
ROOT
HETATM    1  C   UNL     1      -7.104   6.914  66.123  1.00  0.00    -0.073 C  
HETATM    2  C   UNL     1      -8.524   6.951  65.596  1.00  0.00    -0.141 C  
ENDROOT
BRANCH   2   3
HETATM    3  C   UNL     1      -9.332   8.121  66.161  1.00  0.00    -0.232 C  
BRANCH   3   4
HETATM    4  C   UNL     1      -8.887   9.415  65.478  1.00  0.00    -0.220 C  
BRANCH   4   5
HETATM    5  C   UNL     1      -9.686  10.636  65.878  1.00  0.00    -0.223 C  
HETATM    6  N   UNL     1      -9.242  11.404  66.954  1.00  0.00    -0.172 N  
HETATM    7  O   UNL     1     -10.718  10.932  65.268  1.00  0.00    -0.225 OA 
BRANCH   6   8
HETATM    8  C   UNL     1      -7.980  11.097  67.689  1.00  0.00    -0.116 C  
BRANCH   8   9
HETATM    9  C   UNL     1      -8.138  10.120  68.842  1.00  0.00    -0.117 A  
HETATM   10  C   UNL     1      -7.220   9.084  69.016  1.00  0.00    -0.072 A  
HETATM   11  C   UNL     1      -7.520   8.003  69.858  1.00  0.00    -0.078 A  
HETATM   12  C   UNL     1      -8.694   7.941  70.630  1.00  0.00    -0.135 A  
HETATM   13  C   UNL     1      -9.219  10.157  69.727  1.00  0.00    -0.175 A  
HETATM   14  C   UNL     1      -9.477   9.105  70.626  1.00  0.00    -0.316 A  
BRANCH  12  15
HETATM   15  C   UNL     1      -9.057   6.693  71.385  1.00  0.00    -0.143 A  
HETATM   16  C   UNL     1      -8.032   5.715  71.541  1.00  0.00    -0.117 A  
HETATM   17  C   UNL     1      -8.251   4.452  72.093  1.00  0.00    -0.107 A  
HETATM   18  C   UNL     1      -9.509   4.124  72.564  1.00  0.00    -0.175 A  
HETATM   19  C   UNL     1     -10.531   5.067  72.479  1.00  0.00    -0.270 A  
HETATM   20  C   UNL     1     -10.339   6.347  71.893  1.00  0.00    -0.228 A  
BRANCH  20  21
HETATM   21  C   UNL     1     -11.542   7.178  71.861  1.00  0.00    -0.278 A  
HETATM   22  N   UNL     1     -11.864   8.059  72.832  1.00  0.00    -0.587 NA 
HETATM   23  N   UNL     1     -13.052   8.492  72.395  1.00  0.00    -0.328 NA 
HETATM   24  H   UNL     1     -11.344   8.321  73.669  1.00  0.00     0.000 HD 
HETATM   25  N   UNL     1     -13.470   7.975  71.233  1.00  0.00    -0.195 NA 
HETATM   26  N   UNL     1     -12.525   7.103  70.900  1.00  0.00    -0.311 NA 
ENDBRANCH  20  21
ENDBRANCH  12  15
ENDBRANCH   8   9
ENDBRANCH   6   8
BRANCH   6  27
HETATM   27  C   UNL     1      -9.904  12.726  67.258  1.00  0.00    -0.207 C  
HETATM   28  C   UNL     1     -11.305  12.788  67.946  1.00  0.00    -0.293 C  
HETATM   29  O   UNL     1     -11.602  13.689  68.728  1.00  0.00    -0.276 OA 
HETATM   30  C   UNL     1      -9.764  13.769  66.106  1.00  0.00    -0.280 C  
HETATM   31  O   UNL     1     -12.234  11.885  67.589  1.00  0.00    -0.510 OA 
HETATM   32  C   UNL     1     -10.219  13.291  64.732  1.00  0.00    -0.323 C  
HETATM   33  C   UNL     1     -10.350  15.146  66.426  1.00  0.00    -0.292 C  
ENDBRANCH   6  27
ENDBRANCH   4   5
ENDBRANCH   3   4
ENDBRANCH   2   3
TORSDOF 8
ENDMDL
MODEL      215
REMARK 921   NORMALIZED FREE ENERGY PREDICTED BY IDOCK:   -4.31 KCAL/MOL
REMARK 922        TOTAL FREE ENERGY PREDICTED BY IDOCK:   -6.85 KCAL/MOL
REMARK 923 INTER-LIGAND FREE ENERGY PREDICTED BY IDOCK:   -7.60 KCAL/MOL
REMARK 924 INTRA-LIGAND FREE ENERGY PREDICTED BY IDOCK:    0.75 KCAL/MOL
REMARK 927      BINDING AFFINITY PREDICTED BY RF-SCORE:    0.00 PKD
ROOT
HETATM    1  C   UNL     1      -6.402  14.151  70.230  1.00  0.00    -0.121 C  
HETATM    2  C   UNL     1      -5.993  12.928  69.434  1.00  0.00    -0.103 C  
ENDROOT
BRANCH   2   3
HETATM    3  C   UNL     1      -7.053  12.509  68.413  1.00  0.00    -0.107 C  
BRANCH   3   4
HETATM    4  C   UNL     1      -8.274  13.417  68.556  1.00  0.00    -0.093 C  
BRANCH   4   5
HETATM    5  C   UNL     1      -9.095  13.561  67.293  1.00  0.00    -0.225 C  
HETATM    6  N   UNL     1     -10.481  13.439  67.378  1.00  0.00    -0.243 N  
HETATM    7  O   UNL     1      -8.540  13.766  66.209  1.00  0.00     0.218 OA 
BRANCH   6   8
HETATM    8  C   UNL     1     -11.188  13.229  68.675  1.00  0.00    -0.274 C  
BRANCH   8   9
HETATM    9  C   UNL     1     -11.322  11.775  69.097  1.00  0.00    -0.340 A  
HETATM   10  C   UNL     1     -12.064  11.438  70.229  1.00  0.00    -0.459 A  
HETATM   11  C   UNL     1     -11.936  10.167  70.811  1.00  0.00    -0.442 A  
HETATM   12  C   UNL     1     -11.142   9.150  70.251  1.00  0.00    -0.272 A  
HETATM   13  C   UNL     1     -10.671  10.729  68.439  1.00  0.00    -0.255 A  
HETATM   14  C   UNL     1     -10.606   9.434  68.985  1.00  0.00    -0.233 A  
BRANCH  12  15
HETATM   15  C   UNL     1     -10.896   7.866  70.992  1.00  0.00    -0.253 A  
HETATM   16  C   UNL     1     -11.002   7.914  72.413  1.00  0.00    -0.386 A  
HETATM   17  C   UNL     1     -10.670   6.844  73.245  1.00  0.00    -0.349 A  
HETATM   18  C   UNL     1     -10.259   5.648  72.686  1.00  0.00    -0.216 A  
HETATM   19  C   UNL     1     -10.188   5.539  71.300  1.00  0.00    -0.283 A  
HETATM   20  C   UNL     1     -10.492   6.622  70.433  1.00  0.00    -0.249 A  
BRANCH  20  21
HETATM   21  C   UNL     1     -10.319   6.322  69.013  1.00  0.00    -0.206 A  
HETATM   22  N   UNL     1     -11.343   6.260  68.136  1.00  0.00    -0.514 NA 
HETATM   23  N   UNL     1     -10.701   5.884  67.024  1.00  0.00    -0.305 NA 
HETATM   24  H   UNL     1     -12.335   6.447  68.281  1.00  0.00     0.000 HD 
HETATM   25  N   UNL     1      -9.374   5.738  67.139  1.00  0.00    -0.114 NA 
HETATM   26  N   UNL     1      -9.125   5.980  68.419  1.00  0.00    -0.113 NA 
ENDBRANCH  20  21
ENDBRANCH  12  15
ENDBRANCH   8   9
ENDBRANCH   6   8
BRANCH   6  27
HETATM   27  C   UNL     1     -11.340  13.763  66.179  1.00  0.00    -0.314 C  
HETATM   28  C   UNL     1     -11.321  12.859  64.905  1.00  0.00    -0.307 C  
HETATM   29  O   UNL     1     -12.329  12.682  64.222  1.00  0.00    -0.411 OA 
HETATM   30  C   UNL     1     -11.364  15.283  65.826  1.00  0.00    -0.180 C  
HETATM   31  O   UNL     1     -10.146  12.349  64.500  1.00  0.00    -0.291 OA 
HETATM   32  C   UNL     1      -9.998  15.934  65.648  1.00  0.00    -0.368 C  
HETATM   33  C   UNL     1     -12.297  15.647  64.669  1.00  0.00     0.208 C  
ENDBRANCH   6  27
ENDBRANCH   4   5
ENDBRANCH   3   4
ENDBRANCH   2   3
TORSDOF 8
ENDMDL
MODEL      216
REMARK 921   NORMALIZED FREE ENERGY PREDICTED BY IDOCK:   -4.30 KCAL/MOL
REMARK 922        TOTAL FREE ENERGY PREDICTED BY IDOCK:   -6.84 KCAL/MOL
REMARK 923 INTER-LIGAND FREE ENERGY PREDICTED BY IDOCK:   -6.77 KCAL/MOL
REMARK 924 INTRA-LIGAND FREE ENERGY PREDICTED BY IDOCK:   -0.07 KCAL/MOL
REMARK 927      BINDING AFFINITY PREDICTED BY RF-SCORE:    0.00 PKD
ROOT
HETATM    1  C   UNL     1      -9.714   5.570  70.797  1.00  0.00    -0.232 C  
HETATM    2  C   UNL     1     -10.825   5.979  69.850  1.00  0.00    -0.434 C  
ENDROOT
BRANCH   2   3
HETATM    3  C   UNL     1     -10.489   5.682  68.387  1.00  0.00    -0.263 C  
BRANCH   3   4
HETATM    4  C   UNL     1      -9.223   6.446  67.998  1.00  0.00    -0.110 C  
BRANCH   4   5
HETATM    5  C   UNL     1      -9.043   6.635  66.507  1.00  0.00    -0.149 C  
HETATM    6  N   UNL     1      -8.391   7.780  66.052  1.00  0.00    -0.126 N  
HETATM    7  O   UNL     1      -9.481   5.795  65.715  1.00  0.00    -0.102 OA 
BRANCH   6   8
HETATM    8  C   UNL     1      -7.816   8.796  66.980  1.00  0.00    -0.095 C  
BRANCH   8   9
HETATM    9  C   UNL     1      -8.785   9.885  67.409  1.00  0.00    -0.129 A  
HETATM   10  C   UNL     1      -8.309  11.058  67.996  1.00  0.00    -0.125 A  
HETATM   11  C   UNL     1      -9.184  11.916  68.680  1.00  0.00    -0.066 A  
HETATM   12  C   UNL     1     -10.573  11.701  68.737  1.00  0.00    -0.241 A  
HETATM   13  C   UNL     1     -10.173   9.751  67.309  1.00  0.00    -0.289 A  
HETATM   14  C   UNL     1     -11.052  10.655  67.933  1.00  0.00    -0.371 A  
BRANCH  12  15
HETATM   15  C   UNL     1     -11.449  12.544  69.620  1.00  0.00    -0.255 A  
HETATM   16  C   UNL     1     -12.189  11.864  70.631  1.00  0.00    -0.424 A  
HETATM   17  C   UNL     1     -13.145  12.486  71.434  1.00  0.00    -0.303 A  
HETATM   18  C   UNL     1     -13.373  13.843  71.295  1.00  0.00    -0.314 A  
HETATM   19  C   UNL     1     -12.638  14.559  70.354  1.00  0.00    -0.405 A  
HETATM   20  C   UNL     1     -11.681  13.943  69.504  1.00  0.00    -0.369 A  
BRANCH  20  21
HETATM   21  C   UNL     1     -11.044  14.856  68.557  1.00  0.00    -0.266 A  
HETATM   22  N   UNL     1     -11.515  15.086  67.313  1.00  0.00    -0.333 NA 
HETATM   23  N   UNL     1     -10.569  15.900  66.832  1.00  0.00    -0.314 NA 
HETATM   24  H   UNL     1     -12.360  14.734  66.863  1.00  0.00     0.000 HD 
HETATM   25  N   UNL     1      -9.579  16.209  67.679  1.00  0.00    -0.222 NA 
HETATM   26  N   UNL     1      -9.855  15.515  68.776  1.00  0.00    -0.208 NA 
ENDBRANCH  20  21
ENDBRANCH  12  15
ENDBRANCH   8   9
ENDBRANCH   6   8
BRANCH   6  27
HETATM   27  C   UNL     1      -8.029   7.909  64.591  1.00  0.00    -0.143 C  
HETATM   28  C   UNL     1      -7.323   6.743  63.829  1.00  0.00    -0.079 C  
HETATM   29  O   UNL     1      -7.545   6.520  62.640  1.00  0.00    -0.068 OA 
HETATM   30  C   UNL     1      -7.433   9.303  64.222  1.00  0.00    -0.107 C  
HETATM   31  O   UNL     1      -6.379   6.036  64.472  1.00  0.00    -0.032 OA 
HETATM   32  C   UNL     1      -6.249   9.754  65.070  1.00  0.00    -0.094 C  
HETATM   33  C   UNL     1      -7.140   9.489  62.732  1.00  0.00    -0.103 C  
ENDBRANCH   6  27
ENDBRANCH   4   5
ENDBRANCH   3   4
ENDBRANCH   2   3
TORSDOF 8
ENDMDL
MODEL      217
REMARK 921   NORMALIZED FREE ENERGY PREDICTED BY IDOCK:   -4.30 KCAL/MOL
REMARK 922        TOTAL FREE ENERGY PREDICTED BY IDOCK:   -6.84 KCAL/MOL
REMARK 923 INTER-LIGAND FREE ENERGY PREDICTED BY IDOCK:   -7.19 KCAL/MOL
REMARK 924 INTRA-LIGAND FREE ENERGY PREDICTED BY IDOCK:    0.35 KCAL/MOL
REMARK 927      BINDING AFFINITY PREDICTED BY RF-SCORE:    0.00 PKD
ROOT
HETATM    1  C   UNL     1      -9.073   2.649  68.144  1.00  0.00    -0.229 C  
HETATM    2  C   UNL     1      -9.530   4.091  68.221  1.00  0.00    -0.216 C  
ENDROOT
BRANCH   2   3
HETATM    3  C   UNL     1      -9.930   4.655  66.855  1.00  0.00    -0.239 C  
BRANCH   3   4
HETATM    4  C   UNL     1      -9.068   5.879  66.545  1.00  0.00    -0.149 C  
BRANCH   4   5
HETATM    5  C   UNL     1      -8.645   6.668  67.766  1.00  0.00    -0.121 C  
HETATM    6  N   UNL     1      -9.381   7.796  68.122  1.00  0.00    -0.145 N  
HETATM    7  O   UNL     1      -7.655   6.321  68.418  1.00  0.00    -0.092 OA 
BRANCH   6   8
HETATM    8  C   UNL     1     -10.603   8.222  67.379  1.00  0.00    -0.253 C  
BRANCH   8   9
HETATM    9  C   UNL     1     -10.656   9.701  67.038  1.00  0.00    -0.267 A  
HETATM   10  C   UNL     1      -9.984  10.189  65.917  1.00  0.00    -0.334 A  
HETATM   11  C   UNL     1      -9.754  11.565  65.768  1.00  0.00    -0.263 A  
HETATM   12  C   UNL     1     -10.253  12.522  66.669  1.00  0.00    -0.243 A  
HETATM   13  C   UNL     1     -11.302  10.645  67.842  1.00  0.00    -0.342 A  
HETATM   14  C   UNL     1     -11.131  12.028  67.646  1.00  0.00    -0.319 A  
BRANCH  12  15
HETATM   15  C   UNL     1      -9.843  13.964  66.569  1.00  0.00    -0.296 A  
HETATM   16  C   UNL     1     -10.756  14.850  65.925  1.00  0.00    -0.329 A  
HETATM   17  C   UNL     1     -10.459  16.182  65.634  1.00  0.00    -0.402 A  
HETATM   18  C   UNL     1      -9.241  16.709  66.022  1.00  0.00    -0.263 A  
HETATM   19  C   UNL     1      -8.336  15.895  66.699  1.00  0.00    -0.328 A  
HETATM   20  C   UNL     1      -8.603  14.528  66.980  1.00  0.00    -0.241 A  
BRANCH  20  21
HETATM   21  C   UNL     1      -7.514  13.832  67.662  1.00  0.00    -0.178 A  
HETATM   22  N   UNL     1      -6.642  13.016  67.032  1.00  0.00    -0.453 NA 
HETATM   23  N   UNL     1      -5.917  12.575  68.066  1.00  0.00    -0.071 NA 
HETATM   24  H   UNL     1      -6.560  12.796  66.040  1.00  0.00     0.000 HD 
HETATM   25  N   UNL     1      -6.250  13.070  69.265  1.00  0.00    -0.098 NA 
HETATM   26  N   UNL     1      -7.297  13.849  69.022  1.00  0.00    -0.092 NA 
ENDBRANCH  20  21
ENDBRANCH  12  15
ENDBRANCH   8   9
ENDBRANCH   6   8
BRANCH   6  27
HETATM   27  C   UNL     1      -9.104   8.493  69.433  1.00  0.00    -0.150 C  
HETATM   28  C   UNL     1      -7.672   9.005  69.787  1.00  0.00    -0.077 C  
HETATM   29  O   UNL     1      -7.495  10.027  70.448  1.00  0.00    -0.212 OA 
HETATM   30  C   UNL     1      -9.811   7.823  70.652  1.00  0.00    -0.182 C  
HETATM   31  O   UNL     1      -6.617   8.248  69.442  1.00  0.00    -0.040 OA 
HETATM   32  C   UNL     1      -9.554   6.330  70.819  1.00  0.00    -0.193 C  
HETATM   33  C   UNL     1      -9.617   8.562  71.978  1.00  0.00    -0.371 C  
ENDBRANCH   6  27
ENDBRANCH   4   5
ENDBRANCH   3   4
ENDBRANCH   2   3
TORSDOF 8
ENDMDL
MODEL      218
REMARK 921   NORMALIZED FREE ENERGY PREDICTED BY IDOCK:   -4.30 KCAL/MOL
REMARK 922        TOTAL FREE ENERGY PREDICTED BY IDOCK:   -6.83 KCAL/MOL
REMARK 923 INTER-LIGAND FREE ENERGY PREDICTED BY IDOCK:   -7.44 KCAL/MOL
REMARK 924 INTRA-LIGAND FREE ENERGY PREDICTED BY IDOCK:    0.60 KCAL/MOL
REMARK 927      BINDING AFFINITY PREDICTED BY RF-SCORE:    0.00 PKD
ROOT
HETATM    1  C   UNL     1     -13.807  14.221  71.684  1.00  0.00    -0.473 C  
HETATM    2  C   UNL     1     -12.368  14.212  71.208  1.00  0.00    -0.447 C  
ENDROOT
BRANCH   2   3
HETATM    3  C   UNL     1     -12.170  15.009  69.917  1.00  0.00    -0.351 C  
BRANCH   3   4
HETATM    4  C   UNL     1     -10.749  14.783  69.400  1.00  0.00    -0.250 C  
BRANCH   4   5
HETATM    5  C   UNL     1     -10.627  14.785  67.891  1.00  0.00    -0.248 C  
HETATM    6  N   UNL     1     -11.104  13.685  67.180  1.00  0.00    -0.292 N  
HETATM    7  O   UNL     1     -10.101  15.738  67.310  1.00  0.00    -0.240 OA 
BRANCH   6   8
HETATM    8  C   UNL     1     -11.780  12.533  67.846  1.00  0.00    -0.359 C  
BRANCH   8   9
HETATM    9  C   UNL     1     -10.845  11.423  68.298  1.00  0.00    -0.253 A  
HETATM   10  C   UNL     1      -9.495  11.454  67.947  1.00  0.00    -0.174 A  
HETATM   11  C   UNL     1      -8.701  10.304  68.073  1.00  0.00    -0.122 A  
HETATM   12  C   UNL     1      -9.180   9.105  68.631  1.00  0.00    -0.136 A  
HETATM   13  C   UNL     1     -11.283  10.302  69.009  1.00  0.00    -0.260 A  
HETATM   14  C   UNL     1     -10.460   9.177  69.201  1.00  0.00    -0.230 A  
BRANCH  12  15
HETATM   15  C   UNL     1      -8.353   7.851  68.591  1.00  0.00    -0.128 A  
HETATM   16  C   UNL     1      -8.306   7.072  69.784  1.00  0.00    -0.132 A  
HETATM   17  C   UNL     1      -7.477   5.962  69.946  1.00  0.00    -0.079 A  
HETATM   18  C   UNL     1      -6.684   5.545  68.894  1.00  0.00    -0.053 A  
HETATM   19  C   UNL     1      -6.734   6.244  67.690  1.00  0.00    -0.061 A  
HETATM   20  C   UNL     1      -7.547   7.395  67.511  1.00  0.00    -0.106 A  
BRANCH  20  21
HETATM   21  C   UNL     1      -7.430   8.012  66.191  1.00  0.00    -0.075 A  
HETATM   22  N   UNL     1      -8.413   7.982  65.266  1.00  0.00    -0.238 NA 
HETATM   23  N   UNL     1      -7.810   8.589  64.238  1.00  0.00    -0.134 NA 
HETATM   24  H   UNL     1      -9.356   7.600  65.333  1.00  0.00     0.000 HD 
HETATM   25  N   UNL     1      -6.559   9.011  64.461  1.00  0.00    -0.074 NA 
HETATM   26  N   UNL     1      -6.293   8.613  65.699  1.00  0.00    -0.055 NA 
ENDBRANCH  20  21
ENDBRANCH  12  15
ENDBRANCH   8   9
ENDBRANCH   6   8
BRANCH   6  27
HETATM   27  C   UNL     1     -11.171  13.734  65.672  1.00  0.00    -0.302 C  
HETATM   28  C   UNL     1     -12.388  14.383  64.940  1.00  0.00    -0.405 C  
HETATM   29  O   UNL     1     -12.256  14.984  63.875  1.00  0.00    -0.576 OA 
HETATM   30  C   UNL     1     -10.703  12.412  64.988  1.00  0.00    -0.329 C  
HETATM   31  O   UNL     1     -13.618  14.186  65.444  1.00  0.00    -0.568 OA 
HETATM   32  C   UNL     1     -11.395  11.144  65.474  1.00  0.00     0.129 C  
HETATM   33  C   UNL     1     -10.678  12.468  63.459  1.00  0.00    -0.417 C  
ENDBRANCH   6  27
ENDBRANCH   4   5
ENDBRANCH   3   4
ENDBRANCH   2   3
TORSDOF 8
ENDMDL
MODEL      219
REMARK 921   NORMALIZED FREE ENERGY PREDICTED BY IDOCK:   -4.30 KCAL/MOL
REMARK 922        TOTAL FREE ENERGY PREDICTED BY IDOCK:   -6.83 KCAL/MOL
REMARK 923 INTER-LIGAND FREE ENERGY PREDICTED BY IDOCK:   -6.51 KCAL/MOL
REMARK 924 INTRA-LIGAND FREE ENERGY PREDICTED BY IDOCK:   -0.32 KCAL/MOL
REMARK 927      BINDING AFFINITY PREDICTED BY RF-SCORE:    0.00 PKD
ROOT
HETATM    1  C   UNL     1     -11.247   6.619  67.277  1.00  0.00    -0.304 C  
HETATM    2  C   UNL     1      -9.899   6.645  66.587  1.00  0.00    -0.208 C  
ENDROOT
BRANCH   2   3
HETATM    3  C   UNL     1      -9.040   5.424  66.926  1.00  0.00    -0.114 C  
BRANCH   3   4
HETATM    4  C   UNL     1      -7.913   5.849  67.868  1.00  0.00    -0.105 C  
BRANCH   4   5
HETATM    5  C   UNL     1      -8.256   5.741  69.338  1.00  0.00    -0.108 C  
HETATM    6  N   UNL     1      -8.005   6.834  70.166  1.00  0.00    -0.110 N  
HETATM    7  O   UNL     1      -8.734   4.696  69.791  1.00  0.00    -0.079 OA 
BRANCH   6   8
HETATM    8  C   UNL     1      -7.463   8.124  69.647  1.00  0.00    -0.086 C  
BRANCH   8   9
HETATM    9  C   UNL     1      -8.480   8.997  68.930  1.00  0.00    -0.130 A  
HETATM   10  C   UNL     1      -8.258   9.396  67.612  1.00  0.00    -0.114 A  
HETATM   11  C   UNL     1      -9.005  10.444  67.052  1.00  0.00    -0.150 A  
HETATM   12  C   UNL     1     -10.057  11.079  67.735  1.00  0.00    -0.201 A  
HETATM   13  C   UNL     1      -9.627   9.497  69.554  1.00  0.00    -0.198 A  
HETATM   14  C   UNL     1     -10.419  10.495  68.958  1.00  0.00    -0.238 A  
BRANCH  12  15
HETATM   15  C   UNL     1     -10.716  12.305  67.168  1.00  0.00    -0.265 A  
HETATM   16  C   UNL     1     -11.859  12.097  66.341  1.00  0.00    -0.321 A  
HETATM   17  C   UNL     1     -12.493  13.120  65.635  1.00  0.00    -0.485 A  
HETATM   18  C   UNL     1     -12.039  14.419  65.762  1.00  0.00    -0.362 A  
HETATM   19  C   UNL     1     -10.956  14.678  66.598  1.00  0.00    -0.323 A  
HETATM   20  C   UNL     1     -10.275  13.651  67.304  1.00  0.00    -0.246 A  
BRANCH  20  21
HETATM   21  C   UNL     1      -9.140  14.118  68.097  1.00  0.00    -0.193 A  
HETATM   22  N   UNL     1      -9.270  14.832  69.235  1.00  0.00    -0.390 NA 
HETATM   23  N   UNL     1      -7.989  15.080  69.526  1.00  0.00    -0.177 NA 
HETATM   24  H   UNL     1     -10.115  15.107  69.736  1.00  0.00     0.000 HD 
HETATM   25  N   UNL     1      -7.088  14.559  68.683  1.00  0.00    -0.106 NA 
HETATM   26  N   UNL     1      -7.817  13.972  67.742  1.00  0.00    -0.154 NA 
ENDBRANCH  20  21
ENDBRANCH  12  15
ENDBRANCH   8   9
ENDBRANCH   6   8
BRANCH   6  27
HETATM   27  C   UNL     1      -8.505   6.829  71.591  1.00  0.00    -0.115 C  
HETATM   28  C   UNL     1      -8.018   5.755  72.614  1.00  0.00    -0.102 C  
HETATM   29  O   UNL     1      -7.874   6.017  73.807  1.00  0.00    -0.099 OA 
HETATM   30  C   UNL     1     -10.036   7.109  71.710  1.00  0.00    -0.197 C  
HETATM   31  O   UNL     1      -7.851   4.493  72.186  1.00  0.00    -0.090 OA 
HETATM   32  C   UNL     1     -10.933   6.211  70.866  1.00  0.00    -0.359 C  
HETATM   33  C   UNL     1     -10.551   7.197  73.148  1.00  0.00    -0.377 C  
ENDBRANCH   6  27
ENDBRANCH   4   5
ENDBRANCH   3   4
ENDBRANCH   2   3
TORSDOF 8
ENDMDL
MODEL      220
REMARK 921   NORMALIZED FREE ENERGY PREDICTED BY IDOCK:   -4.28 KCAL/MOL
REMARK 922        TOTAL FREE ENERGY PREDICTED BY IDOCK:   -6.80 KCAL/MOL
REMARK 923 INTER-LIGAND FREE ENERGY PREDICTED BY IDOCK:   -6.38 KCAL/MOL
REMARK 924 INTRA-LIGAND FREE ENERGY PREDICTED BY IDOCK:   -0.42 KCAL/MOL
REMARK 927      BINDING AFFINITY PREDICTED BY RF-SCORE:    0.00 PKD
ROOT
HETATM    1  C   UNL     1      -5.464   9.376  66.426  1.00  0.00    -0.045 C  
HETATM    2  C   UNL     1      -5.761  10.696  65.742  1.00  0.00    -0.139 C  
ENDROOT
BRANCH   2   3
HETATM    3  C   UNL     1      -6.027  11.827  66.738  1.00  0.00    -0.107 C  
BRANCH   3   4
HETATM    4  C   UNL     1      -7.371  11.584  67.427  1.00  0.00    -0.123 C  
BRANCH   4   5
HETATM    5  C   UNL     1      -7.976  12.816  68.064  1.00  0.00    -0.160 C  
HETATM    6  N   UNL     1      -9.106  13.385  67.480  1.00  0.00    -0.204 N  
HETATM    7  O   UNL     1      -7.463  13.310  69.073  1.00  0.00    -0.048 OA 
BRANCH   6   8
HETATM    8  C   UNL     1      -9.773  12.793  66.284  1.00  0.00    -0.262 C  
BRANCH   8   9
HETATM    9  C   UNL     1     -10.029  11.298  66.374  1.00  0.00    -0.252 A  
HETATM   10  C   UNL     1     -10.691  10.764  67.479  1.00  0.00    -0.312 A  
HETATM   11  C   UNL     1     -10.652   9.384  67.733  1.00  0.00    -0.317 A  
HETATM   12  C   UNL     1     -10.036   8.467  66.863  1.00  0.00    -0.341 A  
HETATM   13  C   UNL     1      -9.567  10.389  65.418  1.00  0.00    -0.303 A  
HETATM   14  C   UNL     1      -9.597   9.000  65.641  1.00  0.00    -0.237 A  
BRANCH  12  15
HETATM   15  C   UNL     1      -9.867   7.026  67.254  1.00  0.00    -0.214 A  
HETATM   16  C   UNL     1     -10.342   6.048  66.331  1.00  0.00    -0.134 A  
HETATM   17  C   UNL     1     -10.382   4.682  66.610  1.00  0.00    -0.205 A  
HETATM   18  C   UNL     1      -9.897   4.220  67.820  1.00  0.00    -0.132 A  
HETATM   19  C   UNL     1      -9.376   5.133  68.733  1.00  0.00    -0.166 A  
HETATM   20  C   UNL     1      -9.352   6.531  68.485  1.00  0.00    -0.123 A  
BRANCH  20  21
HETATM   21  C   UNL     1      -8.804   7.326  69.581  1.00  0.00    -0.141 A  
HETATM   22  N   UNL     1      -7.495   7.643  69.688  1.00  0.00    -0.089 NA 
HETATM   23  N   UNL     1      -7.487   8.285  70.862  1.00  0.00    -0.059 NA 
HETATM   24  H   UNL     1      -6.725   7.447  69.050  1.00  0.00     0.000 HD 
HETATM   25  N   UNL     1      -8.676   8.412  71.466  1.00  0.00    -0.159 NA 
HETATM   26  N   UNL     1      -9.521   7.768  70.670  1.00  0.00    -0.162 NA 
ENDBRANCH  20  21
ENDBRANCH  12  15
ENDBRANCH   8   9
ENDBRANCH   6   8
BRANCH   6  27
HETATM   27  C   UNL     1      -9.843  14.495  68.192  1.00  0.00    -0.223 C  
HETATM   28  C   UNL     1     -11.394  14.638  68.075  1.00  0.00    -0.311 C  
HETATM   29  O   UNL     1     -12.077  15.050  69.011  1.00  0.00    -0.281 OA 
HETATM   30  C   UNL     1      -9.114  15.872  68.113  1.00  0.00    -0.182 C  
HETATM   31  O   UNL     1     -11.971  14.397  66.886  1.00  0.00    -0.410 OA 
HETATM   32  C   UNL     1      -8.748  16.340  66.709  1.00  0.00    -0.264 C  
HETATM   33  C   UNL     1      -9.796  16.993  68.901  1.00  0.00    -0.272 C  
ENDBRANCH   6  27
ENDBRANCH   4   5
ENDBRANCH   3   4
ENDBRANCH   2   3
TORSDOF 8
ENDMDL
MODEL      221
REMARK 921   NORMALIZED FREE ENERGY PREDICTED BY IDOCK:   -4.27 KCAL/MOL
REMARK 922        TOTAL FREE ENERGY PREDICTED BY IDOCK:   -6.79 KCAL/MOL
REMARK 923 INTER-LIGAND FREE ENERGY PREDICTED BY IDOCK:   -6.96 KCAL/MOL
REMARK 924 INTRA-LIGAND FREE ENERGY PREDICTED BY IDOCK:    0.17 KCAL/MOL
REMARK 927      BINDING AFFINITY PREDICTED BY RF-SCORE:    0.00 PKD
ROOT
HETATM    1  C   UNL     1      -6.885  18.244  67.633  1.00  0.00    -0.203 C  
HETATM    2  C   UNL     1      -7.022  17.575  68.986  1.00  0.00    -0.237 C  
ENDROOT
BRANCH   2   3
HETATM    3  C   UNL     1      -6.437  16.161  69.005  1.00  0.00    -0.154 C  
BRANCH   3   4
HETATM    4  C   UNL     1      -7.524  15.173  69.432  1.00  0.00    -0.204 C  
BRANCH   4   5
HETATM    5  C   UNL     1      -8.671  15.049  68.452  1.00  0.00    -0.175 C  
HETATM    6  N   UNL     1      -8.570  14.120  67.418  1.00  0.00    -0.198 N  
HETATM    7  O   UNL     1      -9.666  15.770  68.564  1.00  0.00    -0.199 OA 
BRANCH   6   8
HETATM    8  C   UNL     1      -7.398  13.207  67.274  1.00  0.00    -0.045 C  
BRANCH   8   9
HETATM    9  C   UNL     1      -7.611  11.808  67.828  1.00  0.00    -0.127 A  
HETATM   10  C   UNL     1      -7.870  10.742  66.966  1.00  0.00    -0.121 A  
HETATM   11  C   UNL     1      -8.380   9.533  67.463  1.00  0.00    -0.125 A  
HETATM   12  C   UNL     1      -8.572   9.295  68.836  1.00  0.00    -0.130 A  
HETATM   13  C   UNL     1      -7.632  11.527  69.197  1.00  0.00    -0.003 A  
HETATM   14  C   UNL     1      -8.073  10.287  69.694  1.00  0.00    -0.157 A  
BRANCH  12  15
HETATM   15  C   UNL     1      -9.277   8.056  69.313  1.00  0.00    -0.152 A  
HETATM   16  C   UNL     1     -10.256   7.498  68.440  1.00  0.00    -0.211 A  
HETATM   17  C   UNL     1     -11.089   6.436  68.797  1.00  0.00    -0.404 A  
HETATM   18  C   UNL     1     -10.946   5.847  70.039  1.00  0.00    -0.430 A  
HETATM   19  C   UNL     1      -9.969   6.327  70.908  1.00  0.00    -0.219 A  
HETATM   20  C   UNL     1      -9.130   7.425  70.579  1.00  0.00    -0.157 A  
BRANCH  20  21
HETATM   21  C   UNL     1      -8.196   7.804  71.637  1.00  0.00    -0.110 A  
HETATM   22  N   UNL     1      -8.553   8.523  72.723  1.00  0.00    -0.385 NA 
HETATM   23  N   UNL     1      -7.369   8.673  73.326  1.00  0.00    -0.360 NA 
HETATM   24  H   UNL     1      -9.474   8.859  73.005  1.00  0.00     0.000 HD 
HETATM   25  N   UNL     1      -6.327   8.089  72.721  1.00  0.00    -0.068 NA 
HETATM   26  N   UNL     1      -6.841   7.560  71.617  1.00  0.00    -0.053 NA 
ENDBRANCH  20  21
ENDBRANCH  12  15
ENDBRANCH   8   9
ENDBRANCH   6   8
BRANCH   6  27
HETATM   27  C   UNL     1      -9.766  13.837  66.540  1.00  0.00    -0.293 C  
HETATM   28  C   UNL     1     -10.428  14.968  65.691  1.00  0.00    -0.350 C  
HETATM   29  O   UNL     1     -10.928  14.741  64.590  1.00  0.00    -0.374 OA 
HETATM   30  C   UNL     1     -10.822  12.907  67.214  1.00  0.00    -0.277 C  
HETATM   31  O   UNL     1     -10.539  16.193  66.230  1.00  0.00    -0.310 OA 
HETATM   32  C   UNL     1     -11.308  13.356  68.588  1.00  0.00    -0.322 C  
HETATM   33  C   UNL     1     -12.001  12.534  66.313  1.00  0.00    -0.410 C  
ENDBRANCH   6  27
ENDBRANCH   4   5
ENDBRANCH   3   4
ENDBRANCH   2   3
TORSDOF 8
ENDMDL
MODEL      222
REMARK 921   NORMALIZED FREE ENERGY PREDICTED BY IDOCK:   -4.26 KCAL/MOL
REMARK 922        TOTAL FREE ENERGY PREDICTED BY IDOCK:   -6.77 KCAL/MOL
REMARK 923 INTER-LIGAND FREE ENERGY PREDICTED BY IDOCK:   -6.84 KCAL/MOL
REMARK 924 INTRA-LIGAND FREE ENERGY PREDICTED BY IDOCK:    0.07 KCAL/MOL
REMARK 927      BINDING AFFINITY PREDICTED BY RF-SCORE:    0.00 PKD
ROOT
HETATM    1  C   UNL     1     -11.935  14.048  67.584  1.00  0.00    -0.404 C  
HETATM    2  C   UNL     1     -11.893  12.538  67.703  1.00  0.00    -0.381 C  
ENDROOT
BRANCH   2   3
HETATM    3  C   UNL     1     -11.383  11.862  66.428  1.00  0.00    -0.400 C  
BRANCH   3   4
HETATM    4  C   UNL     1      -9.859  11.763  66.488  1.00  0.00    -0.228 C  
BRANCH   4   5
HETATM    5  C   UNL     1      -9.230  11.088  65.288  1.00  0.00    -0.207 C  
HETATM    6  N   UNL     1      -8.070  10.338  65.474  1.00  0.00    -0.151 N  
HETATM    7  O   UNL     1      -9.733  11.216  64.167  1.00  0.00    -0.240 OA 
BRANCH   6   8
HETATM    8  C   UNL     1      -7.458  10.130  66.818  1.00  0.00    -0.104 C  
BRANCH   8   9
HETATM    9  C   UNL     1      -8.056   8.986  67.620  1.00  0.00    -0.109 A  
HETATM   10  C   UNL     1      -9.440   8.865  67.745  1.00  0.00    -0.163 A  
HETATM   11  C   UNL     1      -9.994   8.026  68.725  1.00  0.00    -0.196 A  
HETATM   12  C   UNL     1      -9.211   7.208  69.559  1.00  0.00    -0.149 A  
HETATM   13  C   UNL     1      -7.278   8.057  68.317  1.00  0.00    -0.093 A  
HETATM   14  C   UNL     1      -7.844   7.164  69.245  1.00  0.00    -0.117 A  
BRANCH  12  15
HETATM   15  C   UNL     1      -9.829   6.458  70.705  1.00  0.00    -0.206 A  
HETATM   16  C   UNL     1      -9.325   5.150  70.964  1.00  0.00    -0.198 A  
HETATM   17  C   UNL     1      -9.887   4.280  71.899  1.00  0.00    -0.248 A  
HETATM   18  C   UNL     1     -10.960   4.702  72.663  1.00  0.00    -0.187 A  
HETATM   19  C   UNL     1     -11.455   5.991  72.481  1.00  0.00    -0.336 A  
HETATM   20  C   UNL     1     -10.919   6.883  71.513  1.00  0.00    -0.268 A  
BRANCH  20  21
HETATM   21  C   UNL     1     -11.601   8.174  71.447  1.00  0.00    -0.278 A  
HETATM   22  N   UNL     1     -12.840   8.336  70.937  1.00  0.00    -0.494 NA 
HETATM   23  N   UNL     1     -12.977   9.664  71.022  1.00  0.00    -0.291 NA 
HETATM   24  H   UNL     1     -13.493   7.638  70.583  1.00  0.00     0.000 HD 
HETATM   25  N   UNL     1     -11.944  10.323  71.563  1.00  0.00    -0.328 NA 
HETATM   26  N   UNL     1     -11.041   9.381  71.804  1.00  0.00    -0.342 NA 
ENDBRANCH  20  21
ENDBRANCH  12  15
ENDBRANCH   8   9
ENDBRANCH   6   8
BRANCH   6  27
HETATM   27  C   UNL     1      -7.526   9.500  64.341  1.00  0.00    -0.118 C  
HETATM   28  C   UNL     1      -8.032   8.042  64.100  1.00  0.00    -0.137 C  
HETATM   29  O   UNL     1      -8.126   7.569  62.969  1.00  0.00    -0.133 OA 
HETATM   30  C   UNL     1      -5.981   9.628  64.162  1.00  0.00    -0.099 C  
HETATM   31  O   UNL     1      -8.272   7.263  65.168  1.00  0.00    -0.131 OA 
HETATM   32  C   UNL     1      -5.154   9.366  65.416  1.00  0.00    -0.035 C  
HETATM   33  C   UNL     1      -5.419   8.858  62.966  1.00  0.00    -0.069 C  
ENDBRANCH   6  27
ENDBRANCH   4   5
ENDBRANCH   3   4
ENDBRANCH   2   3
TORSDOF 8
ENDMDL
MODEL      223
REMARK 921   NORMALIZED FREE ENERGY PREDICTED BY IDOCK:   -4.25 KCAL/MOL
REMARK 922        TOTAL FREE ENERGY PREDICTED BY IDOCK:   -6.77 KCAL/MOL
REMARK 923 INTER-LIGAND FREE ENERGY PREDICTED BY IDOCK:   -5.98 KCAL/MOL
REMARK 924 INTRA-LIGAND FREE ENERGY PREDICTED BY IDOCK:   -0.79 KCAL/MOL
REMARK 927      BINDING AFFINITY PREDICTED BY RF-SCORE:    0.00 PKD
ROOT
HETATM    1  C   UNL     1     -12.013  12.708  69.767  1.00  0.00    -0.365 C  
HETATM    2  C   UNL     1     -11.716  11.940  68.495  1.00  0.00    -0.388 C  
ENDROOT
BRANCH   2   3
HETATM    3  C   UNL     1     -11.822  12.813  67.243  1.00  0.00    -0.414 C  
BRANCH   3   4
HETATM    4  C   UNL     1     -10.514  12.723  66.456  1.00  0.00    -0.276 C  
BRANCH   4   5
HETATM    5  C   UNL     1      -9.863  14.059  66.173  1.00  0.00    -0.303 C  
HETATM    6  N   UNL     1      -8.946  14.565  67.092  1.00  0.00    -0.219 N  
HETATM    7  O   UNL     1     -10.157  14.691  65.153  1.00  0.00    -0.377 OA 
BRANCH   6   8
HETATM    8  C   UNL     1      -8.540  13.812  68.315  1.00  0.00    -0.175 C  
BRANCH   8   9
HETATM    9  C   UNL     1      -7.873  12.474  68.045  1.00  0.00    -0.147 A  
HETATM   10  C   UNL     1      -6.918  12.356  67.035  1.00  0.00    -0.006 A  
HETATM   11  C   UNL     1      -6.535  11.091  66.563  1.00  0.00    -0.132 A  
HETATM   12  C   UNL     1      -7.010   9.892  67.125  1.00  0.00    -0.084 A  
HETATM   13  C   UNL     1      -8.218  11.302  68.724  1.00  0.00    -0.122 A  
HETATM   14  C   UNL     1      -7.773  10.038  68.294  1.00  0.00    -0.084 A  
BRANCH  12  15
HETATM   15  C   UNL     1      -6.712   8.567  66.483  1.00  0.00    -0.067 A  
HETATM   16  C   UNL     1      -5.502   8.473  65.734  1.00  0.00    -0.035 A  
HETATM   17  C   UNL     1      -5.155   7.358  64.970  1.00  0.00    -0.028 A  
HETATM   18  C   UNL     1      -5.988   6.255  64.958  1.00  0.00    -0.026 A  
HETATM   19  C   UNL     1      -7.157   6.281  65.714  1.00  0.00    -0.069 A  
HETATM   20  C   UNL     1      -7.546   7.415  66.476  1.00  0.00    -0.092 A  
BRANCH  20  21
HETATM   21  C   UNL     1      -8.825   7.263  67.168  1.00  0.00    -0.125 A  
HETATM   22  N   UNL     1      -8.966   6.591  68.331  1.00  0.00    -0.126 NA 
HETATM   23  N   UNL     1     -10.290   6.663  68.504  1.00  0.00    -0.178 NA 
HETATM   24  H   UNL     1      -8.257   6.149  68.916  1.00  0.00     0.000 HD 
HETATM   25  N   UNL     1     -10.966   7.341  67.567  1.00  0.00    -0.197 NA 
HETATM   26  N   UNL     1     -10.039   7.698  66.686  1.00  0.00    -0.237 NA 
ENDBRANCH  20  21
ENDBRANCH  12  15
ENDBRANCH   8   9
ENDBRANCH   6   8
BRANCH   6  27
HETATM   27  C   UNL     1      -8.141  15.797  66.753  1.00  0.00    -0.262 C  
HETATM   28  C   UNL     1      -6.678  15.972  67.268  1.00  0.00    -0.197 C  
HETATM   29  O   UNL     1      -5.821  16.550  66.599  1.00  0.00    -0.330 OA 
HETATM   30  C   UNL     1      -8.964  17.120  66.847  1.00  0.00    -0.253 C  
HETATM   31  O   UNL     1      -6.384  15.566  68.514  1.00  0.00    -0.095 OA 
HETATM   32  C   UNL     1      -9.687  17.347  68.170  1.00  0.00    -0.291 C  
HETATM   33  C   UNL     1      -8.196  18.373  66.423  1.00  0.00    -0.280 C  
ENDBRANCH   6  27
ENDBRANCH   4   5
ENDBRANCH   3   4
ENDBRANCH   2   3
TORSDOF 8
ENDMDL
MODEL      224
REMARK 921   NORMALIZED FREE ENERGY PREDICTED BY IDOCK:   -4.25 KCAL/MOL
REMARK 922        TOTAL FREE ENERGY PREDICTED BY IDOCK:   -6.76 KCAL/MOL
REMARK 923 INTER-LIGAND FREE ENERGY PREDICTED BY IDOCK:   -6.68 KCAL/MOL
REMARK 924 INTRA-LIGAND FREE ENERGY PREDICTED BY IDOCK:   -0.08 KCAL/MOL
REMARK 927      BINDING AFFINITY PREDICTED BY RF-SCORE:    0.00 PKD
ROOT
HETATM    1  C   UNL     1      -5.302   9.706  65.373  1.00  0.00    -0.048 C  
HETATM    2  C   UNL     1      -5.561  11.141  65.784  1.00  0.00    -0.028 C  
ENDROOT
BRANCH   2   3
HETATM    3  C   UNL     1      -5.873  11.278  67.276  1.00  0.00    -0.071 C  
BRANCH   3   4
HETATM    4  C   UNL     1      -7.245  10.666  67.561  1.00  0.00    -0.090 C  
BRANCH   4   5
HETATM    5  C   UNL     1      -8.366  11.676  67.674  1.00  0.00    -0.142 C  
HETATM    6  N   UNL     1      -9.427  11.601  66.773  1.00  0.00    -0.182 N  
HETATM    7  O   UNL     1      -8.328  12.555  68.540  1.00  0.00    -0.147 OA 
BRANCH   6   8
HETATM    8  C   UNL     1      -9.525  10.530  65.739  1.00  0.00    -0.201 C  
BRANCH   8   9
HETATM    9  C   UNL     1      -9.628   9.119  66.293  1.00  0.00    -0.321 A  
HETATM   10  C   UNL     1     -10.783   8.707  66.957  1.00  0.00    -0.190 A  
HETATM   11  C   UNL     1     -10.775   7.544  67.743  1.00  0.00    -0.233 A  
HETATM   12  C   UNL     1      -9.658   6.695  67.834  1.00  0.00    -0.121 A  
HETATM   13  C   UNL     1      -8.576   8.201  66.235  1.00  0.00    -0.157 A  
HETATM   14  C   UNL     1      -8.600   6.998  66.965  1.00  0.00    -0.122 A  
BRANCH  12  15
HETATM   15  C   UNL     1      -9.632   5.557  68.816  1.00  0.00    -0.175 A  
HETATM   16  C   UNL     1      -9.301   4.270  68.301  1.00  0.00    -0.207 A  
HETATM   17  C   UNL     1      -9.369   3.098  69.056  1.00  0.00    -0.230 A  
HETATM   18  C   UNL     1      -9.728   3.167  70.389  1.00  0.00    -0.099 A  
HETATM   19  C   UNL     1     -10.013   4.410  70.950  1.00  0.00    -0.242 A  
HETATM   20  C   UNL     1      -9.980   5.613  70.195  1.00  0.00    -0.270 A  
BRANCH  20  21
HETATM   21  C   UNL     1     -10.348   6.807  70.952  1.00  0.00    -0.199 A  
HETATM   22  N   UNL     1      -9.506   7.841  71.167  1.00  0.00    -0.154 NA 
HETATM   23  N   UNL     1     -10.259   8.619  71.953  1.00  0.00    -0.306 NA 
HETATM   24  H   UNL     1      -8.557   7.987  70.825  1.00  0.00     0.000 HD 
HETATM   25  N   UNL     1     -11.492   8.166  72.214  1.00  0.00    -0.344 NA 
HETATM   26  N   UNL     1     -11.546   6.987  71.607  1.00  0.00    -0.270 NA 
ENDBRANCH  20  21
ENDBRANCH  12  15
ENDBRANCH   8   9
ENDBRANCH   6   8
BRANCH   6  27
HETATM   27  C   UNL     1     -10.648  12.468  66.974  1.00  0.00    -0.232 C  
HETATM   28  C   UNL     1     -11.617  12.231  68.174  1.00  0.00    -0.339 C  
HETATM   29  O   UNL     1     -12.198  13.162  68.730  1.00  0.00    -0.255 OA 
HETATM   30  C   UNL     1     -11.411  12.779  65.648  1.00  0.00    -0.379 C  
HETATM   31  O   UNL     1     -11.893  10.966  68.535  1.00  0.00    -0.464 OA 
HETATM   32  C   UNL     1     -11.798  11.562  64.815  1.00  0.00     0.066 C  
HETATM   33  C   UNL     1     -12.600  13.728  65.813  1.00  0.00    -0.525 C  
ENDBRANCH   6  27
ENDBRANCH   4   5
ENDBRANCH   3   4
ENDBRANCH   2   3
TORSDOF 8
ENDMDL
MODEL      225
REMARK 921   NORMALIZED FREE ENERGY PREDICTED BY IDOCK:   -4.23 KCAL/MOL
REMARK 922        TOTAL FREE ENERGY PREDICTED BY IDOCK:   -6.73 KCAL/MOL
REMARK 923 INTER-LIGAND FREE ENERGY PREDICTED BY IDOCK:   -7.24 KCAL/MOL
REMARK 924 INTRA-LIGAND FREE ENERGY PREDICTED BY IDOCK:    0.51 KCAL/MOL
REMARK 927      BINDING AFFINITY PREDICTED BY RF-SCORE:    0.00 PKD
ROOT
HETATM    1  C   UNL     1      -5.133  12.401  69.878  1.00  0.00    -0.078 C  
HETATM    2  C   UNL     1      -5.579  13.579  70.721  1.00  0.00    -0.186 C  
ENDROOT
BRANCH   2   3
HETATM    3  C   UNL     1      -5.631  14.885  69.925  1.00  0.00    -0.110 C  
BRANCH   3   4
HETATM    4  C   UNL     1      -7.005  15.017  69.266  1.00  0.00    -0.156 C  
BRANCH   4   5
HETATM    5  C   UNL     1      -7.417  16.441  68.965  1.00  0.00    -0.227 C  
HETATM    6  N   UNL     1      -7.901  16.743  67.693  1.00  0.00    -0.172 N  
HETATM    7  O   UNL     1      -7.310  17.317  69.829  1.00  0.00     0.231 OA 
BRANCH   6   8
HETATM    8  C   UNL     1      -8.079  15.704  66.637  1.00  0.00    -0.204 C  
BRANCH   8   9
HETATM    9  C   UNL     1      -8.548  14.352  67.148  1.00  0.00    -0.237 A  
HETATM   10  C   UNL     1      -7.646  13.294  67.267  1.00  0.00    -0.079 A  
HETATM   11  C   UNL     1      -8.110  11.979  67.424  1.00  0.00    -0.168 A  
HETATM   12  C   UNL     1      -9.474  11.663  67.558  1.00  0.00    -0.173 A  
HETATM   13  C   UNL     1      -9.884  14.076  67.453  1.00  0.00    -0.240 A  
HETATM   14  C   UNL     1     -10.336  12.764  67.684  1.00  0.00    -0.221 A  
BRANCH  12  15
HETATM   15  C   UNL     1      -9.940  10.235  67.552  1.00  0.00    -0.226 A  
HETATM   16  C   UNL     1     -10.256   9.655  68.816  1.00  0.00    -0.213 A  
HETATM   17  C   UNL     1     -10.568   8.306  68.986  1.00  0.00    -0.167 A  
HETATM   18  C   UNL     1     -10.627   7.475  67.883  1.00  0.00    -0.250 A  
HETATM   19  C   UNL     1     -10.375   8.008  66.621  1.00  0.00    -0.273 A  
HETATM   20  C   UNL     1     -10.026   9.371  66.425  1.00  0.00    -0.346 A  
BRANCH  20  21
HETATM   21  C   UNL     1      -9.760   9.728  65.033  1.00  0.00    -0.233 A  
HETATM   22  N   UNL     1      -8.743   9.209  64.312  1.00  0.00    -0.331 NA 
HETATM   23  N   UNL     1      -8.871   9.890  63.168  1.00  0.00    -0.225 NA 
HETATM   24  H   UNL     1      -8.063   8.494  64.570  1.00  0.00     0.000 HD 
HETATM   25  N   UNL     1      -9.891  10.757  63.116  1.00  0.00    -0.339 NA 
HETATM   26  N   UNL     1     -10.445  10.687  64.320  1.00  0.00    -0.278 NA 
ENDBRANCH  20  21
ENDBRANCH  12  15
ENDBRANCH   8   9
ENDBRANCH   6   8
BRANCH   6  27
HETATM   27  C   UNL     1      -8.495  18.104  67.417  1.00  0.00    -0.240 C  
HETATM   28  C   UNL     1      -9.834  18.254  66.627  1.00  0.00    -0.352 C  
HETATM   29  O   UNL     1     -10.637  19.151  66.881  1.00  0.00    -0.410 OA 
HETATM   30  C   UNL     1      -7.435  19.168  66.993  1.00  0.00    -0.228 C  
HETATM   31  O   UNL     1     -10.056  17.439  65.582  1.00  0.00    -0.566 OA 
HETATM   32  C   UNL     1      -6.540  18.770  65.825  1.00  0.00    -0.296 C  
HETATM   33  C   UNL     1      -8.000  20.576  66.793  1.00  0.00    -0.248 C  
ENDBRANCH   6  27
ENDBRANCH   4   5
ENDBRANCH   3   4
ENDBRANCH   2   3
TORSDOF 8
ENDMDL
MODEL      226
REMARK 921   NORMALIZED FREE ENERGY PREDICTED BY IDOCK:   -4.22 KCAL/MOL
REMARK 922        TOTAL FREE ENERGY PREDICTED BY IDOCK:   -6.72 KCAL/MOL
REMARK 923 INTER-LIGAND FREE ENERGY PREDICTED BY IDOCK:   -6.25 KCAL/MOL
REMARK 924 INTRA-LIGAND FREE ENERGY PREDICTED BY IDOCK:   -0.47 KCAL/MOL
REMARK 927      BINDING AFFINITY PREDICTED BY RF-SCORE:    0.00 PKD
ROOT
HETATM    1  C   UNL     1     -11.409   4.573  73.294  1.00  0.00    -0.364 C  
HETATM    2  C   UNL     1     -10.697   5.911  73.329  1.00  0.00    -0.290 C  
ENDROOT
BRANCH   2   3
HETATM    3  C   UNL     1     -10.830   6.683  72.015  1.00  0.00    -0.263 C  
BRANCH   3   4
HETATM    4  C   UNL     1     -10.583   5.730  70.845  1.00  0.00    -0.329 C  
BRANCH   4   5
HETATM    5  C   UNL     1      -9.171   5.766  70.300  1.00  0.00    -0.152 C  
HETATM    6  N   UNL     1      -8.979   6.110  68.963  1.00  0.00    -0.125 N  
HETATM    7  O   UNL     1      -8.216   5.480  71.027  1.00  0.00    -0.115 OA 
BRANCH   6   8
HETATM    8  C   UNL     1     -10.107   6.497  68.066  1.00  0.00    -0.150 C  
BRANCH   8   9
HETATM    9  C   UNL     1     -10.480   7.970  68.114  1.00  0.00    -0.222 A  
HETATM   10  C   UNL     1     -10.512   8.725  66.942  1.00  0.00    -0.319 A  
HETATM   11  C   UNL     1     -10.535  10.127  67.000  1.00  0.00    -0.302 A  
HETATM   12  C   UNL     1     -10.618  10.838  68.211  1.00  0.00    -0.233 A  
HETATM   13  C   UNL     1     -10.736   8.651  69.307  1.00  0.00    -0.151 A  
HETATM   14  C   UNL     1     -10.834  10.054  69.354  1.00  0.00    -0.270 A  
BRANCH  12  15
HETATM   15  C   UNL     1     -10.468  12.333  68.240  1.00  0.00    -0.236 A  
HETATM   16  C   UNL     1     -11.661  13.096  68.402  1.00  0.00    -0.386 A  
HETATM   17  C   UNL     1     -11.702  14.488  68.311  1.00  0.00    -0.368 A  
HETATM   18  C   UNL     1     -10.531  15.191  68.100  1.00  0.00    -0.245 A  
HETATM   19  C   UNL     1      -9.333  14.491  67.985  1.00  0.00    -0.201 A  
HETATM   20  C   UNL     1      -9.269  13.073  68.044  1.00  0.00    -0.212 A  
BRANCH  20  21
HETATM   21  C   UNL     1      -7.927  12.525  67.862  1.00  0.00    -0.157 A  
HETATM   22  N   UNL     1      -7.439  12.132  66.666  1.00  0.00    -0.375 NA 
HETATM   23  N   UNL     1      -6.247  11.645  67.028  1.00  0.00    -0.131 NA 
HETATM   24  H   UNL     1      -7.863  12.191  65.741  1.00  0.00     0.000 HD 
HETATM   25  N   UNL     1      -5.953  11.730  68.332  1.00  0.00    -0.049 NA 
HETATM   26  N   UNL     1      -7.040  12.259  68.881  1.00  0.00    -0.104 NA 
ENDBRANCH  20  21
ENDBRANCH  12  15
ENDBRANCH   8   9
ENDBRANCH   6   8
BRANCH   6  27
HETATM   27  C   UNL     1      -7.582   6.339  68.438  1.00  0.00    -0.096 C  
HETATM   28  C   UNL     1      -6.821   7.672  68.725  1.00  0.00    -0.065 C  
HETATM   29  O   UNL     1      -5.601   7.700  68.884  1.00  0.00    -0.022 OA 
HETATM   30  C   UNL     1      -7.383   5.848  66.970  1.00  0.00    -0.076 C  
HETATM   31  O   UNL     1      -7.513   8.823  68.696  1.00  0.00    -0.088 OA 
HETATM   32  C   UNL     1      -8.388   6.386  65.959  1.00  0.00    -0.132 C  
HETATM   33  C   UNL     1      -5.953   5.988  66.447  1.00  0.00    -0.025 C  
ENDBRANCH   6  27
ENDBRANCH   4   5
ENDBRANCH   3   4
ENDBRANCH   2   3
TORSDOF 8
ENDMDL
MODEL      227
REMARK 921   NORMALIZED FREE ENERGY PREDICTED BY IDOCK:   -4.22 KCAL/MOL
REMARK 922        TOTAL FREE ENERGY PREDICTED BY IDOCK:   -6.72 KCAL/MOL
REMARK 923 INTER-LIGAND FREE ENERGY PREDICTED BY IDOCK:   -7.20 KCAL/MOL
REMARK 924 INTRA-LIGAND FREE ENERGY PREDICTED BY IDOCK:    0.48 KCAL/MOL
REMARK 927      BINDING AFFINITY PREDICTED BY RF-SCORE:    0.00 PKD
ROOT
HETATM    1  C   UNL     1     -12.101  12.255  63.643  1.00  0.00    -0.648 C  
HETATM    2  C   UNL     1     -10.598  12.064  63.640  1.00  0.00    -0.503 C  
ENDROOT
BRANCH   2   3
HETATM    3  C   UNL     1     -10.089  11.384  64.913  1.00  0.00    -0.323 C  
BRANCH   3   4
HETATM    4  C   UNL     1      -9.729  12.455  65.944  1.00  0.00    -0.237 C  
BRANCH   4   5
HETATM    5  C   UNL     1     -10.634  12.480  67.157  1.00  0.00    -0.228 C  
HETATM    6  N   UNL     1     -10.107  12.107  68.392  1.00  0.00    -0.210 N  
HETATM    7  O   UNL     1     -11.818  12.811  67.043  1.00  0.00    -0.372 OA 
BRANCH   6   8
HETATM    8  C   UNL     1      -8.673  11.738  68.572  1.00  0.00    -0.118 C  
BRANCH   8   9
HETATM    9  C   UNL     1      -8.393  10.245  68.550  1.00  0.00    -0.116 A  
HETATM   10  C   UNL     1      -9.143   9.401  67.730  1.00  0.00    -0.134 A  
HETATM   11  C   UNL     1      -9.122   8.012  67.930  1.00  0.00    -0.134 A  
HETATM   12  C   UNL     1      -8.296   7.393  68.885  1.00  0.00    -0.129 A  
HETATM   13  C   UNL     1      -7.446   9.636  69.379  1.00  0.00    -0.093 A  
HETATM   14  C   UNL     1      -7.375   8.238  69.522  1.00  0.00    -0.074 A  
BRANCH  12  15
HETATM   15  C   UNL     1      -8.430   5.926  69.185  1.00  0.00    -0.112 A  
HETATM   16  C   UNL     1      -7.420   5.068  68.660  1.00  0.00    -0.070 A  
HETATM   17  C   UNL     1      -7.478   3.676  68.735  1.00  0.00    -0.053 A  
HETATM   18  C   UNL     1      -8.536   3.073  69.389  1.00  0.00    -0.100 A  
HETATM   19  C   UNL     1      -9.521   3.873  69.962  1.00  0.00    -0.263 A  
HETATM   20  C   UNL     1      -9.500   5.290  69.873  1.00  0.00    -0.211 A  
BRANCH  20  21
HETATM   21  C   UNL     1     -10.643   5.948  70.503  1.00  0.00    -0.275 A  
HETATM   22  N   UNL     1     -11.701   6.424  69.812  1.00  0.00    -0.580 NA 
HETATM   23  N   UNL     1     -12.411   6.988  70.796  1.00  0.00    -0.322 NA 
HETATM   24  H   UNL     1     -11.903   6.369  68.814  1.00  0.00     0.000 HD 
HETATM   25  N   UNL     1     -11.895   6.875  72.027  1.00  0.00    -0.302 NA 
HETATM   26  N   UNL     1     -10.743   6.242  71.844  1.00  0.00    -0.222 NA 
ENDBRANCH  20  21
ENDBRANCH  12  15
ENDBRANCH   8   9
ENDBRANCH   6   8
BRANCH   6  27
HETATM   27  C   UNL     1     -10.924  12.301  69.648  1.00  0.00     0.151 C  
HETATM   28  C   UNL     1     -12.074  11.313  70.023  1.00  0.00    -0.348 C  
HETATM   29  O   UNL     1     -12.333  11.037  71.193  1.00  0.00    -0.361 OA 
HETATM   30  C   UNL     1     -11.312  13.789  69.910  1.00  0.00    -0.150 C  
HETATM   31  O   UNL     1     -12.856  10.839  69.039  1.00  0.00    -0.044 OA 
HETATM   32  C   UNL     1     -12.006  14.498  68.752  1.00  0.00    -0.315 C  
HETATM   33  C   UNL     1     -12.064  14.023  71.222  1.00  0.00    -0.307 C  
ENDBRANCH   6  27
ENDBRANCH   4   5
ENDBRANCH   3   4
ENDBRANCH   2   3
TORSDOF 8
ENDMDL
MODEL      228
REMARK 921   NORMALIZED FREE ENERGY PREDICTED BY IDOCK:   -4.22 KCAL/MOL
REMARK 922        TOTAL FREE ENERGY PREDICTED BY IDOCK:   -6.72 KCAL/MOL
REMARK 923 INTER-LIGAND FREE ENERGY PREDICTED BY IDOCK:   -7.24 KCAL/MOL
REMARK 924 INTRA-LIGAND FREE ENERGY PREDICTED BY IDOCK:    0.52 KCAL/MOL
REMARK 927      BINDING AFFINITY PREDICTED BY RF-SCORE:    0.00 PKD
ROOT
HETATM    1  C   UNL     1      -6.612   8.334  64.015  1.00  0.00    -0.071 C  
HETATM    2  C   UNL     1      -7.017   6.888  64.214  1.00  0.00    -0.052 C  
ENDROOT
BRANCH   2   3
HETATM    3  C   UNL     1      -6.850   6.424  65.663  1.00  0.00    -0.052 C  
BRANCH   3   4
HETATM    4  C   UNL     1      -8.210   6.453  66.359  1.00  0.00    -0.115 C  
BRANCH   4   5
HETATM    5  C   UNL     1      -8.169   6.958  67.785  1.00  0.00    -0.117 C  
HETATM    6  N   UNL     1      -8.449   8.302  68.027  1.00  0.00    -0.131 N  
HETATM    7  O   UNL     1      -7.877   6.193  68.709  1.00  0.00    -0.098 OA 
BRANCH   6   8
HETATM    8  C   UNL     1      -8.841   9.246  66.940  1.00  0.00    -0.127 C  
BRANCH   8   9
HETATM    9  C   UNL     1      -9.680  10.428  67.397  1.00  0.00    -0.191 A  
HETATM   10  C   UNL     1      -9.067  11.632  67.747  1.00  0.00    -0.175 A  
HETATM   11  C   UNL     1      -9.775  12.608  68.465  1.00  0.00    -0.131 A  
HETATM   12  C   UNL     1     -11.137  12.476  68.789  1.00  0.00    -0.314 A  
HETATM   13  C   UNL     1     -11.066  10.360  67.558  1.00  0.00    -0.336 A  
HETATM   14  C   UNL     1     -11.788  11.375  68.212  1.00  0.00    -0.320 A  
BRANCH  12  15
HETATM   15  C   UNL     1     -11.812  13.461  69.702  1.00  0.00    -0.394 A  
HETATM   16  C   UNL     1     -12.701  12.926  70.680  1.00  0.00    -0.157 A  
HETATM   17  C   UNL     1     -13.502  13.716  71.505  1.00  0.00    -0.332 A  
HETATM   18  C   UNL     1     -13.414  15.093  71.423  1.00  0.00    -0.561 A  
HETATM   19  C   UNL     1     -12.523  15.662  70.517  1.00  0.00    -0.440 A  
HETATM   20  C   UNL     1     -11.719  14.879  69.646  1.00  0.00    -0.356 A  
BRANCH  20  21
HETATM   21  C   UNL     1     -10.878  15.660  68.741  1.00  0.00    -0.262 A  
HETATM   22  N   UNL     1      -9.959  16.555  69.165  1.00  0.00    -0.274 NA 
HETATM   23  N   UNL     1      -9.530  17.048  67.998  1.00  0.00    -0.250 NA 
HETATM   24  H   UNL     1      -9.672  16.789  70.115  1.00  0.00     0.000 HD 
HETATM   25  N   UNL     1     -10.084  16.516  66.901  1.00  0.00    -0.273 NA 
HETATM   26  N   UNL     1     -10.977  15.652  67.368  1.00  0.00    -0.312 NA 
ENDBRANCH  20  21
ENDBRANCH  12  15
ENDBRANCH   8   9
ENDBRANCH   6   8
BRANCH   6  27
HETATM   27  C   UNL     1      -8.602   8.796  69.446  1.00  0.00    -0.133 C  
HETATM   28  C   UNL     1      -7.433   8.670  70.475  1.00  0.00    -0.071 C  
HETATM   29  O   UNL     1      -7.246   9.516  71.347  1.00  0.00    -0.330 OA 
HETATM   30  C   UNL     1      -9.986   8.447  70.077  1.00  0.00    -0.188 C  
HETATM   31  O   UNL     1      -6.683   7.555  70.458  1.00  0.00    -0.046 OA 
HETATM   32  C   UNL     1     -10.380   6.976  70.017  1.00  0.00    -0.217 C  
HETATM   33  C   UNL     1     -10.198   9.013  71.483  1.00  0.00    -0.414 C  
ENDBRANCH   6  27
ENDBRANCH   4   5
ENDBRANCH   3   4
ENDBRANCH   2   3
TORSDOF 8
ENDMDL
MODEL      229
REMARK 921   NORMALIZED FREE ENERGY PREDICTED BY IDOCK:   -4.21 KCAL/MOL
REMARK 922        TOTAL FREE ENERGY PREDICTED BY IDOCK:   -6.70 KCAL/MOL
REMARK 923 INTER-LIGAND FREE ENERGY PREDICTED BY IDOCK:   -6.24 KCAL/MOL
REMARK 924 INTRA-LIGAND FREE ENERGY PREDICTED BY IDOCK:   -0.46 KCAL/MOL
REMARK 927      BINDING AFFINITY PREDICTED BY RF-SCORE:    0.00 PKD
ROOT
HETATM    1  C   UNL     1     -11.247   5.379  72.765  1.00  0.00    -0.358 C  
HETATM    2  C   UNL     1     -10.157   6.224  73.392  1.00  0.00    -0.214 C  
ENDROOT
BRANCH   2   3
HETATM    3  C   UNL     1     -10.019   7.596  72.728  1.00  0.00    -0.298 C  
BRANCH   3   4
HETATM    4  C   UNL     1     -10.268   7.452  71.226  1.00  0.00    -0.197 C  
BRANCH   4   5
HETATM    5  C   UNL     1      -9.028   7.605  70.372  1.00  0.00    -0.152 C  
HETATM    6  N   UNL     1      -9.175   7.986  69.039  1.00  0.00    -0.148 N  
HETATM    7  O   UNL     1      -7.911   7.379  70.849  1.00  0.00    -0.095 OA 
BRANCH   6   8
HETATM    8  C   UNL     1     -10.505   8.302  68.440  1.00  0.00    -0.162 C  
BRANCH   8   9
HETATM    9  C   UNL     1     -10.682   9.751  68.016  1.00  0.00    -0.298 A  
HETATM   10  C   UNL     1     -10.547  10.112  66.675  1.00  0.00    -0.214 A  
HETATM   11  C   UNL     1     -10.388  11.459  66.314  1.00  0.00    -0.287 A  
HETATM   12  C   UNL     1     -10.444  12.509  67.247  1.00  0.00    -0.232 A  
HETATM   13  C   UNL     1     -10.912  10.787  68.925  1.00  0.00    -0.289 A  
HETATM   14  C   UNL     1     -10.826  12.139  68.546  1.00  0.00    -0.267 A  
BRANCH  12  15
HETATM   15  C   UNL     1     -10.099  13.916  66.847  1.00  0.00    -0.260 A  
HETATM   16  C   UNL     1     -10.971  14.552  65.916  1.00  0.00    -0.320 A  
HETATM   17  C   UNL     1     -10.710  15.799  65.346  1.00  0.00    -0.420 A  
HETATM   18  C   UNL     1      -9.578  16.496  65.722  1.00  0.00    -0.191 A  
HETATM   19  C   UNL     1      -8.721  15.937  66.667  1.00  0.00    -0.324 A  
HETATM   20  C   UNL     1      -8.949  14.656  67.239  1.00  0.00    -0.216 A  
BRANCH  20  21
HETATM   21  C   UNL     1      -7.916  14.227  68.180  1.00  0.00    -0.140 A  
HETATM   22  N   UNL     1      -7.969  14.474  69.506  1.00  0.00    -0.390 NA 
HETATM   23  N   UNL     1      -6.795  13.972  69.903  1.00  0.00     0.001 NA 
HETATM   24  H   UNL     1      -8.703  14.922  70.055  1.00  0.00     0.000 HD 
HETATM   25  N   UNL     1      -6.044  13.416  68.944  1.00  0.00    -0.081 NA 
HETATM   26  N   UNL     1      -6.738  13.608  67.829  1.00  0.00    -0.158 NA 
ENDBRANCH  20  21
ENDBRANCH  12  15
ENDBRANCH   8   9
ENDBRANCH   6   8
BRANCH   6  27
HETATM   27  C   UNL     1      -7.957   8.329  68.215  1.00  0.00    -0.119 C  
HETATM   28  C   UNL     1      -6.872   7.254  67.893  1.00  0.00    -0.070 C  
HETATM   29  O   UNL     1      -6.257   7.254  66.828  1.00  0.00    -0.040 OA 
HETATM   30  C   UNL     1      -7.332   9.711  68.580  1.00  0.00    -0.078 C  
HETATM   31  O   UNL     1      -6.539   6.372  68.851  1.00  0.00    -0.044 OA 
HETATM   32  C   UNL     1      -7.006   9.912  70.056  1.00  0.00    -0.119 C  
HETATM   33  C   UNL     1      -6.150  10.121  67.699  1.00  0.00    -0.057 C  
ENDBRANCH   6  27
ENDBRANCH   4   5
ENDBRANCH   3   4
ENDBRANCH   2   3
TORSDOF 8
ENDMDL
MODEL      230
REMARK 921   NORMALIZED FREE ENERGY PREDICTED BY IDOCK:   -4.18 KCAL/MOL
REMARK 922        TOTAL FREE ENERGY PREDICTED BY IDOCK:   -6.66 KCAL/MOL
REMARK 923 INTER-LIGAND FREE ENERGY PREDICTED BY IDOCK:   -7.08 KCAL/MOL
REMARK 924 INTRA-LIGAND FREE ENERGY PREDICTED BY IDOCK:    0.42 KCAL/MOL
REMARK 927      BINDING AFFINITY PREDICTED BY RF-SCORE:    0.00 PKD
ROOT
HETATM    1  C   UNL     1     -11.373  15.560  64.745  1.00  0.00    -0.362 C  
HETATM    2  C   UNL     1     -11.582  14.617  65.912  1.00  0.00    -0.327 C  
ENDROOT
BRANCH   2   3
HETATM    3  C   UNL     1     -11.815  13.172  65.466  1.00  0.00    -0.420 C  
BRANCH   3   4
HETATM    4  C   UNL     1     -11.865  12.268  66.699  1.00  0.00    -0.362 C  
BRANCH   4   5
HETATM    5  C   UNL     1     -10.844  12.609  67.762  1.00  0.00    -0.221 C  
HETATM    6  N   UNL     1      -9.571  12.048  67.672  1.00  0.00    -0.184 N  
HETATM    7  O   UNL     1     -11.144  13.357  68.698  1.00  0.00    -0.242 OA 
BRANCH   6   8
HETATM    8  C   UNL     1      -9.162  11.170  66.536  1.00  0.00    -0.179 C  
BRANCH   8   9
HETATM    9  C   UNL     1      -9.506   9.701  66.713  1.00  0.00    -0.209 A  
HETATM   10  C   UNL     1     -10.322   9.292  67.767  1.00  0.00    -0.292 A  
HETATM   11  C   UNL     1     -10.387   7.939  68.133  1.00  0.00    -0.249 A  
HETATM   12  C   UNL     1      -9.721   6.925  67.422  1.00  0.00    -0.172 A  
HETATM   13  C   UNL     1      -8.982   8.694  65.897  1.00  0.00    -0.245 A  
HETATM   14  C   UNL     1      -9.111   7.332  66.225  1.00  0.00    -0.186 A  
BRANCH  12  15
HETATM   15  C   UNL     1      -9.676   5.517  67.945  1.00  0.00    -0.155 A  
HETATM   16  C   UNL     1      -9.402   5.355  69.335  1.00  0.00    -0.164 A  
HETATM   17  C   UNL     1      -9.193   4.115  69.938  1.00  0.00    -0.211 A  
HETATM   18  C   UNL     1      -9.297   2.963  69.181  1.00  0.00    -0.211 A  
HETATM   19  C   UNL     1      -9.612   3.068  67.829  1.00  0.00    -0.100 A  
HETATM   20  C   UNL     1      -9.799   4.321  67.185  1.00  0.00    -0.205 A  
BRANCH  20  21
HETATM   21  C   UNL     1     -10.083   4.223  65.754  1.00  0.00    -0.212 A  
HETATM   22  N   UNL     1     -11.297   4.469  65.218  1.00  0.00    -1.078 NA 
HETATM   23  N   UNL     1     -11.070   4.174  63.933  1.00  0.00    -0.064 NA 
HETATM   24  H   UNL     1     -12.153   4.792  65.669  1.00  0.00     0.000 HD 
HETATM   25  N   UNL     1      -9.820   3.796  63.634  1.00  0.00    -0.158 NA 
HETATM   26  N   UNL     1      -9.189   3.789  64.801  1.00  0.00    -0.137 NA 
ENDBRANCH  20  21
ENDBRANCH  12  15
ENDBRANCH   8   9
ENDBRANCH   6   8
BRANCH   6  27
HETATM   27  C   UNL     1      -8.476  12.511  68.603  1.00  0.00     0.031 C  
HETATM   28  C   UNL     1      -7.828  13.923  68.447  1.00  0.00    -0.138 C  
HETATM   29  O   UNL     1      -7.443  14.569  69.420  1.00  0.00    -0.135 OA 
HETATM   30  C   UNL     1      -7.420  11.406  68.916  1.00  0.00    -0.113 C  
HETATM   31  O   UNL     1      -7.598  14.389  67.208  1.00  0.00    -0.188 OA 
HETATM   32  C   UNL     1      -6.788  10.742  67.697  1.00  0.00    -0.073 C  
HETATM   33  C   UNL     1      -6.350  11.824  69.926  1.00  0.00    -0.113 C  
ENDBRANCH   6  27
ENDBRANCH   4   5
ENDBRANCH   3   4
ENDBRANCH   2   3
TORSDOF 8
ENDMDL
MODEL      231
REMARK 921   NORMALIZED FREE ENERGY PREDICTED BY IDOCK:   -4.18 KCAL/MOL
REMARK 922        TOTAL FREE ENERGY PREDICTED BY IDOCK:   -6.66 KCAL/MOL
REMARK 923 INTER-LIGAND FREE ENERGY PREDICTED BY IDOCK:   -6.08 KCAL/MOL
REMARK 924 INTRA-LIGAND FREE ENERGY PREDICTED BY IDOCK:   -0.57 KCAL/MOL
REMARK 927      BINDING AFFINITY PREDICTED BY RF-SCORE:    0.00 PKD
ROOT
HETATM    1  C   UNL     1     -11.024   6.498  68.952  1.00  0.00    -0.376 C  
HETATM    2  C   UNL     1     -10.119   6.820  67.780  1.00  0.00    -0.189 C  
ENDROOT
BRANCH   2   3
HETATM    3  C   UNL     1      -8.846   5.971  67.769  1.00  0.00    -0.106 C  
BRANCH   3   4
HETATM    4  C   UNL     1      -7.674   6.818  68.265  1.00  0.00    -0.106 C  
BRANCH   4   5
HETATM    5  C   UNL     1      -7.451   6.758  69.761  1.00  0.00    -0.091 C  
HETATM    6  N   UNL     1      -6.949   7.886  70.408  1.00  0.00    -0.045 N  
HETATM    7  O   UNL     1      -7.698   5.723  70.386  1.00  0.00    -0.090 OA 
BRANCH   6   8
HETATM    8  C   UNL     1      -6.676   9.166  69.691  1.00  0.00    -0.046 C  
BRANCH   8   9
HETATM    9  C   UNL     1      -7.853   9.718  68.905  1.00  0.00    -0.087 A  
HETATM   10  C   UNL     1      -7.706  10.050  67.558  1.00  0.00    -0.091 A  
HETATM   11  C   UNL     1      -8.665  10.846  66.913  1.00  0.00    -0.144 A  
HETATM   12  C   UNL     1      -9.848  11.272  67.542  1.00  0.00    -0.195 A  
HETATM   13  C   UNL     1      -9.096   9.985  69.485  1.00  0.00    -0.236 A  
HETATM   14  C   UNL     1     -10.088  10.719  68.809  1.00  0.00    -0.202 A  
BRANCH  12  15
HETATM   15  C   UNL     1     -10.763  12.261  66.876  1.00  0.00    -0.264 A  
HETATM   16  C   UNL     1     -11.639  11.752  65.872  1.00  0.00    -0.200 A  
HETATM   17  C   UNL     1     -12.445  12.563  65.072  1.00  0.00    -0.494 A  
HETATM   18  C   UNL     1     -12.448  13.931  65.274  1.00  0.00    -0.504 A  
HETATM   19  C   UNL     1     -11.645  14.469  66.277  1.00  0.00    -0.364 A  
HETATM   20  C   UNL     1     -10.794  13.668  67.084  1.00  0.00    -0.292 A  
BRANCH  20  21
HETATM   21  C   UNL     1     -10.002  14.422  68.053  1.00  0.00    -0.225 A  
HETATM   22  N   UNL     1     -10.410  14.671  69.315  1.00  0.00    -0.343 NA 
HETATM   23  N   UNL     1      -9.407  15.439  69.757  1.00  0.00    -0.208 NA 
HETATM   24  H   UNL     1     -11.251  14.359  69.799  1.00  0.00     0.000 HD 
HETATM   25  N   UNL     1      -8.413  15.658  68.888  1.00  0.00    -0.195 NA 
HETATM   26  N   UNL     1      -8.802  15.041  67.779  1.00  0.00    -0.168 NA 
ENDBRANCH  20  21
ENDBRANCH  12  15
ENDBRANCH   8   9
ENDBRANCH   6   8
BRANCH   6  27
HETATM   27  C   UNL     1      -6.893   7.926  71.917  1.00  0.00    -0.064 C  
HETATM   28  C   UNL     1      -8.169   8.232  72.763  1.00  0.00    -0.160 C  
HETATM   29  O   UNL     1      -8.357   7.713  73.863  1.00  0.00    -0.165 OA 
HETATM   30  C   UNL     1      -5.627   8.649  72.471  1.00  0.00    -0.059 C  
HETATM   31  O   UNL     1      -9.027   9.164  72.315  1.00  0.00    -0.273 OA 
HETATM   32  C   UNL     1      -5.385  10.053  71.928  1.00  0.00     0.003 C  
HETATM   33  C   UNL     1      -5.503   8.625  73.996  1.00  0.00    -0.106 C  
ENDBRANCH   6  27
ENDBRANCH   4   5
ENDBRANCH   3   4
ENDBRANCH   2   3
TORSDOF 8
ENDMDL
MODEL      232
REMARK 921   NORMALIZED FREE ENERGY PREDICTED BY IDOCK:   -4.17 KCAL/MOL
REMARK 922        TOTAL FREE ENERGY PREDICTED BY IDOCK:   -6.65 KCAL/MOL
REMARK 923 INTER-LIGAND FREE ENERGY PREDICTED BY IDOCK:   -6.04 KCAL/MOL
REMARK 924 INTRA-LIGAND FREE ENERGY PREDICTED BY IDOCK:   -0.62 KCAL/MOL
REMARK 927      BINDING AFFINITY PREDICTED BY RF-SCORE:    0.00 PKD
ROOT
HETATM    1  C   UNL     1      -9.286   1.826  68.179  1.00  0.00    -0.227 C  
HETATM    2  C   UNL     1      -9.146   3.243  68.695  1.00  0.00    -0.206 C  
ENDROOT
BRANCH   2   3
HETATM    3  C   UNL     1      -9.220   4.286  67.578  1.00  0.00    -0.174 C  
BRANCH   3   4
HETATM    4  C   UNL     1      -7.802   4.684  67.168  1.00  0.00    -0.094 C  
BRANCH   4   5
HETATM    5  C   UNL     1      -7.713   5.372  65.823  1.00  0.00    -0.087 C  
HETATM    6  N   UNL     1      -7.296   6.701  65.777  1.00  0.00    -0.073 N  
HETATM    7  O   UNL     1      -8.020   4.765  64.792  1.00  0.00    -0.089 OA 
BRANCH   6   8
HETATM    8  C   UNL     1      -6.882   7.453  66.998  1.00  0.00    -0.074 C  
BRANCH   8   9
HETATM    9  C   UNL     1      -8.020   7.812  67.939  1.00  0.00    -0.125 A  
HETATM   10  C   UNL     1      -9.336   7.824  67.478  1.00  0.00    -0.161 A  
HETATM   11  C   UNL     1     -10.345   8.452  68.224  1.00  0.00    -0.244 A  
HETATM   12  C   UNL     1     -10.116   9.015  69.493  1.00  0.00    -0.199 A  
HETATM   13  C   UNL     1      -7.814   8.209  69.263  1.00  0.00    -0.110 A  
HETATM   14  C   UNL     1      -8.846   8.771  70.038  1.00  0.00    -0.149 A  
BRANCH  12  15
HETATM   15  C   UNL     1     -11.178   9.826  70.180  1.00  0.00    -0.324 A  
HETATM   16  C   UNL     1     -11.323  11.182  69.762  1.00  0.00    -0.354 A  
HETATM   17  C   UNL     1     -12.166  12.096  70.396  1.00  0.00    -0.378 A  
HETATM   18  C   UNL     1     -12.946  11.679  71.458  1.00  0.00    -0.463 A  
HETATM   19  C   UNL     1     -12.874  10.351  71.871  1.00  0.00    -0.519 A  
HETATM   20  C   UNL     1     -12.003   9.410  71.261  1.00  0.00    -0.430 A  
BRANCH  20  21
HETATM   21  C   UNL     1     -12.043   8.078  71.862  1.00  0.00    -0.317 A  
HETATM   22  N   UNL     1     -11.508   7.789  73.068  1.00  0.00    -0.595 NA 
HETATM   23  N   UNL     1     -11.723   6.470  73.130  1.00  0.00     0.267 NA 
HETATM   24  H   UNL     1     -11.062   8.407  73.746  1.00  0.00     0.000 HD 
HETATM   25  N   UNL     1     -12.365   5.934  72.083  1.00  0.00    -0.045 NA 
HETATM   26  N   UNL     1     -12.541   6.951  71.248  1.00  0.00    -0.370 NA 
ENDBRANCH  20  21
ENDBRANCH  12  15
ENDBRANCH   8   9
ENDBRANCH   6   8
BRANCH   6  27
HETATM   27  C   UNL     1      -7.015   7.356  64.445  1.00  0.00    -0.059 C  
HETATM   28  C   UNL     1      -5.718   8.196  64.217  1.00  0.00    -0.052 C  
HETATM   29  O   UNL     1      -5.148   8.222  63.128  1.00  0.00    -0.049 OA 
HETATM   30  C   UNL     1      -8.273   8.024  63.806  1.00  0.00    -0.039 C  
HETATM   31  O   UNL     1      -5.282   8.984  65.214  1.00  0.00    -0.037 OA 
HETATM   32  C   UNL     1      -9.015   9.011  64.699  1.00  0.00    -0.112 C  
HETATM   33  C   UNL     1      -8.034   8.617  62.416  1.00  0.00    -0.149 C  
ENDBRANCH   6  27
ENDBRANCH   4   5
ENDBRANCH   3   4
ENDBRANCH   2   3
TORSDOF 8
ENDMDL
MODEL      233
REMARK 921   NORMALIZED FREE ENERGY PREDICTED BY IDOCK:   -4.15 KCAL/MOL
REMARK 922        TOTAL FREE ENERGY PREDICTED BY IDOCK:   -6.62 KCAL/MOL
REMARK 923 INTER-LIGAND FREE ENERGY PREDICTED BY IDOCK:   -6.21 KCAL/MOL
REMARK 924 INTRA-LIGAND FREE ENERGY PREDICTED BY IDOCK:   -0.40 KCAL/MOL
REMARK 927      BINDING AFFINITY PREDICTED BY RF-SCORE:    0.00 PKD
ROOT
HETATM    1  C   UNL     1      -6.279   8.380  64.373  1.00  0.00    -0.066 C  
HETATM    2  C   UNL     1      -7.338   9.305  64.937  1.00  0.00    -0.103 C  
ENDROOT
BRANCH   2   3
HETATM    3  C   UNL     1      -6.794  10.221  66.037  1.00  0.00    -0.119 C  
BRANCH   3   4
HETATM    4  C   UNL     1      -7.608  10.011  67.313  1.00  0.00    -0.095 C  
BRANCH   4   5
HETATM    5  C   UNL     1      -8.353  11.240  67.786  1.00  0.00    -0.125 C  
HETATM    6  N   UNL     1      -9.718  11.339  67.521  1.00  0.00    -0.176 N  
HETATM    7  O   UNL     1      -7.754  12.141  68.381  1.00  0.00    -0.123 OA 
BRANCH   6   8
HETATM    8  C   UNL     1     -10.481  10.253  66.838  1.00  0.00    -0.229 C  
BRANCH   8   9
HETATM    9  C   UNL     1     -10.496   8.926  67.577  1.00  0.00    -0.337 A  
HETATM   10  C   UNL     1     -10.320   8.889  68.960  1.00  0.00    -0.226 A  
HETATM   11  C   UNL     1     -10.012   7.682  69.606  1.00  0.00    -0.185 A  
HETATM   12  C   UNL     1      -9.954   6.450  68.930  1.00  0.00    -0.168 A  
HETATM   13  C   UNL     1     -10.613   7.694  66.926  1.00  0.00    -0.359 A  
HETATM   14  C   UNL     1     -10.378   6.478  67.592  1.00  0.00    -0.239 A  
BRANCH  12  15
HETATM   15  C   UNL     1      -9.455   5.212  69.622  1.00  0.00    -0.203 A  
HETATM   16  C   UNL     1     -10.071   4.877  70.863  1.00  0.00    -0.292 A  
HETATM   17  C   UNL     1      -9.626   3.843  71.687  1.00  0.00    -0.232 A  
HETATM   18  C   UNL     1      -8.564   3.056  71.281  1.00  0.00    -0.103 A  
HETATM   19  C   UNL     1      -7.963   3.315  70.052  1.00  0.00    -0.054 A  
HETATM   20  C   UNL     1      -8.378   4.380  69.209  1.00  0.00    -0.083 A  
BRANCH  20  21
HETATM   21  C   UNL     1      -7.596   4.513  67.981  1.00  0.00    -0.077 A  
HETATM   22  N   UNL     1      -6.620   5.431  67.815  1.00  0.00    -0.052 NA 
HETATM   23  N   UNL     1      -6.279   5.210  66.541  1.00  0.00    -0.034 NA 
HETATM   24  H   UNL     1      -6.246   6.108  68.480  1.00  0.00     0.000 HD 
HETATM   25  N   UNL     1      -6.940   4.222  65.923  1.00  0.00    -0.064 NA 
HETATM   26  N   UNL     1      -7.813   3.794  66.827  1.00  0.00    -0.087 NA 
ENDBRANCH  20  21
ENDBRANCH  12  15
ENDBRANCH   8   9
ENDBRANCH   6   8
BRANCH   6  27
HETATM   27  C   UNL     1     -10.527  12.455  68.139  1.00  0.00    -0.219 C  
HETATM   28  C   UNL     1     -11.726  12.151  69.091  1.00  0.00    -0.328 C  
HETATM   29  O   UNL     1     -12.001  12.885  70.039  1.00  0.00    -0.334 OA 
HETATM   30  C   UNL     1     -10.840  13.616  67.144  1.00  0.00    -0.292 C  
HETATM   31  O   UNL     1     -12.529  11.115  68.799  1.00  0.00    -0.468 OA 
HETATM   32  C   UNL     1     -11.495  13.196  65.833  1.00  0.00    -0.366 C  
HETATM   33  C   UNL     1     -11.582  14.799  67.770  1.00  0.00    -0.378 C  
ENDBRANCH   6  27
ENDBRANCH   4   5
ENDBRANCH   3   4
ENDBRANCH   2   3
TORSDOF 8
ENDMDL
MODEL      234
REMARK 921   NORMALIZED FREE ENERGY PREDICTED BY IDOCK:   -4.15 KCAL/MOL
REMARK 922        TOTAL FREE ENERGY PREDICTED BY IDOCK:   -6.62 KCAL/MOL
REMARK 923 INTER-LIGAND FREE ENERGY PREDICTED BY IDOCK:   -7.59 KCAL/MOL
REMARK 924 INTRA-LIGAND FREE ENERGY PREDICTED BY IDOCK:    0.97 KCAL/MOL
REMARK 927      BINDING AFFINITY PREDICTED BY RF-SCORE:    0.00 PKD
ROOT
HETATM    1  C   UNL     1     -10.756   8.256  71.988  1.00  0.00    -0.366 C  
HETATM    2  C   UNL     1      -9.691   8.035  70.934  1.00  0.00    -0.183 C  
ENDROOT
BRANCH   2   3
HETATM    3  C   UNL     1      -8.866   9.295  70.659  1.00  0.00    -0.287 C  
BRANCH   3   4
HETATM    4  C   UNL     1      -9.283   9.884  69.311  1.00  0.00    -0.207 C  
BRANCH   4   5
HETATM    5  C   UNL     1      -8.487   9.367  68.132  1.00  0.00    -0.120 C  
HETATM    6  N   UNL     1      -9.047   9.449  66.859  1.00  0.00    -0.133 N  
HETATM    7  O   UNL     1      -7.370   8.869  68.306  1.00  0.00    -0.081 OA 
BRANCH   6   8
HETATM    8  C   UNL     1     -10.377  10.078  66.608  1.00  0.00    -0.213 C  
BRANCH   8   9
HETATM    9  C   UNL     1     -10.363  11.597  66.563  1.00  0.00    -0.259 A  
HETATM   10  C   UNL     1      -9.160  12.293  66.686  1.00  0.00    -0.203 A  
HETATM   11  C   UNL     1      -9.160  13.668  66.967  1.00  0.00    -0.254 A  
HETATM   12  C   UNL     1     -10.340  14.428  67.051  1.00  0.00    -0.263 A  
HETATM   13  C   UNL     1     -11.527  12.366  66.471  1.00  0.00    -0.427 A  
HETATM   14  C   UNL     1     -11.515  13.757  66.679  1.00  0.00    -0.362 A  
BRANCH  12  15
HETATM   15  C   UNL     1     -10.307  15.855  67.521  1.00  0.00    -0.283 A  
HETATM   16  C   UNL     1      -9.633  16.793  66.685  1.00  0.00    -0.274 A  
HETATM   17  C   UNL     1      -9.399  18.119  67.049  1.00  0.00    -0.270 A  
HETATM   18  C   UNL     1      -9.876  18.587  68.260  1.00  0.00    -0.394 A  
HETATM   19  C   UNL     1     -10.584  17.721  69.089  1.00  0.00     0.074 A  
HETATM   20  C   UNL     1     -10.809  16.359  68.753  1.00  0.00    -0.338 A  
BRANCH  20  21
HETATM   21  C   UNL     1     -11.537  15.603  69.770  1.00  0.00    -0.352 A  
HETATM   22  N   UNL     1     -11.021  14.534  70.414  1.00  0.00    -0.486 NA 
HETATM   23  N   UNL     1     -12.068  14.158  71.157  1.00  0.00    -0.345 NA 
HETATM   24  H   UNL     1     -10.089  14.126  70.352  1.00  0.00     0.000 HD 
HETATM   25  N   UNL     1     -13.166  14.916  71.044  1.00  0.00    -0.391 NA 
HETATM   26  N   UNL     1     -12.848  15.824  70.129  1.00  0.00    -0.226 NA 
ENDBRANCH  20  21
ENDBRANCH  12  15
ENDBRANCH   8   9
ENDBRANCH   6   8
BRANCH   6  27
HETATM   27  C   UNL     1      -8.210   9.120  65.646  1.00  0.00    -0.120 C  
HETATM   28  C   UNL     1      -6.788   9.736  65.455  1.00  0.00    -0.101 C  
HETATM   29  O   UNL     1      -5.879   9.111  64.910  1.00  0.00    -0.061 OA 
HETATM   30  C   UNL     1      -9.027   9.096  64.317  1.00  0.00    -0.076 C  
HETATM   31  O   UNL     1      -6.592  11.018  65.808  1.00  0.00    -0.058 OA 
HETATM   32  C   UNL     1      -9.846  10.349  64.030  1.00  0.00    -0.355 C  
HETATM   33  C   UNL     1      -8.220   8.678  63.087  1.00  0.00    -0.170 C  
ENDBRANCH   6  27
ENDBRANCH   4   5
ENDBRANCH   3   4
ENDBRANCH   2   3
TORSDOF 8
ENDMDL
MODEL      235
REMARK 921   NORMALIZED FREE ENERGY PREDICTED BY IDOCK:   -4.08 KCAL/MOL
REMARK 922        TOTAL FREE ENERGY PREDICTED BY IDOCK:   -6.51 KCAL/MOL
REMARK 923 INTER-LIGAND FREE ENERGY PREDICTED BY IDOCK:   -6.63 KCAL/MOL
REMARK 924 INTRA-LIGAND FREE ENERGY PREDICTED BY IDOCK:    0.12 KCAL/MOL
REMARK 927      BINDING AFFINITY PREDICTED BY RF-SCORE:    0.00 PKD
ROOT
HETATM    1  C   UNL     1     -10.197  19.811  68.521  1.00  0.00    -0.547 C  
HETATM    2  C   UNL     1      -9.657  18.412  68.735  1.00  0.00    -0.345 C  
ENDROOT
BRANCH   2   3
HETATM    3  C   UNL     1     -10.547  17.335  68.109  1.00  0.00    -0.386 C  
BRANCH   3   4
HETATM    4  C   UNL     1      -9.793  16.005  68.097  1.00  0.00    -0.222 C  
BRANCH   4   5
HETATM    5  C   UNL     1     -10.349  14.983  67.130  1.00  0.00    -0.257 C  
HETATM    6  N   UNL     1      -9.492  14.009  66.620  1.00  0.00    -0.280 N  
HETATM    7  O   UNL     1     -11.535  15.026  66.792  1.00  0.00    -0.330 OA 
BRANCH   6   8
HETATM    8  C   UNL     1      -8.062  13.904  67.035  1.00  0.00     0.008 C  
BRANCH   8   9
HETATM    9  C   UNL     1      -7.656  12.545  67.579  1.00  0.00    -0.156 A  
HETATM   10  C   UNL     1      -7.198  11.550  66.716  1.00  0.00    -0.111 A  
HETATM   11  C   UNL     1      -7.128  10.215  67.142  1.00  0.00    -0.089 A  
HETATM   12  C   UNL     1      -7.422   9.820  68.460  1.00  0.00    -0.079 A  
HETATM   13  C   UNL     1      -7.783  12.197  68.927  1.00  0.00     0.036 A  
HETATM   14  C   UNL     1      -7.638  10.868  69.367  1.00  0.00    -0.097 A  
BRANCH  12  15
HETATM   15  C   UNL     1      -7.501   8.365  68.830  1.00  0.00    -0.092 A  
HETATM   16  C   UNL     1      -6.446   7.526  68.367  1.00  0.00    -0.045 A  
HETATM   17  C   UNL     1      -6.448   6.138  68.511  1.00  0.00    -0.053 A  
HETATM   18  C   UNL     1      -7.495   5.524  69.174  1.00  0.00    -0.078 A  
HETATM   19  C   UNL     1      -8.524   6.308  69.687  1.00  0.00    -0.129 A  
HETATM   20  C   UNL     1      -8.559   7.720  69.527  1.00  0.00    -0.135 A  
BRANCH  20  21
HETATM   21  C   UNL     1      -9.741   8.359  70.101  1.00  0.00    -0.173 A  
HETATM   22  N   UNL     1     -10.844   8.664  69.385  1.00  0.00    -0.391 NA 
HETATM   23  N   UNL     1     -11.582   9.287  70.311  1.00  0.00    -0.177 NA 
HETATM   24  H   UNL     1     -11.056   8.472  68.406  1.00  0.00     0.000 HD 
HETATM   25  N   UNL     1     -11.040   9.366  71.533  1.00  0.00    -0.376 NA 
HETATM   26  N   UNL     1      -9.844   8.806  71.400  1.00  0.00    -0.254 NA 
ENDBRANCH  20  21
ENDBRANCH  12  15
ENDBRANCH   8   9
ENDBRANCH   6   8
BRANCH   6  27
HETATM   27  C   UNL     1     -10.050  12.866  65.806  1.00  0.00    -0.287 C  
HETATM   28  C   UNL     1     -10.902  13.130  64.524  1.00  0.00    -0.383 C  
HETATM   29  O   UNL     1     -10.858  12.376  63.553  1.00  0.00    -0.437 OA 
HETATM   30  C   UNL     1     -10.636  11.712  66.679  1.00  0.00    -0.281 C  
HETATM   31  O   UNL     1     -11.774  14.151  64.533  1.00  0.00    -0.387 OA 
HETATM   32  C   UNL     1     -11.670  12.136  67.716  1.00  0.00    -0.390 C  
HETATM   33  C   UNL     1     -11.128  10.504  65.879  1.00  0.00     0.290 C  
ENDBRANCH   6  27
ENDBRANCH   4   5
ENDBRANCH   3   4
ENDBRANCH   2   3
TORSDOF 8
ENDMDL
MODEL      236
REMARK 921   NORMALIZED FREE ENERGY PREDICTED BY IDOCK:   -4.07 KCAL/MOL
REMARK 922        TOTAL FREE ENERGY PREDICTED BY IDOCK:   -6.49 KCAL/MOL
REMARK 923 INTER-LIGAND FREE ENERGY PREDICTED BY IDOCK:   -6.27 KCAL/MOL
REMARK 924 INTRA-LIGAND FREE ENERGY PREDICTED BY IDOCK:   -0.23 KCAL/MOL
REMARK 927      BINDING AFFINITY PREDICTED BY RF-SCORE:    0.00 PKD
ROOT
HETATM    1  C   UNL     1     -13.749   9.834  71.458  1.00  0.00    -0.264 C  
HETATM    2  C   UNL     1     -14.178   8.431  71.836  1.00  0.00    -0.541 C  
ENDROOT
BRANCH   2   3
HETATM    3  C   UNL     1     -13.323   7.354  71.165  1.00  0.00    -0.251 C  
BRANCH   3   4
HETATM    4  C   UNL     1     -12.374   6.749  72.200  1.00  0.00    -0.234 C  
BRANCH   4   5
HETATM    5  C   UNL     1     -10.993   7.368  72.216  1.00  0.00    -0.254 C  
HETATM    6  N   UNL     1      -9.898   6.570  71.890  1.00  0.00    -0.158 N  
HETATM    7  O   UNL     1     -10.846   8.554  72.529  1.00  0.00    -0.337 OA 
BRANCH   6   8
HETATM    8  C   UNL     1     -10.043   5.145  71.472  1.00  0.00    -0.193 C  
BRANCH   8   9
HETATM    9  C   UNL     1     -10.125   4.929  69.970  1.00  0.00    -0.337 A  
HETATM   10  C   UNL     1      -9.501   3.827  69.383  1.00  0.00    -0.257 A  
HETATM   11  C   UNL     1      -9.293   3.783  67.996  1.00  0.00    -0.232 A  
HETATM   12  C   UNL     1      -9.768   4.778  67.123  1.00  0.00    -0.207 A  
HETATM   13  C   UNL     1     -10.750   5.831  69.104  1.00  0.00    -0.370 A  
HETATM   14  C   UNL     1     -10.602   5.742  67.708  1.00  0.00    -0.310 A  
BRANCH  12  15
HETATM   15  C   UNL     1      -9.377   4.782  65.672  1.00  0.00    -0.166 A  
HETATM   16  C   UNL     1      -9.705   3.619  64.914  1.00  0.00    -0.172 A  
HETATM   17  C   UNL     1      -9.288   3.416  63.598  1.00  0.00    -0.108 A  
HETATM   18  C   UNL     1      -8.558   4.398  62.956  1.00  0.00    -0.108 A  
HETATM   19  C   UNL     1      -8.256   5.574  63.639  1.00  0.00    -0.106 A  
HETATM   20  C   UNL     1      -8.643   5.791  64.989  1.00  0.00    -0.089 A  
BRANCH  20  21
HETATM   21  C   UNL     1      -8.198   7.068  65.542  1.00  0.00    -0.135 A  
HETATM   22  N   UNL     1      -7.244   7.176  66.492  1.00  0.00    -0.077 NA 
HETATM   23  N   UNL     1      -7.257   8.495  66.713  1.00  0.00    -0.074 NA 
HETATM   24  H   UNL     1      -6.672   6.450  66.923  1.00  0.00     0.000 HD 
HETATM   25  N   UNL     1      -8.112   9.204  65.966  1.00  0.00    -0.109 NA 
HETATM   26  N   UNL     1      -8.747   8.294  65.237  1.00  0.00    -0.132 NA 
ENDBRANCH  20  21
ENDBRANCH  12  15
ENDBRANCH   8   9
ENDBRANCH   6   8
BRANCH   6  27
HETATM   27  C   UNL     1      -8.536   7.197  71.712  1.00  0.00    -0.113 C  
HETATM   28  C   UNL     1      -7.784   7.848  72.916  1.00  0.00    -0.121 C  
HETATM   29  O   UNL     1      -6.558   7.807  73.011  1.00  0.00    -0.062 OA 
HETATM   30  C   UNL     1      -8.409   8.044  70.407  1.00  0.00    -0.120 C  
HETATM   31  O   UNL     1      -8.496   8.553  73.811  1.00  0.00    -0.337 OA 
HETATM   32  C   UNL     1      -9.478   9.115  70.216  1.00  0.00    -0.253 C  
HETATM   33  C   UNL     1      -7.012   8.617  70.160  1.00  0.00    -0.043 C  
ENDBRANCH   6  27
ENDBRANCH   4   5
ENDBRANCH   3   4
ENDBRANCH   2   3
TORSDOF 8
ENDMDL
MODEL      237
REMARK 921   NORMALIZED FREE ENERGY PREDICTED BY IDOCK:   -4.02 KCAL/MOL
REMARK 922        TOTAL FREE ENERGY PREDICTED BY IDOCK:   -6.43 KCAL/MOL
REMARK 923 INTER-LIGAND FREE ENERGY PREDICTED BY IDOCK:   -6.69 KCAL/MOL
REMARK 924 INTRA-LIGAND FREE ENERGY PREDICTED BY IDOCK:    0.26 KCAL/MOL
REMARK 927      BINDING AFFINITY PREDICTED BY RF-SCORE:    0.00 PKD
ROOT
HETATM    1  C   UNL     1      -5.873  18.802  65.711  1.00  0.00    -0.215 C  
HETATM    2  C   UNL     1      -7.309  18.430  66.016  1.00  0.00    -0.273 C  
ENDROOT
BRANCH   2   3
HETATM    3  C   UNL     1      -7.463  16.963  66.425  1.00  0.00    -0.323 C  
BRANCH   3   4
HETATM    4  C   UNL     1      -8.100  16.894  67.814  1.00  0.00    -0.188 C  
BRANCH   4   5
HETATM    5  C   UNL     1      -9.361  16.058  67.879  1.00  0.00    -0.208 C  
HETATM    6  N   UNL     1      -9.270  14.745  68.338  1.00  0.00    -0.184 N  
HETATM    7  O   UNL     1     -10.441  16.532  67.515  1.00  0.00    -0.299 OA 
BRANCH   6   8
HETATM    8  C   UNL     1      -7.989  14.153  68.821  1.00  0.00    -0.102 C  
BRANCH   8   9
HETATM    9  C   UNL     1      -7.674  12.777  68.258  1.00  0.00    -0.136 A  
HETATM   10  C   UNL     1      -6.768  12.638  67.205  1.00  0.00    -0.105 A  
HETATM   11  C   UNL     1      -6.709  11.443  66.472  1.00  0.00    -0.070 A  
HETATM   12  C   UNL     1      -7.473  10.309  66.800  1.00  0.00    -0.107 A  
HETATM   13  C   UNL     1      -8.307  11.611  68.699  1.00  0.00    -0.100 A  
HETATM   14  C   UNL     1      -8.186  10.393  68.005  1.00  0.00    -0.114 A  
BRANCH  12  15
HETATM   15  C   UNL     1      -7.508   9.113  65.891  1.00  0.00    -0.094 A  
HETATM   16  C   UNL     1      -6.576   8.069  66.165  1.00  0.00    -0.047 A  
HETATM   17  C   UNL     1      -6.394   6.963  65.334  1.00  0.00    -0.043 A  
HETATM   18  C   UNL     1      -7.177   6.824  64.204  1.00  0.00    -0.071 A  
HETATM   19  C   UNL     1      -8.135   7.794  63.921  1.00  0.00    -0.052 A  
HETATM   20  C   UNL     1      -8.320   8.944  64.735  1.00  0.00    -0.184 A  
BRANCH  20  21
HETATM   21  C   UNL     1      -9.346   9.864  64.250  1.00  0.00    -0.253 A  
HETATM   22  N   UNL     1      -9.497  10.192  62.949  1.00  0.00    -0.410 NA 
HETATM   23  N   UNL     1     -10.481  11.095  63.029  1.00  0.00    -0.182 NA 
HETATM   24  H   UNL     1      -8.998   9.846  62.130  1.00  0.00     0.000 HD 
HETATM   25  N   UNL     1     -10.961  11.327  64.258  1.00  0.00    -0.333 NA 
HETATM   26  N   UNL     1     -10.215  10.569  65.052  1.00  0.00    -0.317 NA 
ENDBRANCH  20  21
ENDBRANCH  12  15
ENDBRANCH   8   9
ENDBRANCH   6   8
BRANCH   6  27
HETATM   27  C   UNL     1     -10.528  13.949  68.594  1.00  0.00    -0.246 C  
HETATM   28  C   UNL     1     -11.533  13.637  67.441  1.00  0.00    -0.336 C  
HETATM   29  O   UNL     1     -12.169  12.584  67.404  1.00  0.00    -0.430 OA 
HETATM   30  C   UNL     1     -11.251  14.343  69.920  1.00  0.00    -0.226 C  
HETATM   31  O   UNL     1     -11.777  14.591  66.527  1.00  0.00    -0.374 OA 
HETATM   32  C   UNL     1     -11.561  15.827  70.080  1.00  0.00    -0.361 C  
HETATM   33  C   UNL     1     -12.479  13.491  70.245  1.00  0.00    -0.309 C  
ENDBRANCH   6  27
ENDBRANCH   4   5
ENDBRANCH   3   4
ENDBRANCH   2   3
TORSDOF 8
ENDMDL
MODEL      238
REMARK 921   NORMALIZED FREE ENERGY PREDICTED BY IDOCK:   -4.02 KCAL/MOL
REMARK 922        TOTAL FREE ENERGY PREDICTED BY IDOCK:   -6.42 KCAL/MOL
REMARK 923 INTER-LIGAND FREE ENERGY PREDICTED BY IDOCK:   -6.82 KCAL/MOL
REMARK 924 INTRA-LIGAND FREE ENERGY PREDICTED BY IDOCK:    0.40 KCAL/MOL
REMARK 927      BINDING AFFINITY PREDICTED BY RF-SCORE:    0.00 PKD
ROOT
HETATM    1  C   UNL     1     -11.860  13.401  69.833  1.00  0.00    -0.385 C  
HETATM    2  C   UNL     1     -11.856  13.393  68.317  1.00  0.00    -0.393 C  
ENDROOT
BRANCH   2   3
HETATM    3  C   UNL     1     -11.877  14.802  67.721  1.00  0.00    -0.322 C  
BRANCH   3   4
HETATM    4  C   UNL     1     -11.159  14.787  66.372  1.00  0.00    -0.340 C  
BRANCH   4   5
HETATM    5  C   UNL     1     -10.259  15.980  66.131  1.00  0.00    -0.324 C  
HETATM    6  N   UNL     1      -9.294  16.294  67.087  1.00  0.00    -0.219 N  
HETATM    7  O   UNL     1     -10.394  16.667  65.114  1.00  0.00    -0.630 OA 
BRANCH   6   8
HETATM    8  C   UNL     1      -9.078  15.465  68.308  1.00  0.00    -0.187 C  
BRANCH   8   9
HETATM    9  C   UNL     1      -8.271  14.197  68.082  1.00  0.00    -0.149 A  
HETATM   10  C   UNL     1      -8.577  13.351  67.015  1.00  0.00    -0.168 A  
HETATM   11  C   UNL     1      -8.070  12.043  66.978  1.00  0.00    -0.158 A  
HETATM   12  C   UNL     1      -7.173  11.546  67.940  1.00  0.00    -0.085 A  
HETATM   13  C   UNL     1      -7.254  13.779  68.943  1.00  0.00    -0.095 A  
HETATM   14  C   UNL     1      -6.692  12.491  68.858  1.00  0.00    -0.098 A  
BRANCH  12  15
HETATM   15  C   UNL     1      -6.790  10.092  67.961  1.00  0.00    -0.071 A  
HETATM   16  C   UNL     1      -5.788   9.679  67.035  1.00  0.00    -0.051 A  
HETATM   17  C   UNL     1      -5.425   8.346  66.839  1.00  0.00    -0.037 A  
HETATM   18  C   UNL     1      -6.021   7.359  67.602  1.00  0.00    -0.038 A  
HETATM   19  C   UNL     1      -6.971   7.720  68.554  1.00  0.00    -0.071 A  
HETATM   20  C   UNL     1      -7.378   9.067  68.752  1.00  0.00    -0.076 A  
BRANCH  20  21
HETATM   21  C   UNL     1      -8.414   9.237  69.768  1.00  0.00    -0.149 A  
HETATM   22  N   UNL     1      -8.153   9.318  71.091  1.00  0.00    -0.327 NA 
HETATM   23  N   UNL     1      -9.392   9.383  71.589  1.00  0.00    -0.181 NA 
HETATM   24  H   UNL     1      -7.256   9.327  71.576  1.00  0.00     0.000 HD 
HETATM   25  N   UNL     1     -10.384   9.376  70.689  1.00  0.00    -0.262 NA 
HETATM   26  N   UNL     1      -9.768   9.245  69.520  1.00  0.00    -0.166 NA 
ENDBRANCH  20  21
ENDBRANCH  12  15
ENDBRANCH   8   9
ENDBRANCH   6   8
BRANCH   6  27
HETATM   27  C   UNL     1      -8.261  17.356  66.793  1.00  0.00    -0.249 C  
HETATM   28  C   UNL     1      -6.936  17.441  67.614  1.00  0.00    -0.162 C  
HETATM   29  O   UNL     1      -5.878  17.803  67.100  1.00  0.00    -0.128 OA 
HETATM   30  C   UNL     1      -8.879  18.762  66.518  1.00  0.00    -0.315 C  
HETATM   31  O   UNL     1      -6.986  17.208  68.936  1.00  0.00    -0.209 OA 
HETATM   32  C   UNL     1      -9.832  19.278  67.590  1.00  0.00    -0.429 C  
HETATM   33  C   UNL     1      -7.859  19.835  66.131  1.00  0.00    -0.344 C  
ENDBRANCH   6  27
ENDBRANCH   4   5
ENDBRANCH   3   4
ENDBRANCH   2   3
TORSDOF 8
ENDMDL
MODEL      239
REMARK 921   NORMALIZED FREE ENERGY PREDICTED BY IDOCK:   -4.02 KCAL/MOL
REMARK 922        TOTAL FREE ENERGY PREDICTED BY IDOCK:   -6.42 KCAL/MOL
REMARK 923 INTER-LIGAND FREE ENERGY PREDICTED BY IDOCK:   -6.49 KCAL/MOL
REMARK 924 INTRA-LIGAND FREE ENERGY PREDICTED BY IDOCK:    0.06 KCAL/MOL
REMARK 927      BINDING AFFINITY PREDICTED BY RF-SCORE:    0.00 PKD
ROOT
HETATM    1  C   UNL     1      -9.068   4.614  71.844  1.00  0.00    -0.162 C  
HETATM    2  C   UNL     1      -9.587   5.023  70.481  1.00  0.00    -0.252 C  
ENDROOT
BRANCH   2   3
HETATM    3  C   UNL     1     -10.073   6.474  70.447  1.00  0.00    -0.213 C  
BRANCH   3   4
HETATM    4  C   UNL     1      -8.889   7.392  70.137  1.00  0.00    -0.147 C  
BRANCH   4   5
HETATM    5  C   UNL     1      -7.870   6.795  69.191  1.00  0.00    -0.111 C  
HETATM    6  N   UNL     1      -8.229   6.598  67.858  1.00  0.00    -0.119 N  
HETATM    7  O   UNL     1      -6.750   6.478  69.602  1.00  0.00    -0.046 OA 
BRANCH   6   8
HETATM    8  C   UNL     1      -9.559   7.004  67.319  1.00  0.00    -0.141 C  
BRANCH   8   9
HETATM    9  C   UNL     1      -9.719   8.496  67.080  1.00  0.00    -0.266 A  
HETATM   10  C   UNL     1     -10.755   9.200  67.695  1.00  0.00    -0.257 A  
HETATM   11  C   UNL     1     -11.110  10.480  67.244  1.00  0.00    -0.284 A  
HETATM   12  C   UNL     1     -10.404  11.154  66.232  1.00  0.00    -0.299 A  
HETATM   13  C   UNL     1      -8.907   9.217  66.200  1.00  0.00    -0.187 A  
HETATM   14  C   UNL     1      -9.222  10.530  65.806  1.00  0.00    -0.215 A  
BRANCH  12  15
HETATM   15  C   UNL     1     -10.918  12.447  65.661  1.00  0.00    -0.321 A  
HETATM   16  C   UNL     1     -12.029  12.360  64.771  1.00  0.00    -0.462 A  
HETATM   17  C   UNL     1     -12.529  13.450  64.058  1.00  0.00    -0.310 A  
HETATM   18  C   UNL     1     -11.967  14.700  64.241  1.00  0.00    -0.406 A  
HETATM   19  C   UNL     1     -10.911  14.842  65.138  1.00  0.00    -0.410 A  
HETATM   20  C   UNL     1     -10.365  13.743  65.853  1.00  0.00    -0.315 A  
BRANCH  20  21
HETATM   21  C   UNL     1      -9.237  14.089  66.715  1.00  0.00    -0.265 A  
HETATM   22  N   UNL     1      -8.401  15.121  66.469  1.00  0.00    -0.398 NA 
HETATM   23  N   UNL     1      -7.520  14.974  67.464  1.00  0.00    -0.186 NA 
HETATM   24  H   UNL     1      -8.434  15.820  65.728  1.00  0.00     0.000 HD 
HETATM   25  N   UNL     1      -7.757  13.963  68.310  1.00  0.00    -0.126 NA 
HETATM   26  N   UNL     1      -8.836  13.366  67.816  1.00  0.00    -0.187 NA 
ENDBRANCH  20  21
ENDBRANCH  12  15
ENDBRANCH   8   9
ENDBRANCH   6   8
BRANCH   6  27
HETATM   27  C   UNL     1      -7.183   6.184  66.851  1.00  0.00    -0.074 C  
HETATM   28  C   UNL     1      -7.461   6.273  65.316  1.00  0.00    -0.084 C  
HETATM   29  O   UNL     1      -6.571   6.547  64.513  1.00  0.00    -0.036 OA 
HETATM   30  C   UNL     1      -6.431   4.873  67.241  1.00  0.00    -0.045 C  
HETATM   31  O   UNL     1      -8.683   5.942  64.867  1.00  0.00    -0.090 OA 
HETATM   32  C   UNL     1      -7.322   3.676  67.553  1.00  0.00    -0.066 C  
HETATM   33  C   UNL     1      -5.306   4.482  66.281  1.00  0.00    -0.009 C  
ENDBRANCH   6  27
ENDBRANCH   4   5
ENDBRANCH   3   4
ENDBRANCH   2   3
TORSDOF 8
ENDMDL
MODEL      240
REMARK 921   NORMALIZED FREE ENERGY PREDICTED BY IDOCK:   -4.01 KCAL/MOL
REMARK 922        TOTAL FREE ENERGY PREDICTED BY IDOCK:   -6.42 KCAL/MOL
REMARK 923 INTER-LIGAND FREE ENERGY PREDICTED BY IDOCK:   -6.57 KCAL/MOL
REMARK 924 INTRA-LIGAND FREE ENERGY PREDICTED BY IDOCK:    0.15 KCAL/MOL
REMARK 927      BINDING AFFINITY PREDICTED BY RF-SCORE:    0.00 PKD
ROOT
HETATM    1  C   UNL     1     -11.778  11.773  63.573  1.00  0.00    -0.485 C  
HETATM    2  C   UNL     1     -13.032  12.493  64.025  1.00  0.00    -0.212 C  
ENDROOT
BRANCH   2   3
HETATM    3  C   UNL     1     -12.730  13.687  64.934  1.00  0.00    -0.320 C  
BRANCH   3   4
HETATM    4  C   UNL     1     -12.135  13.179  66.248  1.00  0.00    -0.460 C  
BRANCH   4   5
HETATM    5  C   UNL     1     -11.267  14.187  66.969  1.00  0.00    -0.318 C  
HETATM    6  N   UNL     1      -9.882  14.063  66.880  1.00  0.00    -0.259 N  
HETATM    7  O   UNL     1     -11.783  15.090  67.635  1.00  0.00    -0.342 OA 
BRANCH   6   8
HETATM    8  C   UNL     1      -9.224  13.007  66.055  1.00  0.00     0.083 C  
BRANCH   8   9
HETATM    9  C   UNL     1      -9.042  11.673  66.758  1.00  0.00    -0.186 A  
HETATM   10  C   UNL     1      -7.966  11.476  67.625  1.00  0.00    -0.126 A  
HETATM   11  C   UNL     1      -7.602  10.181  68.024  1.00  0.00    -0.088 A  
HETATM   12  C   UNL     1      -8.334   9.037  67.657  1.00  0.00    -0.117 A  
HETATM   13  C   UNL     1      -9.874  10.573  66.530  1.00  0.00    -0.255 A  
HETATM   14  C   UNL     1      -9.546   9.286  66.995  1.00  0.00    -0.223 A  
BRANCH  12  15
HETATM   15  C   UNL     1      -7.816   7.660  67.960  1.00  0.00    -0.121 A  
HETATM   16  C   UNL     1      -7.616   6.789  66.849  1.00  0.00    -0.091 A  
HETATM   17  C   UNL     1      -7.273   5.443  66.980  1.00  0.00    -0.078 A  
HETATM   18  C   UNL     1      -7.064   4.912  68.239  1.00  0.00    -0.061 A  
HETATM   19  C   UNL     1      -7.199   5.737  69.352  1.00  0.00    -0.066 A  
HETATM   20  C   UNL     1      -7.577   7.103  69.247  1.00  0.00    -0.102 A  
BRANCH  20  21
HETATM   21  C   UNL     1      -7.704   7.790  70.531  1.00  0.00    -0.088 A  
HETATM   22  N   UNL     1      -8.868   7.890  71.209  1.00  0.00    -0.131 NA 
HETATM   23  N   UNL     1      -8.493   8.654  72.241  1.00  0.00    -0.372 NA 
HETATM   24  H   UNL     1      -9.781   7.493  70.993  1.00  0.00     0.000 HD 
HETATM   25  N   UNL     1      -7.201   9.006  72.267  1.00  0.00    -0.325 NA 
HETATM   26  N   UNL     1      -6.695   8.487  71.155  1.00  0.00    -0.055 NA 
ENDBRANCH  20  21
ENDBRANCH  12  15
ENDBRANCH   8   9
ENDBRANCH   6   8
BRANCH   6  27
HETATM   27  C   UNL     1      -8.991  15.153  67.427  1.00  0.00    -0.183 C  
HETATM   28  C   UNL     1      -8.999  15.516  68.946  1.00  0.00    -0.220 C  
HETATM   29  O   UNL     1      -7.980  15.884  69.528  1.00  0.00    -0.224 OA 
HETATM   30  C   UNL     1      -8.932  16.419  66.516  1.00  0.00    -0.311 C  
HETATM   31  O   UNL     1     -10.174  15.518  69.597  1.00  0.00    -0.253 OA 
HETATM   32  C   UNL     1     -10.283  17.020  66.143  1.00  0.00    -0.346 C  
HETATM   33  C   UNL     1      -7.968  17.502  67.004  1.00  0.00    -0.240 C  
ENDBRANCH   6  27
ENDBRANCH   4   5
ENDBRANCH   3   4
ENDBRANCH   2   3
TORSDOF 8
ENDMDL
MODEL      241
REMARK 921   NORMALIZED FREE ENERGY PREDICTED BY IDOCK:   -4.00 KCAL/MOL
REMARK 922        TOTAL FREE ENERGY PREDICTED BY IDOCK:   -6.40 KCAL/MOL
REMARK 923 INTER-LIGAND FREE ENERGY PREDICTED BY IDOCK:   -7.06 KCAL/MOL
REMARK 924 INTRA-LIGAND FREE ENERGY PREDICTED BY IDOCK:    0.66 KCAL/MOL
REMARK 927      BINDING AFFINITY PREDICTED BY RF-SCORE:    0.00 PKD
ROOT
HETATM    1  C   UNL     1     -11.982  14.326  66.748  1.00  0.00    -0.462 C  
HETATM    2  C   UNL     1     -12.148  13.397  67.933  1.00  0.00    -0.289 C  
ENDROOT
BRANCH   2   3
HETATM    3  C   UNL     1     -10.917  12.517  68.167  1.00  0.00    -0.260 C  
BRANCH   3   4
HETATM    4  C   UNL     1      -9.750  13.057  67.340  1.00  0.00    -0.213 C  
BRANCH   4   5
HETATM    5  C   UNL     1      -8.792  11.994  66.847  1.00  0.00    -0.197 C  
HETATM    6  N   UNL     1      -7.638  11.738  67.587  1.00  0.00    -0.123 N  
HETATM    7  O   UNL     1      -9.027  11.381  65.802  1.00  0.00    -0.204 OA 
BRANCH   6   8
HETATM    8  C   UNL     1      -7.341  12.433  68.873  1.00  0.00    -0.031 C  
BRANCH   8   9
HETATM    9  C   UNL     1      -6.908  13.882  68.728  1.00  0.00    -0.105 A  
HETATM   10  C   UNL     1      -7.457  14.866  69.550  1.00  0.00    -0.162 A  
HETATM   11  C   UNL     1      -7.317  16.224  69.225  1.00  0.00    -0.221 A  
HETATM   12  C   UNL     1      -6.559  16.670  68.128  1.00  0.00    -0.148 A  
HETATM   13  C   UNL     1      -6.014  14.314  67.743  1.00  0.00    -0.112 A  
HETATM   14  C   UNL     1      -5.818  15.679  67.467  1.00  0.00    -0.103 A  
BRANCH  12  15
HETATM   15  C   UNL     1      -6.576  18.115  67.714  1.00  0.00    -0.189 A  
HETATM   16  C   UNL     1      -5.534  18.943  68.226  1.00  0.00    -0.190 A  
HETATM   17  C   UNL     1      -5.491  20.326  68.046  1.00  0.00    -0.233 A  
HETATM   18  C   UNL     1      -6.474  20.945  67.296  1.00  0.00    -0.389 A  
HETATM   19  C   UNL     1      -7.485  20.170  66.734  1.00  0.00    -0.317 A  
HETATM   20  C   UNL     1      -7.567  18.766  66.928  1.00  0.00    -0.238 A  
BRANCH  20  21
HETATM   21  C   UNL     1      -8.723  18.138  66.291  1.00  0.00    -0.172 A  
HETATM   22  N   UNL     1      -9.929  18.735  66.184  1.00  0.00    -0.477 NA 
HETATM   23  N   UNL     1     -10.645  17.756  65.620  1.00  0.00    -0.579 NA 
HETATM   24  H   UNL     1     -10.215  19.675  66.457  1.00  0.00     0.000 HD 
HETATM   25  N   UNL     1      -9.979  16.627  65.350  1.00  0.00    -0.553 NA 
HETATM   26  N   UNL     1      -8.754  16.848  65.811  1.00  0.00    -0.476 NA 
ENDBRANCH  20  21
ENDBRANCH  12  15
ENDBRANCH   8   9
ENDBRANCH   6   8
BRANCH   6  27
HETATM   27  C   UNL     1      -6.761  10.562  67.229  1.00  0.00    -0.077 C  
HETATM   28  C   UNL     1      -6.397  10.249  65.744  1.00  0.00    -0.111 C  
HETATM   29  O   UNL     1      -5.306   9.773  65.431  1.00  0.00    -0.045 OA 
HETATM   30  C   UNL     1      -7.094   9.272  68.042  1.00  0.00    -0.078 C  
HETATM   31  O   UNL     1      -7.343  10.413  64.804  1.00  0.00    -0.124 OA 
HETATM   32  C   UNL     1      -8.553   8.833  68.004  1.00  0.00    -0.134 C  
HETATM   33  C   UNL     1      -6.161   8.092  67.762  1.00  0.00    -0.051 C  
ENDBRANCH   6  27
ENDBRANCH   4   5
ENDBRANCH   3   4
ENDBRANCH   2   3
TORSDOF 8
ENDMDL
MODEL      242
REMARK 921   NORMALIZED FREE ENERGY PREDICTED BY IDOCK:   -4.00 KCAL/MOL
REMARK 922        TOTAL FREE ENERGY PREDICTED BY IDOCK:   -6.40 KCAL/MOL
REMARK 923 INTER-LIGAND FREE ENERGY PREDICTED BY IDOCK:   -5.92 KCAL/MOL
REMARK 924 INTRA-LIGAND FREE ENERGY PREDICTED BY IDOCK:   -0.48 KCAL/MOL
REMARK 927      BINDING AFFINITY PREDICTED BY RF-SCORE:    0.00 PKD
ROOT
HETATM    1  C   UNL     1     -11.063   4.614  64.872  1.00  0.00     0.192 C  
HETATM    2  C   UNL     1      -9.695   4.003  65.100  1.00  0.00    -0.196 C  
ENDROOT
BRANCH   2   3
HETATM    3  C   UNL     1      -8.634   5.049  65.451  1.00  0.00    -0.143 C  
BRANCH   3   4
HETATM    4  C   UNL     1      -9.304   6.222  66.166  1.00  0.00    -0.117 C  
BRANCH   4   5
HETATM    5  C   UNL     1      -9.305   6.114  67.675  1.00  0.00    -0.112 C  
HETATM    6  N   UNL     1      -8.391   6.875  68.402  1.00  0.00    -0.120 N  
HETATM    7  O   UNL     1     -10.093   5.351  68.244  1.00  0.00    -0.157 OA 
BRANCH   6   8
HETATM    8  C   UNL     1      -7.451   7.833  67.750  1.00  0.00    -0.104 C  
BRANCH   8   9
HETATM    9  C   UNL     1      -8.103   9.096  67.212  1.00  0.00    -0.106 A  
HETATM   10  C   UNL     1      -7.583   9.728  66.082  1.00  0.00    -0.101 A  
HETATM   11  C   UNL     1      -7.960  11.042  65.766  1.00  0.00    -0.013 A  
HETATM   12  C   UNL     1      -8.930  11.753  66.497  1.00  0.00    -0.196 A  
HETATM   13  C   UNL     1      -9.185   9.720  67.838  1.00  0.00    -0.133 A  
HETATM   14  C   UNL     1      -9.613  11.009  67.471  1.00  0.00    -0.178 A  
BRANCH  12  15
HETATM   15  C   UNL     1      -9.180  13.211  66.233  1.00  0.00    -0.074 A  
HETATM   16  C   UNL     1      -8.412  14.143  66.990  1.00  0.00    -0.178 A  
HETATM   17  C   UNL     1      -8.625  15.521  66.958  1.00  0.00    -0.262 A  
HETATM   18  C   UNL     1      -9.595  16.041  66.121  1.00  0.00    -0.366 A  
HETATM   19  C   UNL     1     -10.338  15.173  65.325  1.00  0.00    -0.425 A  
HETATM   20  C   UNL     1     -10.159  13.764  65.362  1.00  0.00    -0.307 A  
BRANCH  20  21
HETATM   21  C   UNL     1     -11.061  13.022  64.482  1.00  0.00    -0.351 A  
HETATM   22  N   UNL     1     -10.647  12.050  63.642  1.00  0.00    -0.411 NA 
HETATM   23  N   UNL     1     -11.792  11.750  63.020  1.00  0.00    -0.077 NA 
HETATM   24  H   UNL     1      -9.716  11.653  63.516  1.00  0.00     0.000 HD 
HETATM   25  N   UNL     1     -12.872  12.432  63.424  1.00  0.00    -0.726 NA 
HETATM   26  N   UNL     1     -12.406  13.276  64.336  1.00  0.00    -0.555 NA 
ENDBRANCH  20  21
ENDBRANCH  12  15
ENDBRANCH   8   9
ENDBRANCH   6   8
BRANCH   6  27
HETATM   27  C   UNL     1      -8.490   6.934  69.908  1.00  0.00    -0.140 C  
HETATM   28  C   UNL     1      -8.011   8.193  70.698  1.00  0.00    -0.096 C  
HETATM   29  O   UNL     1      -8.573   8.563  71.728  1.00  0.00    -0.162 OA 
HETATM   30  C   UNL     1      -8.077   5.602  70.608  1.00  0.00    -0.116 C  
HETATM   31  O   UNL     1      -6.894   8.819  70.290  1.00  0.00    -0.038 OA 
HETATM   32  C   UNL     1      -6.707   5.056  70.221  1.00  0.00    -0.036 C  
HETATM   33  C   UNL     1      -8.253   5.609  72.128  1.00  0.00    -0.112 C  
ENDBRANCH   6  27
ENDBRANCH   4   5
ENDBRANCH   3   4
ENDBRANCH   2   3
TORSDOF 8
ENDMDL
MODEL      243
REMARK 921   NORMALIZED FREE ENERGY PREDICTED BY IDOCK:   -4.00 KCAL/MOL
REMARK 922        TOTAL FREE ENERGY PREDICTED BY IDOCK:   -6.39 KCAL/MOL
REMARK 923 INTER-LIGAND FREE ENERGY PREDICTED BY IDOCK:   -7.04 KCAL/MOL
REMARK 924 INTRA-LIGAND FREE ENERGY PREDICTED BY IDOCK:    0.65 KCAL/MOL
REMARK 927      BINDING AFFINITY PREDICTED BY RF-SCORE:    0.00 PKD
ROOT
HETATM    1  C   UNL     1      -9.414   2.878  68.104  1.00  0.00    -0.220 C  
HETATM    2  C   UNL     1      -9.404   4.371  67.846  1.00  0.00    -0.190 C  
ENDROOT
BRANCH   2   3
HETATM    3  C   UNL     1     -10.090   4.746  66.530  1.00  0.00    -0.286 C  
BRANCH   3   4
HETATM    4  C   UNL     1      -9.031   5.189  65.520  1.00  0.00    -0.156 C  
BRANCH   4   5
HETATM    5  C   UNL     1      -7.987   6.128  66.085  1.00  0.00    -0.108 C  
HETATM    6  N   UNL     1      -8.363   7.430  66.409  1.00  0.00    -0.121 N  
HETATM    7  O   UNL     1      -6.823   5.745  66.237  1.00  0.00    -0.055 OA 
BRANCH   6   8
HETATM    8  C   UNL     1      -9.767   7.915  66.273  1.00  0.00    -0.100 C  
BRANCH   8   9
HETATM    9  C   UNL     1      -9.945   9.412  66.469  1.00  0.00    -0.339 A  
HETATM   10  C   UNL     1      -9.844  10.280  65.382  1.00  0.00    -0.362 A  
HETATM   11  C   UNL     1      -9.685  11.659  65.586  1.00  0.00    -0.262 A  
HETATM   12  C   UNL     1      -9.707  12.248  66.863  1.00  0.00    -0.217 A  
HETATM   13  C   UNL     1     -10.142   9.996  67.723  1.00  0.00    -0.222 A  
HETATM   14  C   UNL     1     -10.056  11.388  67.915  1.00  0.00    -0.198 A  
BRANCH  12  15
HETATM   15  C   UNL     1      -9.362  13.699  67.050  1.00  0.00    -0.249 A  
HETATM   16  C   UNL     1      -8.241  13.991  67.881  1.00  0.00    -0.158 A  
HETATM   17  C   UNL     1      -7.883  15.285  68.260  1.00  0.00    -0.116 A  
HETATM   18  C   UNL     1      -8.606  16.361  67.781  1.00  0.00    -0.172 A  
HETATM   19  C   UNL     1      -9.680  16.127  66.925  1.00  0.00    -0.246 A  
HETATM   20  C   UNL     1     -10.083  14.818  66.549  1.00  0.00    -0.281 A  
BRANCH  20  21
HETATM   21  C   UNL     1     -11.256  14.778  65.677  1.00  0.00    -0.343 A  
HETATM   22  N   UNL     1     -11.342  15.459  64.515  1.00  0.00    -0.674 NA 
HETATM   23  N   UNL     1     -12.595  15.172  64.146  1.00  0.00    -0.692 NA 
HETATM   24  H   UNL     1     -10.643  16.035  64.046  1.00  0.00     0.000 HD 
HETATM   25  N   UNL     1     -13.271  14.356  64.965  1.00  0.00    -0.394 NA 
HETATM   26  N   UNL     1     -12.434  14.128  65.969  1.00  0.00    -0.464 NA 
ENDBRANCH  20  21
ENDBRANCH  12  15
ENDBRANCH   8   9
ENDBRANCH   6   8
BRANCH   6  27
HETATM   27  C   UNL     1      -7.400   8.330  67.147  1.00  0.00    -0.088 C  
HETATM   28  C   UNL     1      -6.060   8.789  66.489  1.00  0.00    -0.057 C  
HETATM   29  O   UNL     1      -5.576   9.898  66.711  1.00  0.00    -0.045 OA 
HETATM   30  C   UNL     1      -7.222   7.948  68.649  1.00  0.00    -0.081 C  
HETATM   31  O   UNL     1      -5.376   7.904  65.744  1.00  0.00    -0.028 OA 
HETATM   32  C   UNL     1      -6.846   6.495  68.914  1.00  0.00    -0.069 C  
HETATM   33  C   UNL     1      -6.319   8.898  69.439  1.00  0.00    -0.044 C  
ENDBRANCH   6  27
ENDBRANCH   4   5
ENDBRANCH   3   4
ENDBRANCH   2   3
TORSDOF 8
ENDMDL
MODEL      244
REMARK 921   NORMALIZED FREE ENERGY PREDICTED BY IDOCK:   -3.97 KCAL/MOL
REMARK 922        TOTAL FREE ENERGY PREDICTED BY IDOCK:   -6.35 KCAL/MOL
REMARK 923 INTER-LIGAND FREE ENERGY PREDICTED BY IDOCK:   -5.79 KCAL/MOL
REMARK 924 INTRA-LIGAND FREE ENERGY PREDICTED BY IDOCK:   -0.56 KCAL/MOL
REMARK 927      BINDING AFFINITY PREDICTED BY RF-SCORE:    0.00 PKD
ROOT
HETATM    1  C   UNL     1      -8.956   3.680  66.096  1.00  0.00    -0.142 C  
HETATM    2  C   UNL     1      -8.648   4.639  67.229  1.00  0.00    -0.104 C  
ENDROOT
BRANCH   2   3
HETATM    3  C   UNL     1      -8.674   6.103  66.783  1.00  0.00    -0.116 C  
BRANCH   3   4
HETATM    4  C   UNL     1      -7.293   6.490  66.252  1.00  0.00    -0.073 C  
BRANCH   4   5
HETATM    5  C   UNL     1      -7.324   7.430  65.066  1.00  0.00    -0.078 C  
HETATM    6  N   UNL     1      -7.036   8.778  65.273  1.00  0.00    -0.082 N  
HETATM    7  O   UNL     1      -7.613   7.006  63.943  1.00  0.00    -0.095 OA 
BRANCH   6   8
HETATM    8  C   UNL     1      -6.646   9.318  66.609  1.00  0.00    -0.068 C  
BRANCH   8   9
HETATM    9  C   UNL     1      -7.809   9.585  67.550  1.00  0.00    -0.102 A  
HETATM   10  C   UNL     1      -7.571   9.917  68.884  1.00  0.00    -0.083 A  
HETATM   11  C   UNL     1      -8.606   9.851  69.829  1.00  0.00    -0.219 A  
HETATM   12  C   UNL     1      -9.934   9.542  69.483  1.00  0.00    -0.205 A  
HETATM   13  C   UNL     1      -9.145   9.449  67.166  1.00  0.00    -0.148 A  
HETATM   14  C   UNL     1     -10.192   9.458  68.106  1.00  0.00    -0.239 A  
BRANCH  12  15
HETATM   15  C   UNL     1     -10.975   9.314  70.543  1.00  0.00    -0.318 A  
HETATM   16  C   UNL     1     -12.081  10.214  70.562  1.00  0.00    -0.380 A  
HETATM   17  C   UNL     1     -13.052  10.216  71.564  1.00  0.00    -0.529 A  
HETATM   18  C   UNL     1     -12.988   9.278  72.578  1.00  0.00    -0.384 A  
HETATM   19  C   UNL     1     -11.953   8.346  72.573  1.00  0.00    -0.418 A  
HETATM   20  C   UNL     1     -10.936   8.342  71.581  1.00  0.00    -0.345 A  
BRANCH  20  21
HETATM   21  C   UNL     1      -9.916   7.313  71.771  1.00  0.00    -0.171 A  
HETATM   22  N   UNL     1      -9.746   6.269  70.931  1.00  0.00    -0.175 NA 
HETATM   23  N   UNL     1      -8.781   5.592  71.563  1.00  0.00    -0.132 NA 
HETATM   24  H   UNL     1     -10.224   6.056  70.056  1.00  0.00     0.000 HD 
HETATM   25  N   UNL     1      -8.328   6.143  72.697  1.00  0.00    -0.121 NA 
HETATM   26  N   UNL     1      -9.076   7.227  72.858  1.00  0.00    -0.135 NA 
ENDBRANCH  20  21
ENDBRANCH  12  15
ENDBRANCH   8   9
ENDBRANCH   6   8
BRANCH   6  27
HETATM   27  C   UNL     1      -6.872   9.703  64.090  1.00  0.00    -0.113 C  
HETATM   28  C   UNL     1      -5.680  10.709  64.012  1.00  0.00    -0.029 C  
HETATM   29  O   UNL     1      -5.154  11.005  62.940  1.00  0.00    -0.179 OA 
HETATM   30  C   UNL     1      -8.215  10.337  63.609  1.00  0.00    -0.158 C  
HETATM   31  O   UNL     1      -5.296  11.335  65.136  1.00  0.00    -0.196 OA 
HETATM   32  C   UNL     1      -9.026  11.047  64.687  1.00  0.00    -0.085 C  
HETATM   33  C   UNL     1      -8.088  11.208  62.358  1.00  0.00    -0.165 C  
ENDBRANCH   6  27
ENDBRANCH   4   5
ENDBRANCH   3   4
ENDBRANCH   2   3
TORSDOF 8
ENDMDL
MODEL      245
REMARK 921   NORMALIZED FREE ENERGY PREDICTED BY IDOCK:   -3.95 KCAL/MOL
REMARK 922        TOTAL FREE ENERGY PREDICTED BY IDOCK:   -6.32 KCAL/MOL
REMARK 923 INTER-LIGAND FREE ENERGY PREDICTED BY IDOCK:   -6.31 KCAL/MOL
REMARK 924 INTRA-LIGAND FREE ENERGY PREDICTED BY IDOCK:   -0.02 KCAL/MOL
REMARK 927      BINDING AFFINITY PREDICTED BY RF-SCORE:    0.00 PKD
ROOT
HETATM    1  C   UNL     1     -11.714  12.812  63.800  1.00  0.00    -0.562 C  
HETATM    2  C   UNL     1     -12.587  12.752  65.037  1.00  0.00    -0.538 C  
ENDROOT
BRANCH   2   3
HETATM    3  C   UNL     1     -12.665  14.094  65.768  1.00  0.00    -0.443 C  
BRANCH   3   4
HETATM    4  C   UNL     1     -12.090  13.932  67.176  1.00  0.00    -0.422 C  
BRANCH   4   5
HETATM    5  C   UNL     1     -11.346  15.147  67.688  1.00  0.00    -0.321 C  
HETATM    6  N   UNL     1     -10.046  15.374  67.239  1.00  0.00    -0.236 N  
HETATM    7  O   UNL     1     -11.881  15.909  68.499  1.00  0.00    -0.366 OA 
BRANCH   6   8
HETATM    8  C   UNL     1      -9.382  14.495  66.232  1.00  0.00    -0.247 C  
BRANCH   8   9
HETATM    9  C   UNL     1      -8.937  13.143  66.763  1.00  0.00    -0.183 A  
HETATM   10  C   UNL     1      -9.879  12.223  67.223  1.00  0.00    -0.208 A  
HETATM   11  C   UNL     1      -9.480  11.125  68.000  1.00  0.00    -0.174 A  
HETATM   12  C   UNL     1      -8.131  10.840  68.281  1.00  0.00    -0.121 A  
HETATM   13  C   UNL     1      -7.592  12.780  66.885  1.00  0.00     0.158 A  
HETATM   14  C   UNL     1      -7.196  11.636  67.602  1.00  0.00    -0.107 A  
BRANCH  12  15
HETATM   15  C   UNL     1      -7.757   9.759  69.255  1.00  0.00    -0.101 A  
HETATM   16  C   UNL     1      -6.913  10.135  70.340  1.00  0.00    -0.119 A  
HETATM   17  C   UNL     1      -6.370   9.221  71.244  1.00  0.00    -0.072 A  
HETATM   18  C   UNL     1      -6.689   7.881  71.132  1.00  0.00    -0.041 A  
HETATM   19  C   UNL     1      -7.551   7.472  70.117  1.00  0.00    -0.088 A  
HETATM   20  C   UNL     1      -8.092   8.379  69.167  1.00  0.00    -0.119 A  
BRANCH  20  21
HETATM   21  C   UNL     1      -8.942   7.752  68.156  1.00  0.00    -0.127 A  
HETATM   22  N   UNL     1      -8.462   7.176  67.034  1.00  0.00    -0.120 NA 
HETATM   23  N   UNL     1      -9.600   6.836  66.419  1.00  0.00    -0.137 NA 
HETATM   24  H   UNL     1      -7.496   7.038  66.736  1.00  0.00     0.000 HD 
HETATM   25  N   UNL     1     -10.729   7.128  67.077  1.00  0.00    -0.354 NA 
HETATM   26  N   UNL     1     -10.319   7.750  68.176  1.00  0.00    -0.202 NA 
ENDBRANCH  20  21
ENDBRANCH  12  15
ENDBRANCH   8   9
ENDBRANCH   6   8
BRANCH   6  27
HETATM   27  C   UNL     1      -9.347  16.668  67.580  1.00  0.00    -0.224 C  
HETATM   28  C   UNL     1      -8.634  17.514  66.478  1.00  0.00    -0.263 C  
HETATM   29  O   UNL     1      -8.604  18.743  66.524  1.00  0.00    -0.290 OA 
HETATM   30  C   UNL     1      -8.518  16.596  68.900  1.00  0.00    -0.233 C  
HETATM   31  O   UNL     1      -7.954  16.869  65.516  1.00  0.00    -0.025 OA 
HETATM   32  C   UNL     1      -7.513  15.453  68.980  1.00  0.00    -0.165 C  
HETATM   33  C   UNL     1      -7.873  17.920  69.313  1.00  0.00     0.143 C  
ENDBRANCH   6  27
ENDBRANCH   4   5
ENDBRANCH   3   4
ENDBRANCH   2   3
TORSDOF 8
ENDMDL
MODEL      246
REMARK 921   NORMALIZED FREE ENERGY PREDICTED BY IDOCK:   -3.95 KCAL/MOL
REMARK 922        TOTAL FREE ENERGY PREDICTED BY IDOCK:   -6.32 KCAL/MOL
REMARK 923 INTER-LIGAND FREE ENERGY PREDICTED BY IDOCK:   -6.56 KCAL/MOL
REMARK 924 INTRA-LIGAND FREE ENERGY PREDICTED BY IDOCK:    0.24 KCAL/MOL
REMARK 927      BINDING AFFINITY PREDICTED BY RF-SCORE:    0.00 PKD
ROOT
HETATM    1  C   UNL     1     -10.904   5.800  73.338  1.00  0.00    -0.295 C  
HETATM    2  C   UNL     1     -10.406   7.085  72.710  1.00  0.00    -0.248 C  
ENDROOT
BRANCH   2   3
HETATM    3  C   UNL     1     -11.529   7.895  72.058  1.00  0.00    -0.351 C  
BRANCH   3   4
HETATM    4  C   UNL     1     -11.075   8.358  70.673  1.00  0.00    -0.278 C  
BRANCH   4   5
HETATM    5  C   UNL     1     -10.776   7.232  69.707  1.00  0.00    -0.239 C  
HETATM    6  N   UNL     1      -9.492   7.130  69.174  1.00  0.00    -0.148 N  
HETATM    7  O   UNL     1     -11.661   6.432  69.390  1.00  0.00    -0.327 OA 
BRANCH   6   8
HETATM    8  C   UNL     1      -8.388   8.056  69.564  1.00  0.00    -0.127 C  
BRANCH   8   9
HETATM    9  C   UNL     1      -8.429   9.415  68.883  1.00  0.00    -0.122 A  
HETATM   10  C   UNL     1      -7.370  10.310  69.038  1.00  0.00    -0.092 A  
HETATM   11  C   UNL     1      -7.527  11.662  68.694  1.00  0.00    -0.117 A  
HETATM   12  C   UNL     1      -8.699  12.167  68.104  1.00  0.00    -0.185 A  
HETATM   13  C   UNL     1      -9.527   9.862  68.143  1.00  0.00    -0.149 A  
HETATM   14  C   UNL     1      -9.648  11.203  67.733  1.00  0.00    -0.180 A  
BRANCH  12  15
HETATM   15  C   UNL     1      -8.890  13.645  67.911  1.00  0.00    -0.188 A  
HETATM   16  C   UNL     1      -8.194  14.506  68.809  1.00  0.00    -0.146 A  
HETATM   17  C   UNL     1      -8.377  15.889  68.844  1.00  0.00    -0.226 A  
HETATM   18  C   UNL     1      -9.237  16.486  67.941  1.00  0.00    -0.211 A  
HETATM   19  C   UNL     1      -9.901  15.690  67.012  1.00  0.00    -0.237 A  
HETATM   20  C   UNL     1      -9.755  14.277  66.975  1.00  0.00    -0.253 A  
BRANCH  20  21
HETATM   21  C   UNL     1     -10.566  13.617  65.954  1.00  0.00    -0.289 A  
HETATM   22  N   UNL     1     -11.872  13.318  66.119  1.00  0.00    -0.371 NA 
HETATM   23  N   UNL     1     -12.129  12.670  64.978  1.00  0.00    -0.420 NA 
HETATM   24  H   UNL     1     -12.493  13.530  66.900  1.00  0.00     0.000 HD 
HETATM   25  N   UNL     1     -11.105  12.570  64.121  1.00  0.00    -0.347 NA 
HETATM   26  N   UNL     1     -10.087  13.141  64.754  1.00  0.00    -0.268 NA 
ENDBRANCH  20  21
ENDBRANCH  12  15
ENDBRANCH   8   9
ENDBRANCH   6   8
BRANCH   6  27
HETATM   27  C   UNL     1      -9.108   5.917  68.361  1.00  0.00    -0.115 C  
HETATM   28  C   UNL     1      -9.182   4.481  68.970  1.00  0.00    -0.134 C  
HETATM   29  O   UNL     1      -9.481   3.503  68.286  1.00  0.00    -0.175 OA 
HETATM   30  C   UNL     1      -7.824   6.130  67.499  1.00  0.00    -0.102 C  
HETATM   31  O   UNL     1      -8.809   4.308  70.249  1.00  0.00    -0.078 OA 
HETATM   32  C   UNL     1      -6.600   6.625  68.261  1.00  0.00    -0.059 C  
HETATM   33  C   UNL     1      -7.466   4.946  66.599  1.00  0.00    -0.087 C  
ENDBRANCH   6  27
ENDBRANCH   4   5
ENDBRANCH   3   4
ENDBRANCH   2   3
TORSDOF 8
ENDMDL
MODEL      247
REMARK 921   NORMALIZED FREE ENERGY PREDICTED BY IDOCK:   -3.91 KCAL/MOL
REMARK 922        TOTAL FREE ENERGY PREDICTED BY IDOCK:   -6.27 KCAL/MOL
REMARK 923 INTER-LIGAND FREE ENERGY PREDICTED BY IDOCK:   -6.49 KCAL/MOL
REMARK 924 INTRA-LIGAND FREE ENERGY PREDICTED BY IDOCK:    0.22 KCAL/MOL
REMARK 927      BINDING AFFINITY PREDICTED BY RF-SCORE:    0.00 PKD
ROOT
HETATM    1  C   UNL     1      -6.227   9.870  69.137  1.00  0.00    -0.044 C  
HETATM    2  C   UNL     1      -6.597  11.123  69.904  1.00  0.00    -0.129 C  
ENDROOT
BRANCH   2   3
HETATM    3  C   UNL     1      -6.570  12.378  69.028  1.00  0.00    -0.100 C  
BRANCH   3   4
HETATM    4  C   UNL     1      -7.125  12.036  67.644  1.00  0.00    -0.118 C  
BRANCH   4   5
HETATM    5  C   UNL     1      -8.233  12.954  67.174  1.00  0.00    -0.139 C  
HETATM    6  N   UNL     1      -9.196  12.447  66.303  1.00  0.00    -0.193 N  
HETATM    7  O   UNL     1      -8.267  14.131  67.545  1.00  0.00    -0.160 OA 
BRANCH   6   8
HETATM    8  C   UNL     1      -9.207  11.022  65.863  1.00  0.00    -0.199 C  
BRANCH   8   9
HETATM    9  C   UNL     1      -9.842  10.057  66.850  1.00  0.00    -0.248 A  
HETATM   10  C   UNL     1      -9.921  10.386  68.203  1.00  0.00    -0.170 A  
HETATM   11  C   UNL     1     -10.202   9.399  69.160  1.00  0.00    -0.209 A  
HETATM   12  C   UNL     1     -10.503   8.069  68.816  1.00  0.00    -0.196 A  
HETATM   13  C   UNL     1     -10.307   8.790  66.484  1.00  0.00    -0.254 A  
HETATM   14  C   UNL     1     -10.660   7.824  67.444  1.00  0.00    -0.345 A  
BRANCH  12  15
HETATM   15  C   UNL     1     -10.628   7.008  69.873  1.00  0.00    -0.249 A  
HETATM   16  C   UNL     1     -11.525   7.275  70.949  1.00  0.00    -0.321 A  
HETATM   17  C   UNL     1     -11.646   6.453  72.071  1.00  0.00    -0.368 A  
HETATM   18  C   UNL     1     -10.904   5.290  72.146  1.00  0.00    -0.252 A  
HETATM   19  C   UNL     1     -10.050   4.962  71.096  1.00  0.00    -0.277 A  
HETATM   20  C   UNL     1      -9.887   5.797  69.958  1.00  0.00    -0.235 A  
BRANCH  20  21
HETATM   21  C   UNL     1      -8.917   5.300  68.984  1.00  0.00    -0.106 A  
HETATM   22  N   UNL     1      -7.675   5.810  68.844  1.00  0.00    -0.089 NA 
HETATM   23  N   UNL     1      -7.225   5.098  67.805  1.00  0.00    -0.067 NA 
HETATM   24  H   UNL     1      -7.208   6.539  69.383  1.00  0.00     0.000 HD 
HETATM   25  N   UNL     1      -8.071   4.182  67.316  1.00  0.00    -0.099 NA 
HETATM   26  N   UNL     1      -9.173   4.329  68.041  1.00  0.00    -0.132 NA 
ENDBRANCH  20  21
ENDBRANCH  12  15
ENDBRANCH   8   9
ENDBRANCH   6   8
BRANCH   6  27
HETATM   27  C   UNL     1     -10.414  13.274  65.964  1.00  0.00    -0.286 C  
HETATM   28  C   UNL     1     -10.275  14.675  65.288  1.00  0.00    -0.391 C  
HETATM   29  O   UNL     1     -11.107  15.089  64.482  1.00  0.00    -0.328 OA 
HETATM   30  C   UNL     1     -11.501  13.262  67.084  1.00  0.00    -0.380 C  
HETATM   31  O   UNL     1      -9.274  15.479  65.681  1.00  0.00    -0.268 OA 
HETATM   32  C   UNL     1     -11.012  13.644  68.476  1.00  0.00    -0.289 C  
HETATM   33  C   UNL     1     -12.781  14.020  66.727  1.00  0.00     0.153 C  
ENDBRANCH   6  27
ENDBRANCH   4   5
ENDBRANCH   3   4
ENDBRANCH   2   3
TORSDOF 8
ENDMDL
MODEL      248
REMARK 921   NORMALIZED FREE ENERGY PREDICTED BY IDOCK:   -3.89 KCAL/MOL
REMARK 922        TOTAL FREE ENERGY PREDICTED BY IDOCK:   -6.23 KCAL/MOL
REMARK 923 INTER-LIGAND FREE ENERGY PREDICTED BY IDOCK:   -6.33 KCAL/MOL
REMARK 924 INTRA-LIGAND FREE ENERGY PREDICTED BY IDOCK:    0.10 KCAL/MOL
REMARK 927      BINDING AFFINITY PREDICTED BY RF-SCORE:    0.00 PKD
ROOT
HETATM    1  C   UNL     1     -12.205  14.354  64.492  1.00  0.00    -0.483 C  
HETATM    2  C   UNL     1     -12.624  13.738  65.811  1.00  0.00    -0.525 C  
ENDROOT
BRANCH   2   3
HETATM    3  C   UNL     1     -11.865  12.446  66.123  1.00  0.00    -0.442 C  
BRANCH   3   4
HETATM    4  C   UNL     1     -10.460  12.531  65.526  1.00  0.00    -0.305 C  
BRANCH   4   5
HETATM    5  C   UNL     1      -9.968  11.242  64.905  1.00  0.00    -0.274 C  
HETATM    6  N   UNL     1      -9.085  10.444  65.630  1.00  0.00    -0.167 N  
HETATM    7  O   UNL     1     -10.334  10.918  63.771  1.00  0.00    -0.354 OA 
BRANCH   6   8
HETATM    8  C   UNL     1      -8.651  10.786  67.016  1.00  0.00    -0.130 C  
BRANCH   8   9
HETATM    9  C   UNL     1      -9.293   9.945  68.108  1.00  0.00    -0.138 A  
HETATM   10  C   UNL     1      -8.675   9.820  69.352  1.00  0.00    -0.178 A  
HETATM   11  C   UNL     1      -9.072   8.812  70.245  1.00  0.00    -0.185 A  
HETATM   12  C   UNL     1     -10.149   7.946  69.985  1.00  0.00    -0.199 A  
HETATM   13  C   UNL     1     -10.466   9.211  67.912  1.00  0.00    -0.293 A  
HETATM   14  C   UNL     1     -10.905   8.253  68.844  1.00  0.00     0.002 A  
BRANCH  12  15
HETATM   15  C   UNL     1     -10.432   6.775  70.884  1.00  0.00    -0.239 A  
HETATM   16  C   UNL     1     -11.683   6.777  71.568  1.00  0.00    -0.361 A  
HETATM   17  C   UNL     1     -12.030   5.835  72.537  1.00  0.00    -0.157 A  
HETATM   18  C   UNL     1     -11.154   4.809  72.835  1.00  0.00    -0.301 A  
HETATM   19  C   UNL     1      -9.940   4.737  72.156  1.00  0.00    -0.237 A  
HETATM   20  C   UNL     1      -9.550   5.701  71.187  1.00  0.00    -0.208 A  
BRANCH  20  21
HETATM   21  C   UNL     1      -8.224   5.475  70.616  1.00  0.00    -0.116 A  
HETATM   22  N   UNL     1      -7.076   5.756  71.268  1.00  0.00    -0.071 NA 
HETATM   23  N   UNL     1      -6.173   5.462  70.326  1.00  0.00    -0.022 NA 
HETATM   24  H   UNL     1      -6.935   6.099  72.218  1.00  0.00     0.000 HD 
HETATM   25  N   UNL     1      -6.666   5.001  69.169  1.00  0.00    -0.047 NA 
HETATM   26  N   UNL     1      -7.982   5.041  69.332  1.00  0.00    -0.075 NA 
ENDBRANCH  20  21
ENDBRANCH  12  15
ENDBRANCH   8   9
ENDBRANCH   6   8
BRANCH   6  27
HETATM   27  C   UNL     1      -8.724   9.068  65.123  1.00  0.00    -0.189 C  
HETATM   28  C   UNL     1      -7.772   8.133  65.934  1.00  0.00    -0.091 C  
HETATM   29  O   UNL     1      -7.914   6.912  65.938  1.00  0.00    -0.101 OA 
HETATM   30  C   UNL     1      -8.427   9.031  63.591  1.00  0.00    -0.173 C  
HETATM   31  O   UNL     1      -6.715   8.681  66.556  1.00  0.00    -0.068 OA 
HETATM   32  C   UNL     1      -7.384  10.030  63.102  1.00  0.00    -0.134 C  
HETATM   33  C   UNL     1      -8.145   7.633  63.037  1.00  0.00    -0.073 C  
ENDBRANCH   6  27
ENDBRANCH   4   5
ENDBRANCH   3   4
ENDBRANCH   2   3
TORSDOF 8
ENDMDL
MODEL      249
REMARK 921   NORMALIZED FREE ENERGY PREDICTED BY IDOCK:   -3.87 KCAL/MOL
REMARK 922        TOTAL FREE ENERGY PREDICTED BY IDOCK:   -6.20 KCAL/MOL
REMARK 923 INTER-LIGAND FREE ENERGY PREDICTED BY IDOCK:   -6.19 KCAL/MOL
REMARK 924 INTRA-LIGAND FREE ENERGY PREDICTED BY IDOCK:   -0.01 KCAL/MOL
REMARK 927      BINDING AFFINITY PREDICTED BY RF-SCORE:    0.00 PKD
ROOT
HETATM    1  C   UNL     1     -11.876  10.115  70.892  1.00  0.00    -0.468 C  
HETATM    2  C   UNL     1     -10.733   9.268  70.369  1.00  0.00    -0.300 C  
ENDROOT
BRANCH   2   3
HETATM    3  C   UNL     1      -9.821   8.757  71.486  1.00  0.00    -0.371 C  
BRANCH   3   4
HETATM    4  C   UNL     1      -8.447   8.428  70.901  1.00  0.00    -0.158 C  
BRANCH   4   5
HETATM    5  C   UNL     1      -8.494   7.699  69.575  1.00  0.00    -0.132 C  
HETATM    6  N   UNL     1      -7.533   8.001  68.611  1.00  0.00    -0.096 N  
HETATM    7  O   UNL     1      -9.378   6.866  69.353  1.00  0.00    -0.147 OA 
BRANCH   6   8
HETATM    8  C   UNL     1      -6.430   8.974  68.858  1.00  0.00    -0.048 C  
BRANCH   8   9
HETATM    9  C   UNL     1      -6.813  10.432  68.667  1.00  0.00    -0.058 A  
HETATM   10  C   UNL     1      -8.132  10.842  68.858  1.00  0.00    -0.144 A  
HETATM   11  C   UNL     1      -8.565  12.090  68.383  1.00  0.00    -0.147 A  
HETATM   12  C   UNL     1      -7.696  13.018  67.782  1.00  0.00    -0.151 A  
HETATM   13  C   UNL     1      -5.909  11.405  68.233  1.00  0.00    -0.045 A  
HETATM   14  C   UNL     1      -6.334  12.684  67.827  1.00  0.00    -0.130 A  
BRANCH  12  15
HETATM   15  C   UNL     1      -8.228  14.266  67.134  1.00  0.00    -0.184 A  
HETATM   16  C   UNL     1      -7.318  15.354  66.990  1.00  0.00    -0.127 A  
HETATM   17  C   UNL     1      -7.697  16.618  66.537  1.00  0.00    -0.337 A  
HETATM   18  C   UNL     1      -9.007  16.841  66.157  1.00  0.00    -0.295 A  
HETATM   19  C   UNL     1      -9.921  15.794  66.234  1.00  0.00    -0.315 A  
HETATM   20  C   UNL     1      -9.567  14.507  66.720  1.00  0.00    -0.274 A  
BRANCH  20  21
HETATM   21  C   UNL     1     -10.676  13.555  66.760  1.00  0.00    -0.278 A  
HETATM   22  N   UNL     1     -11.412  13.317  67.866  1.00  0.00    -0.287 NA 
HETATM   23  N   UNL     1     -12.216  12.342  67.429  1.00  0.00    -0.384 NA 
HETATM   24  H   UNL     1     -11.367  13.759  68.784  1.00  0.00     0.000 HD 
HETATM   25  N   UNL     1     -12.055  11.983  66.149  1.00  0.00    -0.520 NA 
HETATM   26  N   UNL     1     -11.044  12.729  65.722  1.00  0.00    -0.279 NA 
ENDBRANCH  20  21
ENDBRANCH  12  15
ENDBRANCH   8   9
ENDBRANCH   6   8
BRANCH   6  27
HETATM   27  C   UNL     1      -7.436   7.164  67.358  1.00  0.00    -0.100 C  
HETATM   28  C   UNL     1      -6.067   6.944  66.639  1.00  0.00    -0.033 C  
HETATM   29  O   UNL     1      -5.799   5.889  66.067  1.00  0.00    -0.025 OA 
HETATM   30  C   UNL     1      -8.599   7.419  66.350  1.00  0.00    -0.138 C  
HETATM   31  O   UNL     1      -5.209   7.975  66.566  1.00  0.00    -0.024 OA 
HETATM   32  C   UNL     1      -8.817   8.877  65.958  1.00  0.00    -0.206 C  
HETATM   33  C   UNL     1      -8.571   6.520  65.113  1.00  0.00     0.004 C  
ENDBRANCH   6  27
ENDBRANCH   4   5
ENDBRANCH   3   4
ENDBRANCH   2   3
TORSDOF 8
ENDMDL
MODEL      250
REMARK 921   NORMALIZED FREE ENERGY PREDICTED BY IDOCK:   -3.86 KCAL/MOL
REMARK 922        TOTAL FREE ENERGY PREDICTED BY IDOCK:   -6.20 KCAL/MOL
REMARK 923 INTER-LIGAND FREE ENERGY PREDICTED BY IDOCK:   -6.00 KCAL/MOL
REMARK 924 INTRA-LIGAND FREE ENERGY PREDICTED BY IDOCK:   -0.20 KCAL/MOL
REMARK 927      BINDING AFFINITY PREDICTED BY RF-SCORE:    0.00 PKD
ROOT
HETATM    1  C   UNL     1     -10.436   8.208  66.392  1.00  0.00     0.175 C  
HETATM    2  C   UNL     1      -9.404   8.745  65.422  1.00  0.00    -0.095 C  
ENDROOT
BRANCH   2   3
HETATM    3  C   UNL     1      -9.836  10.063  64.774  1.00  0.00    -0.325 C  
BRANCH   3   4
HETATM    4  C   UNL     1     -10.916  10.716  65.637  1.00  0.00     0.110 C  
BRANCH   4   5
HETATM    5  C   UNL     1     -10.653  12.170  65.968  1.00  0.00    -0.257 C  
HETATM    6  N   UNL     1      -9.533  12.490  66.733  1.00  0.00    -0.225 N  
HETATM    7  O   UNL     1     -11.430  13.047  65.578  1.00  0.00    -0.305 OA 
BRANCH   6   8
HETATM    8  C   UNL     1      -8.554  11.460  67.189  1.00  0.00    -0.151 C  
BRANCH   8   9
HETATM    9  C   UNL     1      -8.955  10.718  68.453  1.00  0.00    -0.153 A  
HETATM   10  C   UNL     1      -7.979  10.176  69.289  1.00  0.00    -0.138 A  
HETATM   11  C   UNL     1      -8.326   9.230  70.266  1.00  0.00    -0.204 A  
HETATM   12  C   UNL     1      -9.656   8.846  70.516  1.00  0.00    -0.242 A  
HETATM   13  C   UNL     1     -10.287  10.479  68.804  1.00  0.00    -0.208 A  
HETATM   14  C   UNL     1     -10.633   9.586  69.834  1.00  0.00    -0.269 A  
BRANCH  12  15
HETATM   15  C   UNL     1      -9.968   7.708  71.448  1.00  0.00    -0.203 A  
HETATM   16  C   UNL     1     -10.350   8.052  72.778  1.00  0.00    -0.408 A  
HETATM   17  C   UNL     1     -10.536   7.112  73.792  1.00  0.00    -0.303 A  
HETATM   18  C   UNL     1     -10.395   5.767  73.507  1.00  0.00    -0.252 A  
HETATM   19  C   UNL     1     -10.072   5.380  72.209  1.00  0.00    -0.231 A  
HETATM   20  C   UNL     1      -9.848   6.319  71.167  1.00  0.00    -0.203 A  
BRANCH  20  21
HETATM   21  C   UNL     1      -9.479   5.718  69.887  1.00  0.00    -0.150 A  
HETATM   22  N   UNL     1      -8.259   5.199  69.632  1.00  0.00    -0.092 NA 
HETATM   23  N   UNL     1      -8.393   4.863  68.344  1.00  0.00    -0.091 NA 
HETATM   24  H   UNL     1      -7.456   5.093  70.251  1.00  0.00     0.000 HD 
HETATM   25  N   UNL     1      -9.592   5.105  67.799  1.00  0.00    -0.132 NA 
HETATM   26  N   UNL     1     -10.284   5.688  68.770  1.00  0.00    -0.185 NA 
ENDBRANCH  20  21
ENDBRANCH  12  15
ENDBRANCH   8   9
ENDBRANCH   6   8
BRANCH   6  27
HETATM   27  C   UNL     1      -9.139  13.936  66.921  1.00  0.00    -0.245 C  
HETATM   28  C   UNL     1      -7.731  14.322  67.474  1.00  0.00    -0.191 C  
HETATM   29  O   UNL     1      -7.145  15.337  67.100  1.00  0.00    -0.183 OA 
HETATM   30  C   UNL     1     -10.276  14.814  67.531  1.00  0.00    -0.233 C  
HETATM   31  O   UNL     1      -7.201  13.574  68.457  1.00  0.00    -0.097 OA 
HETATM   32  C   UNL     1     -10.882  14.291  68.828  1.00  0.00    -0.265 C  
HETATM   33  C   UNL     1      -9.931  16.299  67.649  1.00  0.00    -0.247 C  
ENDBRANCH   6  27
ENDBRANCH   4   5
ENDBRANCH   3   4
ENDBRANCH   2   3
TORSDOF 8
ENDMDL
MODEL      251
REMARK 921   NORMALIZED FREE ENERGY PREDICTED BY IDOCK:   -3.86 KCAL/MOL
REMARK 922        TOTAL FREE ENERGY PREDICTED BY IDOCK:   -6.19 KCAL/MOL
REMARK 923 INTER-LIGAND FREE ENERGY PREDICTED BY IDOCK:   -5.09 KCAL/MOL
REMARK 924 INTRA-LIGAND FREE ENERGY PREDICTED BY IDOCK:   -1.10 KCAL/MOL
REMARK 927      BINDING AFFINITY PREDICTED BY RF-SCORE:    0.00 PKD
ROOT
HETATM    1  C   UNL     1     -11.517  11.603  68.858  1.00  0.00    -0.349 C  
HETATM    2  C   UNL     1     -10.360  10.638  69.017  1.00  0.00    -0.237 C  
ENDROOT
BRANCH   2   3
HETATM    3  C   UNL     1     -10.706   9.222  68.551  1.00  0.00    -0.185 C  
BRANCH   3   4
HETATM    4  C   UNL     1     -10.723   9.186  67.023  1.00  0.00    -0.189 C  
BRANCH   4   5
HETATM    5  C   UNL     1      -9.405   9.555  66.376  1.00  0.00    -0.179 C  
HETATM    6  N   UNL     1      -8.574   8.533  65.920  1.00  0.00    -0.154 N  
HETATM    7  O   UNL     1      -9.072  10.739  66.273  1.00  0.00    -0.165 OA 
BRANCH   6   8
HETATM    8  C   UNL     1      -8.961   7.093  65.996  1.00  0.00    -0.111 C  
BRANCH   8   9
HETATM    9  C   UNL     1      -8.721   6.440  67.347  1.00  0.00    -0.106 A  
HETATM   10  C   UNL     1      -9.588   5.453  67.814  1.00  0.00    -0.147 A  
HETATM   11  C   UNL     1      -9.574   5.076  69.166  1.00  0.00    -0.220 A  
HETATM   12  C   UNL     1      -8.647   5.591  70.090  1.00  0.00    -0.122 A  
HETATM   13  C   UNL     1      -7.689   6.829  68.206  1.00  0.00    -0.106 A  
HETATM   14  C   UNL     1      -7.633   6.391  69.542  1.00  0.00    -0.095 A  
BRANCH  12  15
HETATM   15  C   UNL     1      -8.774   5.293  71.558  1.00  0.00    -0.140 A  
HETATM   16  C   UNL     1      -7.919   4.282  72.085  1.00  0.00    -0.090 A  
HETATM   17  C   UNL     1      -8.013   3.799  73.391  1.00  0.00    -0.087 A  
HETATM   18  C   UNL     1      -8.945   4.345  74.253  1.00  0.00    -0.105 A  
HETATM   19  C   UNL     1      -9.769   5.371  73.798  1.00  0.00    -0.154 A  
HETATM   20  C   UNL     1      -9.713   5.859  72.465  1.00  0.00    -0.172 A  
BRANCH  20  21
HETATM   21  C   UNL     1     -10.685   6.909  72.168  1.00  0.00    -0.219 A  
HETATM   22  N   UNL     1     -11.886   6.672  71.598  1.00  0.00    -0.321 NA 
HETATM   23  N   UNL     1     -12.352   7.918  71.464  1.00  0.00    -0.308 NA 
HETATM   24  H   UNL     1     -12.318   5.785  71.340  1.00  0.00     0.000 HD 
HETATM   25  N   UNL     1     -11.556   8.891  71.926  1.00  0.00    -0.354 NA 
HETATM   26  N   UNL     1     -10.469   8.257  72.346  1.00  0.00    -0.314 NA 
ENDBRANCH  20  21
ENDBRANCH  12  15
ENDBRANCH   8   9
ENDBRANCH   6   8
BRANCH   6  27
HETATM   27  C   UNL     1      -7.347   8.867  65.106  1.00  0.00    -0.092 C  
HETATM   28  C   UNL     1      -6.622   7.776  64.256  1.00  0.00    -0.056 C  
HETATM   29  O   UNL     1      -6.080   8.045  63.185  1.00  0.00    -0.070 OA 
HETATM   30  C   UNL     1      -6.344   9.801  65.851  1.00  0.00    -0.080 C  
HETATM   31  O   UNL     1      -6.506   6.539  64.766  1.00  0.00    -0.039 OA 
HETATM   32  C   UNL     1      -5.909   9.324  67.232  1.00  0.00    -0.046 C  
HETATM   33  C   UNL     1      -5.136  10.225  65.014  1.00  0.00    -0.086 C  
ENDBRANCH   6  27
ENDBRANCH   4   5
ENDBRANCH   3   4
ENDBRANCH   2   3
TORSDOF 8
ENDMDL
MODEL      252
REMARK 921   NORMALIZED FREE ENERGY PREDICTED BY IDOCK:   -3.84 KCAL/MOL
REMARK 922        TOTAL FREE ENERGY PREDICTED BY IDOCK:   -6.16 KCAL/MOL
REMARK 923 INTER-LIGAND FREE ENERGY PREDICTED BY IDOCK:   -5.94 KCAL/MOL
REMARK 924 INTRA-LIGAND FREE ENERGY PREDICTED BY IDOCK:   -0.22 KCAL/MOL
REMARK 927      BINDING AFFINITY PREDICTED BY RF-SCORE:    0.00 PKD
ROOT
HETATM    1  C   UNL     1      -7.302  17.929  68.920  1.00  0.00    -0.251 C  
HETATM    2  C   UNL     1      -6.758  16.645  69.513  1.00  0.00    -0.189 C  
ENDROOT
BRANCH   2   3
HETATM    3  C   UNL     1      -6.662  15.517  68.483  1.00  0.00    -0.113 C  
BRANCH   3   4
HETATM    4  C   UNL     1      -7.549  14.354  68.928  1.00  0.00    -0.128 C  
BRANCH   4   5
HETATM    5  C   UNL     1      -8.908  14.318  68.262  1.00  0.00    -0.185 C  
HETATM    6  N   UNL     1      -9.145  13.362  67.277  1.00  0.00    -0.212 N  
HETATM    7  O   UNL     1      -9.779  15.133  68.580  1.00  0.00    -0.202 OA 
BRANCH   6   8
HETATM    8  C   UNL     1      -8.129  12.338  66.894  1.00  0.00    -0.090 C  
BRANCH   8   9
HETATM    9  C   UNL     1      -7.961  11.205  67.892  1.00  0.00    -0.114 A  
HETATM   10  C   UNL     1      -9.077  10.640  68.509  1.00  0.00    -0.159 A  
HETATM   11  C   UNL     1      -8.929   9.834  69.648  1.00  0.00    -0.229 A  
HETATM   12  C   UNL     1      -7.673   9.481  70.172  1.00  0.00    -0.161 A  
HETATM   13  C   UNL     1      -6.711  10.725  68.294  1.00  0.00    -0.063 A  
HETATM   14  C   UNL     1      -6.569   9.856  69.392  1.00  0.00    -0.051 A  
BRANCH  12  15
HETATM   15  C   UNL     1      -7.560   8.761  71.487  1.00  0.00    -0.130 A  
HETATM   16  C   UNL     1      -6.383   9.005  72.254  1.00  0.00     0.041 A  
HETATM   17  C   UNL     1      -6.071   8.312  73.424  1.00  0.00    -0.102 A  
HETATM   18  C   UNL     1      -6.953   7.366  73.912  1.00  0.00    -0.094 A  
HETATM   19  C   UNL     1      -8.140   7.129  73.223  1.00  0.00    -0.119 A  
HETATM   20  C   UNL     1      -8.467   7.801  72.014  1.00  0.00    -0.146 A  
BRANCH  20  21
HETATM   21  C   UNL     1      -9.736   7.385  71.421  1.00  0.00    -0.167 A  
HETATM   22  N   UNL     1      -9.827   6.543  70.370  1.00  0.00    -0.175 NA 
HETATM   23  N   UNL     1     -11.147   6.543  70.159  1.00  0.00    -0.319 NA 
HETATM   24  H   UNL     1      -9.089   6.043  69.873  1.00  0.00     0.000 HD 
HETATM   25  N   UNL     1     -11.873   7.288  71.003  1.00  0.00    -0.308 NA 
HETATM   26  N   UNL     1     -10.973   7.862  71.793  1.00  0.00    -0.236 NA 
ENDBRANCH  20  21
ENDBRANCH  12  15
ENDBRANCH   8   9
ENDBRANCH   6   8
BRANCH   6  27
HETATM   27  C   UNL     1     -10.540  13.175  66.729  1.00  0.00    -0.263 C  
HETATM   28  C   UNL     1     -10.914  11.914  65.887  1.00  0.00    -0.307 C  
HETATM   29  O   UNL     1     -12.034  11.409  65.941  1.00  0.00    -0.050 OA 
HETATM   30  C   UNL     1     -11.155  14.483  66.142  1.00  0.00    -0.334 C  
HETATM   31  O   UNL     1     -10.013  11.440  65.010  1.00  0.00    -0.242 OA 
HETATM   32  C   UNL     1     -10.303  15.195  65.098  1.00  0.00    -0.416 C  
HETATM   33  C   UNL     1     -12.601  14.340  65.661  1.00  0.00    -0.429 C  
ENDBRANCH   6  27
ENDBRANCH   4   5
ENDBRANCH   3   4
ENDBRANCH   2   3
TORSDOF 8
ENDMDL
MODEL      253
REMARK 921   NORMALIZED FREE ENERGY PREDICTED BY IDOCK:   -3.82 KCAL/MOL
REMARK 922        TOTAL FREE ENERGY PREDICTED BY IDOCK:   -6.13 KCAL/MOL
REMARK 923 INTER-LIGAND FREE ENERGY PREDICTED BY IDOCK:   -5.96 KCAL/MOL
REMARK 924 INTRA-LIGAND FREE ENERGY PREDICTED BY IDOCK:   -0.17 KCAL/MOL
REMARK 927      BINDING AFFINITY PREDICTED BY RF-SCORE:    0.00 PKD
ROOT
HETATM    1  C   UNL     1     -11.819  13.257  63.817  1.00  0.00    -0.522 C  
HETATM    2  C   UNL     1     -11.845  11.745  63.921  1.00  0.00    -0.449 C  
ENDROOT
BRANCH   2   3
HETATM    3  C   UNL     1     -10.463  11.118  63.728  1.00  0.00    -0.444 C  
BRANCH   3   4
HETATM    4  C   UNL     1      -9.475  11.776  64.692  1.00  0.00    -0.009 C  
BRANCH   4   5
HETATM    5  C   UNL     1      -8.776  10.809  65.624  1.00  0.00    -0.190 C  
HETATM    6  N   UNL     1      -9.189  10.745  66.954  1.00  0.00    -0.155 N  
HETATM    7  O   UNL     1      -7.850  10.106  65.211  1.00  0.00    -0.133 OA 
BRANCH   6   8
HETATM    8  C   UNL     1     -10.329  11.553  67.478  1.00  0.00    -0.194 C  
BRANCH   8   9
HETATM    9  C   UNL     1     -10.070  13.049  67.545  1.00  0.00    -0.218 A  
HETATM   10  C   UNL     1     -11.061  13.914  68.008  1.00  0.00    -0.279 A  
HETATM   11  C   UNL     1     -10.964  15.295  67.778  1.00  0.00    -0.312 A  
HETATM   12  C   UNL     1      -9.847  15.888  67.162  1.00  0.00    -0.232 A  
HETATM   13  C   UNL     1      -8.885  13.637  67.092  1.00  0.00    -0.237 A  
HETATM   14  C   UNL     1      -8.762  15.029  66.932  1.00  0.00    -0.285 A  
BRANCH  12  15
HETATM   15  C   UNL     1      -9.857  17.342  66.781  1.00  0.00    -0.296 A  
HETATM   16  C   UNL     1     -11.126  17.920  66.483  1.00  0.00     0.474 A  
HETATM   17  C   UNL     1     -11.284  19.213  65.983  1.00  0.00     0.374 A  
HETATM   18  C   UNL     1     -10.171  20.013  65.802  1.00  0.00    -0.454 A  
HETATM   19  C   UNL     1      -8.915  19.509  66.127  1.00  0.00    -0.342 A  
HETATM   20  C   UNL     1      -8.726  18.186  66.609  1.00  0.00    -0.279 A  
BRANCH  20  21
HETATM   21  C   UNL     1      -7.329  17.831  66.854  1.00  0.00    -0.199 A  
HETATM   22  N   UNL     1      -6.861  17.441  68.059  1.00  0.00    -0.177 NA 
HETATM   23  N   UNL     1      -5.556  17.315  67.793  1.00  0.00    -0.115 NA 
HETATM   24  H   UNL     1      -7.365  17.285  68.932  1.00  0.00     0.000 HD 
HETATM   25  N   UNL     1      -5.191  17.566  66.530  1.00  0.00    -0.168 NA 
HETATM   26  N   UNL     1      -6.315  17.934  65.928  1.00  0.00    -0.252 NA 
ENDBRANCH  20  21
ENDBRANCH  12  15
ENDBRANCH   8   9
ENDBRANCH   6   8
BRANCH   6  27
HETATM   27  C   UNL     1      -8.646   9.665  67.859  1.00  0.00    -0.122 C  
HETATM   28  C   UNL     1      -9.545   9.001  68.950  1.00  0.00    -0.156 C  
HETATM   29  O   UNL     1      -9.418   7.817  69.259  1.00  0.00    -0.155 OA 
HETATM   30  C   UNL     1      -7.204   9.958  68.378  1.00  0.00    -0.073 C  
HETATM   31  O   UNL     1     -10.405   9.776  69.631  1.00  0.00    -0.206 OA 
HETATM   32  C   UNL     1      -7.013  11.313  69.051  1.00  0.00    -0.104 C  
HETATM   33  C   UNL     1      -6.599   8.837  69.225  1.00  0.00    -0.049 C  
ENDBRANCH   6  27
ENDBRANCH   4   5
ENDBRANCH   3   4
ENDBRANCH   2   3
TORSDOF 8
ENDMDL
MODEL      254
REMARK 921   NORMALIZED FREE ENERGY PREDICTED BY IDOCK:   -3.80 KCAL/MOL
REMARK 922        TOTAL FREE ENERGY PREDICTED BY IDOCK:   -6.11 KCAL/MOL
REMARK 923 INTER-LIGAND FREE ENERGY PREDICTED BY IDOCK:   -6.55 KCAL/MOL
REMARK 924 INTRA-LIGAND FREE ENERGY PREDICTED BY IDOCK:    0.44 KCAL/MOL
REMARK 927      BINDING AFFINITY PREDICTED BY RF-SCORE:    0.00 PKD
ROOT
HETATM    1  C   UNL     1      -5.860  18.810  66.464  1.00  0.00    -0.172 C  
HETATM    2  C   UNL     1      -7.372  18.752  66.387  1.00  0.00    -0.268 C  
ENDROOT
BRANCH   2   3
HETATM    3  C   UNL     1      -7.893  17.340  66.109  1.00  0.00    -0.305 C  
BRANCH   3   4
HETATM    4  C   UNL     1      -7.997  16.575  67.428  1.00  0.00    -0.175 C  
BRANCH   4   5
HETATM    5  C   UNL     1      -9.318  15.865  67.633  1.00  0.00    -0.217 C  
HETATM    6  N   UNL     1      -9.305  14.514  67.976  1.00  0.00    -0.196 N  
HETATM    7  O   UNL     1     -10.382  16.473  67.483  1.00  0.00    -0.281 OA 
BRANCH   6   8
HETATM    8  C   UNL     1      -8.039  13.757  68.203  1.00  0.00    -0.155 C  
BRANCH   8   9
HETATM    9  C   UNL     1      -8.085  12.299  67.777  1.00  0.00    -0.155 A  
HETATM   10  C   UNL     1      -8.572  11.950  66.517  1.00  0.00    -0.126 A  
HETATM   11  C   UNL     1      -8.919  10.621  66.232  1.00  0.00    -0.180 A  
HETATM   12  C   UNL     1      -8.718   9.569  67.144  1.00  0.00    -0.137 A  
HETATM   13  C   UNL     1      -7.721  11.248  68.623  1.00  0.00    -0.136 A  
HETATM   14  C   UNL     1      -8.002   9.907  68.303  1.00  0.00    -0.100 A  
BRANCH  12  15
HETATM   15  C   UNL     1      -9.259   8.195  66.869  1.00  0.00    -0.198 A  
HETATM   16  C   UNL     1     -10.482   7.843  67.514  1.00  0.00    -0.332 A  
HETATM   17  C   UNL     1     -11.035   6.563  67.467  1.00  0.00    -0.444 A  
HETATM   18  C   UNL     1     -10.411   5.578  66.725  1.00  0.00    -0.321 A  
HETATM   19  C   UNL     1      -9.241   5.888  66.037  1.00  0.00    -0.143 A  
HETATM   20  C   UNL     1      -8.641   7.175  66.093  1.00  0.00    -0.151 A  
BRANCH  20  21
HETATM   21  C   UNL     1      -7.397   7.291  65.336  1.00  0.00    -0.079 A  
HETATM   22  N   UNL     1      -7.284   8.000  64.193  1.00  0.00    -0.082 NA 
HETATM   23  N   UNL     1      -6.017   7.735  63.856  1.00  0.00    -0.056 NA 
HETATM   24  H   UNL     1      -7.976   8.579  63.717  1.00  0.00     0.000 HD 
HETATM   25  N   UNL     1      -5.339   6.951  64.704  1.00  0.00    -0.027 NA 
HETATM   26  N   UNL     1      -6.227   6.630  65.637  1.00  0.00    -0.037 NA 
ENDBRANCH  20  21
ENDBRANCH  12  15
ENDBRANCH   8   9
ENDBRANCH   6   8
BRANCH   6  27
HETATM   27  C   UNL     1     -10.590  13.826  68.372  1.00  0.00    -0.253 C  
HETATM   28  C   UNL     1     -11.725  13.575  67.329  1.00  0.00    -0.383 C  
HETATM   29  O   UNL     1     -12.441  12.576  67.379  1.00  0.00    -0.152 OA 
HETATM   30  C   UNL     1     -11.147  14.299  69.750  1.00  0.00    -0.175 C  
HETATM   31  O   UNL     1     -11.981  14.529  66.419  1.00  0.00    -0.392 OA 
HETATM   32  C   UNL     1     -11.323  15.805  69.903  1.00  0.00    -0.349 C  
HETATM   33  C   UNL     1     -12.400  13.553  70.214  1.00  0.00    -0.370 C  
ENDBRANCH   6  27
ENDBRANCH   4   5
ENDBRANCH   3   4
ENDBRANCH   2   3
TORSDOF 8
ENDMDL
MODEL      255
REMARK 921   NORMALIZED FREE ENERGY PREDICTED BY IDOCK:   -3.79 KCAL/MOL
REMARK 922        TOTAL FREE ENERGY PREDICTED BY IDOCK:   -6.10 KCAL/MOL
REMARK 923 INTER-LIGAND FREE ENERGY PREDICTED BY IDOCK:   -6.14 KCAL/MOL
REMARK 924 INTRA-LIGAND FREE ENERGY PREDICTED BY IDOCK:    0.05 KCAL/MOL
REMARK 927      BINDING AFFINITY PREDICTED BY RF-SCORE:    0.00 PKD
ROOT
HETATM    1  C   UNL     1      -8.866   3.783  66.264  1.00  0.00    -0.128 C  
HETATM    2  C   UNL     1      -8.040   3.545  67.512  1.00  0.00    -0.081 C  
ENDROOT
BRANCH   2   3
HETATM    3  C   UNL     1      -8.837   3.774  68.798  1.00  0.00    -0.156 C  
BRANCH   3   4
HETATM    4  C   UNL     1      -9.260   5.242  68.871  1.00  0.00    -0.150 C  
BRANCH   4   5
HETATM    5  C   UNL     1      -8.524   6.050  69.917  1.00  0.00    -0.130 C  
HETATM    6  N   UNL     1      -9.205   7.078  70.569  1.00  0.00    -0.159 N  
HETATM    7  O   UNL     1      -7.341   5.810  70.171  1.00  0.00    -0.069 OA 
BRANCH   6   8
HETATM    8  C   UNL     1     -10.645   7.372  70.314  1.00  0.00    -0.231 C  
BRANCH   8   9
HETATM    9  C   UNL     1     -10.905   8.662  69.554  1.00  0.00    -0.138 A  
HETATM   10  C   UNL     1     -10.541   8.773  68.212  1.00  0.00    -0.194 A  
HETATM   11  C   UNL     1     -10.475  10.032  67.595  1.00  0.00    -0.297 A  
HETATM   12  C   UNL     1     -10.851  11.220  68.247  1.00  0.00    -0.249 A  
HETATM   13  C   UNL     1     -11.443   9.804  70.156  1.00  0.00    -0.272 A  
HETATM   14  C   UNL     1     -11.445  11.052  69.507  1.00  0.00    -0.370 A  
BRANCH  12  15
HETATM   15  C   UNL     1     -10.604  12.560  67.612  1.00  0.00    -0.234 A  
HETATM   16  C   UNL     1     -11.725  13.201  67.008  1.00  0.00    -0.431 A  
HETATM   17  C   UNL     1     -11.629  14.376  66.263  1.00  0.00    -0.377 A  
HETATM   18  C   UNL     1     -10.401  14.998  66.126  1.00  0.00    -0.310 A  
HETATM   19  C   UNL     1      -9.286  14.435  66.740  1.00  0.00    -0.287 A  
HETATM   20  C   UNL     1      -9.353  13.223  67.479  1.00  0.00    -0.218 A  
BRANCH  20  21
HETATM   21  C   UNL     1      -8.069  12.773  68.012  1.00  0.00    -0.162 A  
HETATM   22  N   UNL     1      -7.511  13.277  69.134  1.00  0.00    -0.310 NA 
HETATM   23  N   UNL     1      -6.345  12.622  69.152  1.00  0.00    -0.093 NA 
HETATM   24  H   UNL     1      -7.879  13.967  69.788  1.00  0.00     0.000 HD 
HETATM   25  N   UNL     1      -6.153  11.746  68.158  1.00  0.00    -0.049 NA 
HETATM   26  N   UNL     1      -7.236  11.862  67.401  1.00  0.00    -0.131 NA 
ENDBRANCH  20  21
ENDBRANCH  12  15
ENDBRANCH   8   9
ENDBRANCH   6   8
BRANCH   6  27
HETATM   27  C   UNL     1      -8.564   7.777  71.745  1.00  0.00    -0.116 C  
HETATM   28  C   UNL     1      -7.169   8.465  71.612  1.00  0.00    -0.091 C  
HETATM   29  O   UNL     1      -6.890   9.488  72.237  1.00  0.00    -0.132 OA 
HETATM   30  C   UNL     1      -8.712   6.993  73.087  1.00  0.00    -0.148 C  
HETATM   31  O   UNL     1      -6.225   7.861  70.872  1.00  0.00    -0.034 OA 
HETATM   32  C   UNL     1      -8.241   5.544  73.053  1.00  0.00    -0.119 C  
HETATM   33  C   UNL     1      -8.149   7.723  74.308  1.00  0.00    -0.274 C  
ENDBRANCH   6  27
ENDBRANCH   4   5
ENDBRANCH   3   4
ENDBRANCH   2   3
TORSDOF 8
ENDMDL
MODEL      256
REMARK 921   NORMALIZED FREE ENERGY PREDICTED BY IDOCK:   -3.79 KCAL/MOL
REMARK 922        TOTAL FREE ENERGY PREDICTED BY IDOCK:   -6.09 KCAL/MOL
REMARK 923 INTER-LIGAND FREE ENERGY PREDICTED BY IDOCK:   -6.24 KCAL/MOL
REMARK 924 INTRA-LIGAND FREE ENERGY PREDICTED BY IDOCK:    0.16 KCAL/MOL
REMARK 927      BINDING AFFINITY PREDICTED BY RF-SCORE:    0.00 PKD
ROOT
HETATM    1  C   UNL     1     -10.454  17.693  67.745  1.00  0.00    -0.379 C  
HETATM    2  C   UNL     1      -9.686  16.500  68.277  1.00  0.00    -0.231 C  
ENDROOT
BRANCH   2   3
HETATM    3  C   UNL     1      -8.903  15.770  67.184  1.00  0.00    -0.224 C  
BRANCH   3   4
HETATM    4  C   UNL     1      -8.507  14.383  67.691  1.00  0.00    -0.191 C  
BRANCH   4   5
HETATM    5  C   UNL     1      -9.091  13.237  66.892  1.00  0.00    -0.232 C  
HETATM    6  N   UNL     1      -8.399  12.028  66.853  1.00  0.00    -0.173 N  
HETATM    7  O   UNL     1     -10.152  13.384  66.278  1.00  0.00    -0.285 OA 
BRANCH   6   8
HETATM    8  C   UNL     1      -7.135  11.804  67.613  1.00  0.00    -0.107 C  
BRANCH   8   9
HETATM    9  C   UNL     1      -7.131  10.561  68.488  1.00  0.00    -0.075 A  
HETATM   10  C   UNL     1      -6.706   9.338  67.968  1.00  0.00    -0.060 A  
HETATM   11  C   UNL     1      -6.993   8.141  68.642  1.00  0.00    -0.068 A  
HETATM   12  C   UNL     1      -7.632   8.107  69.895  1.00  0.00    -0.089 A  
HETATM   13  C   UNL     1      -7.607  10.554  69.802  1.00  0.00    -0.102 A  
HETATM   14  C   UNL     1      -7.825   9.355  70.505  1.00  0.00    -0.185 A  
BRANCH  12  15
HETATM   15  C   UNL     1      -8.074   6.804  70.500  1.00  0.00    -0.116 A  
HETATM   16  C   UNL     1      -7.172   5.705  70.391  1.00  0.00    -0.071 A  
HETATM   17  C   UNL     1      -7.494   4.404  70.779  1.00  0.00    -0.052 A  
HETATM   18  C   UNL     1      -8.729   4.149  71.345  1.00  0.00    -0.137 A  
HETATM   19  C   UNL     1      -9.626   5.200  71.517  1.00  0.00    -0.208 A  
HETATM   20  C   UNL     1      -9.332   6.527  71.103  1.00  0.00    -0.167 A  
BRANCH  20  21
HETATM   21  C   UNL     1     -10.416   7.481  71.333  1.00  0.00    -0.209 A  
HETATM   22  N   UNL     1     -10.697   8.010  72.543  1.00  0.00    -0.314 NA 
HETATM   23  N   UNL     1     -11.785   8.732  72.255  1.00  0.00    -0.356 NA 
HETATM   24  H   UNL     1     -10.213   7.891  73.432  1.00  0.00     0.000 HD 
HETATM   25  N   UNL     1     -12.177   8.713  70.975  1.00  0.00    -0.234 NA 
HETATM   26  N   UNL     1     -11.327   7.884  70.382  1.00  0.00    -0.238 NA 
ENDBRANCH  20  21
ENDBRANCH  12  15
ENDBRANCH   8   9
ENDBRANCH   6   8
BRANCH   6  27
HETATM   27  C   UNL     1      -9.042  10.813  66.226  1.00  0.00    -0.175 C  
HETATM   28  C   UNL     1      -9.565  10.846  64.755  1.00  0.00    -0.252 C  
HETATM   29  O   UNL     1      -9.515   9.854  64.029  1.00  0.00    -0.277 OA 
HETATM   30  C   UNL     1     -10.019  10.065  67.186  1.00  0.00    -0.251 C  
HETATM   31  O   UNL     1     -10.173  11.960  64.316  1.00  0.00    -0.276 OA 
HETATM   32  C   UNL     1     -11.103  10.930  67.820  1.00  0.00    -0.371 C  
HETATM   33  C   UNL     1     -10.615   8.782  66.604  1.00  0.00    -0.141 C  
ENDBRANCH   6  27
ENDBRANCH   4   5
ENDBRANCH   3   4
ENDBRANCH   2   3
TORSDOF 8
ENDMDL
MODEL      257
REMARK 921   NORMALIZED FREE ENERGY PREDICTED BY IDOCK:   -3.78 KCAL/MOL
REMARK 922        TOTAL FREE ENERGY PREDICTED BY IDOCK:   -6.07 KCAL/MOL
REMARK 923 INTER-LIGAND FREE ENERGY PREDICTED BY IDOCK:   -6.67 KCAL/MOL
REMARK 924 INTRA-LIGAND FREE ENERGY PREDICTED BY IDOCK:    0.60 KCAL/MOL
REMARK 927      BINDING AFFINITY PREDICTED BY RF-SCORE:    0.00 PKD
ROOT
HETATM    1  C   UNL     1     -12.132  12.827  63.375  1.00  0.00    -0.619 C  
HETATM    2  C   UNL     1     -12.427  12.600  64.844  1.00  0.00    -0.564 C  
ENDROOT
BRANCH   2   3
HETATM    3  C   UNL     1     -12.521  13.908  65.633  1.00  0.00    -0.538 C  
BRANCH   3   4
HETATM    4  C   UNL     1     -11.762  13.754  66.952  1.00  0.00    -0.424 C  
BRANCH   4   5
HETATM    5  C   UNL     1     -11.076  15.016  67.426  1.00  0.00    -0.324 C  
HETATM    6  N   UNL     1      -9.738  15.217  67.091  1.00  0.00    -0.225 N  
HETATM    7  O   UNL     1     -11.691  15.840  68.110  1.00  0.00    -0.316 OA 
BRANCH   6   8
HETATM    8  C   UNL     1      -8.975  14.261  66.236  1.00  0.00     0.033 C  
BRANCH   8   9
HETATM    9  C   UNL     1      -8.816  12.869  66.824  1.00  0.00    -0.152 A  
HETATM   10  C   UNL     1      -9.386  11.767  66.187  1.00  0.00    -0.236 A  
HETATM   11  C   UNL     1      -9.526  10.547  66.866  1.00  0.00    -0.191 A  
HETATM   12  C   UNL     1      -9.032  10.338  68.166  1.00  0.00    -0.130 A  
HETATM   13  C   UNL     1      -8.170  12.627  68.040  1.00  0.00    -0.167 A  
HETATM   14  C   UNL     1      -8.248  11.379  68.686  1.00  0.00    -0.142 A  
BRANCH  12  15
HETATM   15  C   UNL     1      -9.352   9.078  68.920  1.00  0.00    -0.143 A  
HETATM   16  C   UNL     1      -9.953   9.232  70.204  1.00  0.00    -0.251 A  
HETATM   17  C   UNL     1     -10.182   8.169  71.078  1.00  0.00    -0.221 A  
HETATM   18  C   UNL     1      -9.862   6.883  70.686  1.00  0.00    -0.191 A  
HETATM   19  C   UNL     1      -9.318   6.677  69.420  1.00  0.00    -0.147 A  
HETATM   20  C   UNL     1      -9.048   7.746  68.524  1.00  0.00    -0.132 A  
BRANCH  20  21
HETATM   21  C   UNL     1      -8.441   7.331  67.261  1.00  0.00    -0.118 A  
HETATM   22  N   UNL     1      -7.121   7.441  66.998  1.00  0.00    -0.081 NA 
HETATM   23  N   UNL     1      -7.081   7.021  65.729  1.00  0.00    -0.067 NA 
HETATM   24  H   UNL     1      -6.363   7.759  67.602  1.00  0.00     0.000 HD 
HETATM   25  N   UNL     1      -8.252   6.638  65.204  1.00  0.00    -0.132 NA 
HETATM   26  N   UNL     1      -9.136   6.869  66.166  1.00  0.00    -0.145 NA 
ENDBRANCH  20  21
ENDBRANCH  12  15
ENDBRANCH   8   9
ENDBRANCH   6   8
BRANCH   6  27
HETATM   27  C   UNL     1      -9.079  16.544  67.384  1.00  0.00    -0.204 C  
HETATM   28  C   UNL     1      -9.059  17.133  68.830  1.00  0.00    -0.244 C  
HETATM   29  O   UNL     1      -8.111  17.797  69.245  1.00  0.00    -0.003 OA 
HETATM   30  C   UNL     1      -9.372  17.632  66.305  1.00  0.00    -0.217 C  
HETATM   31  O   UNL     1     -10.155  16.990  69.595  1.00  0.00    -0.106 OA 
HETATM   32  C   UNL     1     -10.846  17.867  65.996  1.00  0.00     0.037 C  
HETATM   33  C   UNL     1      -8.644  18.959  66.533  1.00  0.00    -0.309 C  
ENDBRANCH   6  27
ENDBRANCH   4   5
ENDBRANCH   3   4
ENDBRANCH   2   3
TORSDOF 8
ENDMDL
MODEL      258
REMARK 921   NORMALIZED FREE ENERGY PREDICTED BY IDOCK:   -3.73 KCAL/MOL
REMARK 922        TOTAL FREE ENERGY PREDICTED BY IDOCK:   -6.00 KCAL/MOL
REMARK 923 INTER-LIGAND FREE ENERGY PREDICTED BY IDOCK:   -6.66 KCAL/MOL
REMARK 924 INTRA-LIGAND FREE ENERGY PREDICTED BY IDOCK:    0.66 KCAL/MOL
REMARK 927      BINDING AFFINITY PREDICTED BY RF-SCORE:    0.00 PKD
ROOT
HETATM    1  C   UNL     1     -13.908  14.232  72.182  1.00  0.00    -0.589 C  
HETATM    2  C   UNL     1     -12.426  14.479  71.985  1.00  0.00    -0.391 C  
ENDROOT
BRANCH   2   3
HETATM    3  C   UNL     1     -12.138  15.429  70.821  1.00  0.00    -0.413 C  
BRANCH   3   4
HETATM    4  C   UNL     1     -10.634  15.446  70.547  1.00  0.00    -0.229 C  
BRANCH   4   5
HETATM    5  C   UNL     1     -10.268  15.619  69.089  1.00  0.00    -0.233 C  
HETATM    6  N   UNL     1     -10.680  14.650  68.176  1.00  0.00    -0.239 N  
HETATM    7  O   UNL     1      -9.603  16.594  68.725  1.00  0.00    -0.237 OA 
BRANCH   6   8
HETATM    8  C   UNL     1     -11.515  13.479  68.574  1.00  0.00    -0.310 C  
BRANCH   8   9
HETATM    9  C   UNL     1     -10.818  12.133  68.460  1.00  0.00    -0.267 A  
HETATM   10  C   UNL     1      -9.426  12.066  68.394  1.00  0.00    -0.181 A  
HETATM   11  C   UNL     1      -8.790  10.888  67.972  1.00  0.00    -0.135 A  
HETATM   12  C   UNL     1      -9.493   9.705  67.684  1.00  0.00    -0.155 A  
HETATM   13  C   UNL     1     -11.511  10.925  68.347  1.00  0.00    -0.374 A  
HETATM   14  C   UNL     1     -10.861   9.727  67.996  1.00  0.00    -0.276 A  
BRANCH  12  15
HETATM   15  C   UNL     1      -8.795   8.522  67.072  1.00  0.00    -0.144 A  
HETATM   16  C   UNL     1      -8.506   7.428  67.939  1.00  0.00    -0.122 A  
HETATM   17  C   UNL     1      -7.745   6.323  67.554  1.00  0.00    -0.101 A  
HETATM   18  C   UNL     1      -7.274   6.239  66.257  1.00  0.00    -0.069 A  
HETATM   19  C   UNL     1      -7.574   7.261  65.360  1.00  0.00    -0.100 A  
HETATM   20  C   UNL     1      -8.321   8.410  65.736  1.00  0.00    -0.150 A  
BRANCH  20  21
HETATM   21  C   UNL     1      -8.496   9.388  64.665  1.00  0.00    -0.167 A  
HETATM   22  N   UNL     1      -9.500   9.335  63.764  1.00  0.00    -0.324 NA 
HETATM   23  N   UNL     1      -9.184  10.366  62.973  1.00  0.00    -0.264 NA 
HETATM   24  H   UNL     1     -10.285   8.687  63.705  1.00  0.00     0.000 HD 
HETATM   25  N   UNL     1      -8.093  11.059  63.324  1.00  0.00     0.166 NA 
HETATM   26  N   UNL     1      -7.623  10.417  64.387  1.00  0.00    -0.081 NA 
ENDBRANCH  20  21
ENDBRANCH  12  15
ENDBRANCH   8   9
ENDBRANCH   6   8
BRANCH   6  27
HETATM   27  C   UNL     1     -10.497  14.884  66.695  1.00  0.00    -0.292 C  
HETATM   28  C   UNL     1     -10.436  16.331  66.109  1.00  0.00    -0.322 C  
HETATM   29  O   UNL     1      -9.729  16.607  65.141  1.00  0.00    -0.226 OA 
HETATM   30  C   UNL     1     -11.344  13.921  65.807  1.00  0.00    -0.308 C  
HETATM   31  O   UNL     1     -11.256  17.264  66.621  1.00  0.00     0.268 OA 
HETATM   32  C   UNL     1     -12.835  13.879  66.123  1.00  0.00    -0.202 C  
HETATM   33  C   UNL     1     -11.109  14.080  64.303  1.00  0.00    -0.198 C  
ENDBRANCH   6  27
ENDBRANCH   4   5
ENDBRANCH   3   4
ENDBRANCH   2   3
TORSDOF 8
ENDMDL
MODEL      259
REMARK 921   NORMALIZED FREE ENERGY PREDICTED BY IDOCK:   -3.73 KCAL/MOL
REMARK 922        TOTAL FREE ENERGY PREDICTED BY IDOCK:   -6.00 KCAL/MOL
REMARK 923 INTER-LIGAND FREE ENERGY PREDICTED BY IDOCK:   -5.94 KCAL/MOL
REMARK 924 INTRA-LIGAND FREE ENERGY PREDICTED BY IDOCK:   -0.05 KCAL/MOL
REMARK 927      BINDING AFFINITY PREDICTED BY RF-SCORE:    0.00 PKD
ROOT
HETATM    1  C   UNL     1     -12.916   7.153  70.428  1.00  0.00     0.505 C  
HETATM    2  C   UNL     1     -12.433   8.305  71.286  1.00  0.00    -0.264 C  
ENDROOT
BRANCH   2   3
HETATM    3  C   UNL     1     -11.629   7.837  72.502  1.00  0.00    -0.422 C  
BRANCH   3   4
HETATM    4  C   UNL     1     -10.380   7.097  72.022  1.00  0.00    -0.214 C  
BRANCH   4   5
HETATM    5  C   UNL     1      -9.110   7.918  72.077  1.00  0.00    -0.148 C  
HETATM    6  N   UNL     1      -8.197   7.811  71.029  1.00  0.00    -0.101 N  
HETATM    7  O   UNL     1      -8.886   8.655  73.042  1.00  0.00    -0.355 OA 
BRANCH   6   8
HETATM    8  C   UNL     1      -8.452   6.959  69.830  1.00  0.00    -0.140 C  
BRANCH   8   9
HETATM    9  C   UNL     1      -9.069   7.692  68.650  1.00  0.00    -0.135 A  
HETATM   10  C   UNL     1      -8.398   7.747  67.428  1.00  0.00    -0.123 A  
HETATM   11  C   UNL     1      -8.786   8.670  66.445  1.00  0.00    -0.150 A  
HETATM   12  C   UNL     1      -9.903   9.512  66.590  1.00  0.00    -0.293 A  
HETATM   13  C   UNL     1     -10.275   8.393  68.737  1.00  0.00    -0.223 A  
HETATM   14  C   UNL     1     -10.702   9.263  67.716  1.00  0.00    -0.270 A  
BRANCH  12  15
HETATM   15  C   UNL     1     -10.182  10.602  65.593  1.00  0.00    -0.319 A  
HETATM   16  C   UNL     1      -9.883  10.317  64.228  1.00  0.00    -0.357 A  
HETATM   17  C   UNL     1      -9.957  11.268  63.210  1.00  0.00    -0.428 A  
HETATM   18  C   UNL     1     -10.386  12.549  63.504  1.00  0.00    -0.311 A  
HETATM   19  C   UNL     1     -10.737  12.860  64.815  1.00  0.00    -0.354 A  
HETATM   20  C   UNL     1     -10.641  11.918  65.874  1.00  0.00    -0.306 A  
BRANCH  20  21
HETATM   21  C   UNL     1     -11.017  12.447  67.184  1.00  0.00    -0.262 A  
HETATM   22  N   UNL     1     -12.283  12.777  67.518  1.00  0.00    -0.316 NA 
HETATM   23  N   UNL     1     -12.099  13.273  68.746  1.00  0.00    -0.290 NA 
HETATM   24  H   UNL     1     -13.144  12.676  66.980  1.00  0.00     0.000 HD 
HETATM   25  N   UNL     1     -10.840  13.250  69.202  1.00  0.00    -0.163 NA 
HETATM   26  N   UNL     1     -10.133  12.757  68.193  1.00  0.00    -0.234 NA 
ENDBRANCH  20  21
ENDBRANCH  12  15
ENDBRANCH   8   9
ENDBRANCH   6   8
BRANCH   6  27
HETATM   27  C   UNL     1      -7.017   8.751  70.959  1.00  0.00    -0.077 C  
HETATM   28  C   UNL     1      -6.015   8.699  69.762  1.00  0.00    -0.028 C  
HETATM   29  O   UNL     1      -5.470   9.714  69.331  1.00  0.00    -0.035 OA 
HETATM   30  C   UNL     1      -6.295   8.941  72.329  1.00  0.00    -0.012 C  
HETATM   31  O   UNL     1      -5.671   7.499  69.266  1.00  0.00    -0.025 OA 
HETATM   32  C   UNL     1      -5.865   7.655  73.026  1.00  0.00    -0.044 C  
HETATM   33  C   UNL     1      -5.151   9.956  72.303  1.00  0.00    -0.051 C  
ENDBRANCH   6  27
ENDBRANCH   4   5
ENDBRANCH   3   4
ENDBRANCH   2   3
TORSDOF 8
ENDMDL
MODEL      260
REMARK 921   NORMALIZED FREE ENERGY PREDICTED BY IDOCK:   -3.72 KCAL/MOL
REMARK 922        TOTAL FREE ENERGY PREDICTED BY IDOCK:   -5.99 KCAL/MOL
REMARK 923 INTER-LIGAND FREE ENERGY PREDICTED BY IDOCK:   -6.41 KCAL/MOL
REMARK 924 INTRA-LIGAND FREE ENERGY PREDICTED BY IDOCK:    0.42 KCAL/MOL
REMARK 927      BINDING AFFINITY PREDICTED BY RF-SCORE:    0.00 PKD
ROOT
HETATM    1  C   UNL     1      -8.972   9.772  69.818  1.00  0.00    -0.239 C  
HETATM    2  C   UNL     1      -7.885   9.140  68.972  1.00  0.00    -0.090 C  
ENDROOT
BRANCH   2   3
HETATM    3  C   UNL     1      -6.553   9.887  69.073  1.00  0.00    -0.052 C  
BRANCH   3   4
HETATM    4  C   UNL     1      -6.641  11.183  68.266  1.00  0.00    -0.058 C  
BRANCH   4   5
HETATM    5  C   UNL     1      -7.317  11.033  66.920  1.00  0.00    -0.133 C  
HETATM    6  N   UNL     1      -8.475  11.767  66.668  1.00  0.00    -0.173 N  
HETATM    7  O   UNL     1      -6.855  10.263  66.073  1.00  0.00    -0.103 OA 
BRANCH   6   8
HETATM    8  C   UNL     1      -9.040  12.734  67.654  1.00  0.00    -0.193 C  
BRANCH   8   9
HETATM    9  C   UNL     1      -8.108  13.872  68.033  1.00  0.00    -0.154 A  
HETATM   10  C   UNL     1      -7.622  13.978  69.336  1.00  0.00     0.193 A  
HETATM   11  C   UNL     1      -7.035  15.173  69.781  1.00  0.00    -0.174 A  
HETATM   12  C   UNL     1      -6.824  16.278  68.938  1.00  0.00    -0.165 A  
HETATM   13  C   UNL     1      -7.750  14.891  67.145  1.00  0.00    -0.177 A  
HETATM   14  C   UNL     1      -7.094  16.057  67.579  1.00  0.00    -0.199 A  
BRANCH  12  15
HETATM   15  C   UNL     1      -6.353  17.593  69.492  1.00  0.00    -0.223 A  
HETATM   16  C   UNL     1      -5.560  17.545  70.677  1.00  0.00    -0.094 A  
HETATM   17  C   UNL     1      -5.166  18.680  71.385  1.00  0.00    -0.265 A  
HETATM   18  C   UNL     1      -5.508  19.933  70.910  1.00  0.00    -0.303 A  
HETATM   19  C   UNL     1      -6.239  20.031  69.728  1.00  0.00    -0.392 A  
HETATM   20  C   UNL     1      -6.678  18.889  69.006  1.00  0.00    -0.324 A  
BRANCH  20  21
HETATM   21  C   UNL     1      -7.466  19.200  67.815  1.00  0.00    -0.254 A  
HETATM   22  N   UNL     1      -6.936  19.302  66.577  1.00  0.00    -0.205 NA 
HETATM   23  N   UNL     1      -8.012  19.669  65.872  1.00  0.00    -0.401 NA 
HETATM   24  H   UNL     1      -5.978  19.144  66.266  1.00  0.00     0.000 HD 
HETATM   25  N   UNL     1      -9.154  19.774  66.562  1.00  0.00    -0.359 NA 
HETATM   26  N   UNL     1      -8.808  19.510  67.816  1.00  0.00    -0.311 NA 
ENDBRANCH  20  21
ENDBRANCH  12  15
ENDBRANCH   8   9
ENDBRANCH   6   8
BRANCH   6  27
HETATM   27  C   UNL     1      -9.066  11.786  65.278  1.00  0.00     0.125 C  
HETATM   28  C   UNL     1     -10.298  12.684  64.938  1.00  0.00    -0.308 C  
HETATM   29  O   UNL     1     -10.433  13.205  63.832  1.00  0.00    -0.351 OA 
HETATM   30  C   UNL     1      -9.167  10.371  64.628  1.00  0.00    -0.282 C  
HETATM   31  O   UNL     1     -11.277  12.801  65.851  1.00  0.00    -0.283 OA 
HETATM   32  C   UNL     1      -9.891   9.319  65.461  1.00  0.00    -0.155 C  
HETATM   33  C   UNL     1      -9.681  10.375  63.187  1.00  0.00    -0.301 C  
ENDBRANCH   6  27
ENDBRANCH   4   5
ENDBRANCH   3   4
ENDBRANCH   2   3
TORSDOF 8
ENDMDL
MODEL      261
REMARK 921   NORMALIZED FREE ENERGY PREDICTED BY IDOCK:   -3.71 KCAL/MOL
REMARK 922        TOTAL FREE ENERGY PREDICTED BY IDOCK:   -5.96 KCAL/MOL
REMARK 923 INTER-LIGAND FREE ENERGY PREDICTED BY IDOCK:   -5.97 KCAL/MOL
REMARK 924 INTRA-LIGAND FREE ENERGY PREDICTED BY IDOCK:    0.01 KCAL/MOL
REMARK 927      BINDING AFFINITY PREDICTED BY RF-SCORE:    0.00 PKD
ROOT
HETATM    1  C   UNL     1      -9.105   3.082  66.804  1.00  0.00    -0.179 C  
HETATM    2  C   UNL     1      -8.786   4.105  67.875  1.00  0.00    -0.118 C  
ENDROOT
BRANCH   2   3
HETATM    3  C   UNL     1      -8.825   5.541  67.346  1.00  0.00    -0.105 C  
BRANCH   3   4
HETATM    4  C   UNL     1      -7.458   5.897  66.760  1.00  0.00    -0.087 C  
BRANCH   4   5
HETATM    5  C   UNL     1      -7.521   6.682  65.467  1.00  0.00    -0.079 C  
HETATM    6  N   UNL     1      -7.271   8.052  65.503  1.00  0.00    -0.063 N  
HETATM    7  O   UNL     1      -7.803   6.114  64.407  1.00  0.00    -0.103 OA 
BRANCH   6   8
HETATM    8  C   UNL     1      -6.891   8.764  66.758  1.00  0.00    -0.069 C  
BRANCH   8   9
HETATM    9  C   UNL     1      -8.044   9.440  67.481  1.00  0.00    -0.110 A  
HETATM   10  C   UNL     1      -7.836  10.057  68.714  1.00  0.00    -0.094 A  
HETATM   11  C   UNL     1      -8.925  10.395  69.532  1.00  0.00    -0.127 A  
HETATM   12  C   UNL     1     -10.262  10.221  69.132  1.00  0.00    -0.234 A  
HETATM   13  C   UNL     1      -9.357   9.421  67.001  1.00  0.00    -0.185 A  
HETATM   14  C   UNL     1     -10.443   9.832  67.796  1.00  0.00    -0.297 A  
BRANCH  12  15
HETATM   15  C   UNL     1     -11.391  10.434  70.100  1.00  0.00    -0.397 A  
HETATM   16  C   UNL     1     -11.878  11.767  70.236  1.00  0.00    -0.382 A  
HETATM   17  C   UNL     1     -12.824  12.147  71.189  1.00  0.00    -0.313 A  
HETATM   18  C   UNL     1     -13.368  11.191  72.027  1.00  0.00    -0.384 A  
HETATM   19  C   UNL     1     -12.960   9.866  71.897  1.00  0.00    -0.545 A  
HETATM   20  C   UNL     1     -11.977   9.460  70.955  1.00  0.00    -0.389 A  
BRANCH  20  21
HETATM   21  C   UNL     1     -11.655   8.035  71.001  1.00  0.00    -0.283 A  
HETATM   22  N   UNL     1     -12.054   7.152  70.061  1.00  0.00    -0.516 NA 
HETATM   23  N   UNL     1     -11.596   6.008  70.580  1.00  0.00    -0.185 NA 
HETATM   24  H   UNL     1     -12.566   7.313  69.194  1.00  0.00     0.000 HD 
HETATM   25  N   UNL     1     -10.930   6.117  71.736  1.00  0.00    -0.254 NA 
HETATM   26  N   UNL     1     -10.994   7.409  72.033  1.00  0.00    -0.230 NA 
ENDBRANCH  20  21
ENDBRANCH  12  15
ENDBRANCH   8   9
ENDBRANCH   6   8
BRANCH   6  27
HETATM   27  C   UNL     1      -7.139   8.828  64.214  1.00  0.00    -0.089 C  
HETATM   28  C   UNL     1      -8.252   8.770  63.120  1.00  0.00    -0.182 C  
HETATM   29  O   UNL     1      -8.518   9.743  62.415  1.00  0.00    -0.133 OA 
HETATM   30  C   UNL     1      -5.704   8.773  63.602  1.00  0.00    -0.071 C  
HETATM   31  O   UNL     1      -8.858   7.594  62.884  1.00  0.00     0.353 OA 
HETATM   32  C   UNL     1      -5.132   7.374  63.402  1.00  0.00    -0.033 C  
HETATM   33  C   UNL     1      -5.523   9.623  62.343  1.00  0.00    -0.088 C  
ENDBRANCH   6  27
ENDBRANCH   4   5
ENDBRANCH   3   4
ENDBRANCH   2   3
TORSDOF 8
ENDMDL
MODEL      262
REMARK 921   NORMALIZED FREE ENERGY PREDICTED BY IDOCK:   -3.70 KCAL/MOL
REMARK 922        TOTAL FREE ENERGY PREDICTED BY IDOCK:   -5.96 KCAL/MOL
REMARK 923 INTER-LIGAND FREE ENERGY PREDICTED BY IDOCK:   -5.73 KCAL/MOL
REMARK 924 INTRA-LIGAND FREE ENERGY PREDICTED BY IDOCK:   -0.23 KCAL/MOL
REMARK 927      BINDING AFFINITY PREDICTED BY RF-SCORE:    0.00 PKD
ROOT
HETATM    1  C   UNL     1      -7.212  14.128  69.828  1.00  0.00     0.175 C  
HETATM    2  C   UNL     1      -6.251  13.026  69.432  1.00  0.00    -0.113 C  
ENDROOT
BRANCH   2   3
HETATM    3  C   UNL     1      -6.951  11.859  68.730  1.00  0.00    -0.104 C  
BRANCH   3   4
HETATM    4  C   UNL     1      -6.204  10.563  69.046  1.00  0.00    -0.044 C  
BRANCH   4   5
HETATM    5  C   UNL     1      -6.750   9.804  70.236  1.00  0.00    -0.111 C  
HETATM    6  N   UNL     1      -7.382   8.581  70.017  1.00  0.00    -0.054 N  
HETATM    7  O   UNL     1      -6.647  10.272  71.374  1.00  0.00    -0.232 OA 
BRANCH   6   8
HETATM    8  C   UNL     1      -7.491   7.968  68.661  1.00  0.00    -0.098 C  
BRANCH   8   9
HETATM    9  C   UNL     1      -8.453   8.672  67.720  1.00  0.00    -0.125 A  
HETATM   10  C   UNL     1      -7.990   9.228  66.527  1.00  0.00    -0.104 A  
HETATM   11  C   UNL     1      -8.779  10.145  65.816  1.00  0.00    -0.166 A  
HETATM   12  C   UNL     1     -10.089  10.482  66.202  1.00  0.00    -0.306 A  
HETATM   13  C   UNL     1      -9.805   8.863  68.017  1.00  0.00    -0.199 A  
HETATM   14  C   UNL     1     -10.618   9.725  67.258  1.00  0.00    -0.320 A  
BRANCH  12  15
HETATM   15  C   UNL     1     -10.835  11.591  65.514  1.00  0.00    -0.313 A  
HETATM   16  C   UNL     1     -10.991  11.481  64.101  1.00  0.00    -0.434 A  
HETATM   17  C   UNL     1     -11.536  12.492  63.308  1.00  0.00    -0.409 A  
HETATM   18  C   UNL     1     -11.999  13.650  63.902  1.00  0.00    -0.455 A  
HETATM   19  C   UNL     1     -11.913  13.782  65.286  1.00  0.00    -0.388 A  
HETATM   20  C   UNL     1     -11.335  12.781  66.112  1.00  0.00    -0.371 A  
BRANCH  20  21
HETATM   21  C   UNL     1     -11.300  13.122  67.533  1.00  0.00    -0.298 A  
HETATM   22  N   UNL     1     -10.161  13.386  68.207  1.00  0.00    -0.243 NA 
HETATM   23  N   UNL     1     -10.635  13.553  69.447  1.00  0.00     0.072 NA 
HETATM   24  H   UNL     1      -9.202  13.442  67.865  1.00  0.00     0.000 HD 
HETATM   25  N   UNL     1     -11.962  13.441  69.584  1.00  0.00    -0.324 NA 
HETATM   26  N   UNL     1     -12.394  13.129  68.369  1.00  0.00     0.010 NA 
ENDBRANCH  20  21
ENDBRANCH  12  15
ENDBRANCH   8   9
ENDBRANCH   6   8
BRANCH   6  27
HETATM   27  C   UNL     1      -7.768   7.712  71.190  1.00  0.00    -0.085 C  
HETATM   28  C   UNL     1      -6.978   6.406  71.521  1.00  0.00    -0.076 C  
HETATM   29  O   UNL     1      -6.816   6.025  72.679  1.00  0.00    -0.071 OA 
HETATM   30  C   UNL     1      -9.310   7.526  71.342  1.00  0.00    -0.151 C  
HETATM   31  O   UNL     1      -6.558   5.636  70.504  1.00  0.00    -0.037 OA 
HETATM   32  C   UNL     1     -10.035   7.030  70.097  1.00  0.00    -0.189 C  
HETATM   33  C   UNL     1      -9.730   6.723  72.575  1.00  0.00    -0.166 C  
ENDBRANCH   6  27
ENDBRANCH   4   5
ENDBRANCH   3   4
ENDBRANCH   2   3
TORSDOF 8
ENDMDL
MODEL      263
REMARK 921   NORMALIZED FREE ENERGY PREDICTED BY IDOCK:   -3.69 KCAL/MOL
REMARK 922        TOTAL FREE ENERGY PREDICTED BY IDOCK:   -5.94 KCAL/MOL
REMARK 923 INTER-LIGAND FREE ENERGY PREDICTED BY IDOCK:   -5.98 KCAL/MOL
REMARK 924 INTRA-LIGAND FREE ENERGY PREDICTED BY IDOCK:    0.04 KCAL/MOL
REMARK 927      BINDING AFFINITY PREDICTED BY RF-SCORE:    0.00 PKD
ROOT
HETATM    1  C   UNL     1     -12.655   8.476  71.714  1.00  0.00    -0.387 C  
HETATM    2  C   UNL     1     -11.204   8.601  72.134  1.00  0.00    -0.438 C  
ENDROOT
BRANCH   2   3
HETATM    3  C   UNL     1     -10.370   9.408  71.136  1.00  0.00    -0.377 C  
BRANCH   3   4
HETATM    4  C   UNL     1      -9.056   8.674  70.871  1.00  0.00    -0.229 C  
BRANCH   4   5
HETATM    5  C   UNL     1      -9.048   7.850  69.602  1.00  0.00    -0.153 C  
HETATM    6  N   UNL     1      -7.913   7.879  68.793  1.00  0.00    -0.122 N  
HETATM    7  O   UNL     1     -10.037   7.181  69.288  1.00  0.00    -0.168 OA 
BRANCH   6   8
HETATM    8  C   UNL     1      -6.687   8.646  69.160  1.00  0.00    -0.047 C  
BRANCH   8   9
HETATM    9  C   UNL     1      -6.642  10.066  68.623  1.00  0.00    -0.049 A  
HETATM   10  C   UNL     1      -6.275  11.122  69.457  1.00  0.00    -0.091 A  
HETATM   11  C   UNL     1      -6.534  12.449  69.081  1.00  0.00    -0.100 A  
HETATM   12  C   UNL     1      -7.082  12.793  67.832  1.00  0.00    -0.118 A  
HETATM   13  C   UNL     1      -7.022  10.399  67.319  1.00  0.00    -0.086 A  
HETATM   14  C   UNL     1      -7.209  11.735  66.919  1.00  0.00    -0.103 A  
BRANCH  12  15
HETATM   15  C   UNL     1      -7.501  14.206  67.536  1.00  0.00    -0.192 A  
HETATM   16  C   UNL     1      -6.492  15.209  67.627  1.00  0.00    -0.180 A  
HETATM   17  C   UNL     1      -6.754  16.575  67.517  1.00  0.00    -0.175 A  
HETATM   18  C   UNL     1      -8.043  17.003  67.259  1.00  0.00    -0.203 A  
HETATM   19  C   UNL     1      -9.054  16.056  67.113  1.00  0.00    -0.224 A  
HETATM   20  C   UNL     1      -8.818  14.662  67.250  1.00  0.00    -0.220 A  
BRANCH  20  21
HETATM   21  C   UNL     1     -10.013  13.834  67.101  1.00  0.00    -0.243 A  
HETATM   22  N   UNL     1     -10.477  13.405  65.907  1.00  0.00    -0.282 NA 
HETATM   23  N   UNL     1     -11.596  12.778  66.283  1.00  0.00    -0.358 NA 
HETATM   24  H   UNL     1     -10.081  13.526  64.975  1.00  0.00     0.000 HD 
HETATM   25  N   UNL     1     -11.843  12.762  67.599  1.00  0.00    -0.359 NA 
HETATM   26  N   UNL     1     -10.853  13.469  68.129  1.00  0.00    -0.247 NA 
ENDBRANCH  20  21
ENDBRANCH  12  15
ENDBRANCH   8   9
ENDBRANCH   6   8
BRANCH   6  27
HETATM   27  C   UNL     1      -7.797   6.928  67.625  1.00  0.00    -0.112 C  
HETATM   28  C   UNL     1      -8.822   6.969  66.447  1.00  0.00    -0.145 C  
HETATM   29  O   UNL     1      -8.487   6.720  65.290  1.00  0.00    -0.133 OA 
HETATM   30  C   UNL     1      -7.438   5.469  68.046  1.00  0.00    -0.074 C  
HETATM   31  O   UNL     1     -10.117   7.185  66.732  1.00  0.00    -0.214 OA 
HETATM   32  C   UNL     1      -8.348   4.851  69.102  1.00  0.00    -0.082 C  
HETATM   33  C   UNL     1      -7.229   4.508  66.875  1.00  0.00    -0.076 C  
ENDBRANCH   6  27
ENDBRANCH   4   5
ENDBRANCH   3   4
ENDBRANCH   2   3
TORSDOF 8
ENDMDL
MODEL      264
REMARK 921   NORMALIZED FREE ENERGY PREDICTED BY IDOCK:   -3.68 KCAL/MOL
REMARK 922        TOTAL FREE ENERGY PREDICTED BY IDOCK:   -5.93 KCAL/MOL
REMARK 923 INTER-LIGAND FREE ENERGY PREDICTED BY IDOCK:   -6.53 KCAL/MOL
REMARK 924 INTRA-LIGAND FREE ENERGY PREDICTED BY IDOCK:    0.60 KCAL/MOL
REMARK 927      BINDING AFFINITY PREDICTED BY RF-SCORE:    0.00 PKD
ROOT
HETATM    1  C   UNL     1     -10.467   7.288  66.996  1.00  0.00    -0.398 C  
HETATM    2  C   UNL     1      -9.368   8.152  66.410  1.00  0.00    -0.269 C  
ENDROOT
BRANCH   2   3
HETATM    3  C   UNL     1      -9.872   9.529  65.974  1.00  0.00    -0.353 C  
BRANCH   3   4
HETATM    4  C   UNL     1     -10.940  10.008  66.958  1.00  0.00    -0.119 C  
BRANCH   4   5
HETATM    5  C   UNL     1     -11.013  11.512  67.115  1.00  0.00    -0.286 C  
HETATM    6  N   UNL     1      -9.858  12.203  67.476  1.00  0.00    -0.189 N  
HETATM    7  O   UNL     1     -12.082  12.105  66.941  1.00  0.00    -0.600 OA 
BRANCH   6   8
HETATM    8  C   UNL     1      -8.542  11.524  67.658  1.00  0.00    -0.135 C  
BRANCH   8   9
HETATM    9  C   UNL     1      -8.368  10.821  68.994  1.00  0.00    -0.138 A  
HETATM   10  C   UNL     1      -7.095  10.648  69.537  1.00  0.00    -0.127 A  
HETATM   11  C   UNL     1      -6.887   9.738  70.585  1.00  0.00    -0.108 A  
HETATM   12  C   UNL     1      -7.936   9.030  71.198  1.00  0.00    -0.169 A  
HETATM   13  C   UNL     1      -9.435  10.260  69.702  1.00  0.00    -0.180 A  
HETATM   14  C   UNL     1      -9.228   9.407  70.801  1.00  0.00    -0.278 A  
BRANCH  12  15
HETATM   15  C   UNL     1      -7.653   7.942  72.196  1.00  0.00    -0.103 A  
HETATM   16  C   UNL     1      -6.661   8.217  73.182  1.00  0.00    -0.106 A  
HETATM   17  C   UNL     1      -6.191   7.263  74.086  1.00  0.00    -0.077 A  
HETATM   18  C   UNL     1      -6.733   5.992  74.078  1.00  0.00    -0.080 A  
HETATM   19  C   UNL     1      -7.741   5.691  73.165  1.00  0.00    -0.100 A  
HETATM   20  C   UNL     1      -8.214   6.635  72.215  1.00  0.00    -0.104 A  
BRANCH  20  21
HETATM   21  C   UNL     1      -9.246   6.118  71.318  1.00  0.00    -0.150 A  
HETATM   22  N   UNL     1     -10.569   6.253  71.549  1.00  0.00    -0.230 NA 
HETATM   23  N   UNL     1     -11.076   5.564  70.521  1.00  0.00    -0.130 NA 
HETATM   24  H   UNL     1     -11.050   6.746  72.301  1.00  0.00     0.000 HD 
HETATM   25  N   UNL     1     -10.183   5.044  69.670  1.00  0.00    -0.252 NA 
HETATM   26  N   UNL     1      -9.005   5.362  70.192  1.00  0.00    -0.132 NA 
ENDBRANCH  20  21
ENDBRANCH  12  15
ENDBRANCH   8   9
ENDBRANCH   6   8
BRANCH   6  27
HETATM   27  C   UNL     1      -9.848  13.714  67.457  1.00  0.00    -0.227 C  
HETATM   28  C   UNL     1     -10.348  14.508  66.209  1.00  0.00    -0.294 C  
HETATM   29  O   UNL     1     -10.922  15.591  66.319  1.00  0.00    -0.314 OA 
HETATM   30  C   UNL     1      -8.555  14.332  68.073  1.00  0.00    -0.169 C  
HETATM   31  O   UNL     1     -10.050  14.035  64.987  1.00  0.00    -0.369 OA 
HETATM   32  C   UNL     1      -7.243  13.820  67.491  1.00  0.00    -0.173 C  
HETATM   33  C   UNL     1      -8.560  15.860  68.146  1.00  0.00    -0.169 C  
ENDBRANCH   6  27
ENDBRANCH   4   5
ENDBRANCH   3   4
ENDBRANCH   2   3
TORSDOF 8
ENDMDL
MODEL      265
REMARK 921   NORMALIZED FREE ENERGY PREDICTED BY IDOCK:   -3.64 KCAL/MOL
REMARK 922        TOTAL FREE ENERGY PREDICTED BY IDOCK:   -5.87 KCAL/MOL
REMARK 923 INTER-LIGAND FREE ENERGY PREDICTED BY IDOCK:   -5.81 KCAL/MOL
REMARK 924 INTRA-LIGAND FREE ENERGY PREDICTED BY IDOCK:   -0.06 KCAL/MOL
REMARK 927      BINDING AFFINITY PREDICTED BY RF-SCORE:    0.00 PKD
ROOT
HETATM    1  C   UNL     1     -12.069  14.096  67.373  1.00  0.00    -0.379 C  
HETATM    2  C   UNL     1     -11.853  12.596  67.366  1.00  0.00    -0.393 C  
ENDROOT
BRANCH   2   3
HETATM    3  C   UNL     1     -11.328  12.084  66.022  1.00  0.00    -0.398 C  
BRANCH   3   4
HETATM    4  C   UNL     1      -9.808  11.936  66.101  1.00  0.00    -0.254 C  
BRANCH   4   5
HETATM    5  C   UNL     1      -9.183  11.276  64.891  1.00  0.00    -0.112 C  
HETATM    6  N   UNL     1      -8.010  10.543  65.060  1.00  0.00    -0.122 N  
HETATM    7  O   UNL     1      -9.700  11.403  63.777  1.00  0.00    -0.257 OA 
BRANCH   6   8
HETATM    8  C   UNL     1      -7.379  10.338  66.396  1.00  0.00    -0.114 C  
BRANCH   8   9
HETATM    9  C   UNL     1      -8.026   9.256  67.245  1.00  0.00    -0.106 A  
HETATM   10  C   UNL     1      -9.416   9.143  67.299  1.00  0.00    -0.187 A  
HETATM   11  C   UNL     1     -10.028   8.380  68.306  1.00  0.00    -0.214 A  
HETATM   12  C   UNL     1      -9.297   7.628  69.243  1.00  0.00    -0.148 A  
HETATM   13  C   UNL     1      -7.293   8.384  68.054  1.00  0.00    -0.096 A  
HETATM   14  C   UNL     1      -7.914   7.562  69.013  1.00  0.00    -0.122 A  
BRANCH  12  15
HETATM   15  C   UNL     1      -9.982   6.966  70.405  1.00  0.00    -0.190 A  
HETATM   16  C   UNL     1     -10.558   7.824  71.386  1.00  0.00    -0.242 A  
HETATM   17  C   UNL     1     -11.105   7.364  72.585  1.00  0.00    -0.378 A  
HETATM   18  C   UNL     1     -11.145   6.005  72.838  1.00  0.00    -0.290 A  
HETATM   19  C   UNL     1     -10.640   5.124  71.885  1.00  0.00    -0.256 A  
HETATM   20  C   UNL     1     -10.051   5.570  70.671  1.00  0.00    -0.288 A  
BRANCH  20  21
HETATM   21  C   UNL     1      -9.543   4.495  69.821  1.00  0.00    -0.199 A  
HETATM   22  N   UNL     1      -8.496   3.711  70.158  1.00  0.00    -0.058 NA 
HETATM   23  N   UNL     1      -8.374   2.966  69.054  1.00  0.00    -0.059 NA 
HETATM   24  H   UNL     1      -7.949   3.693  71.018  1.00  0.00     0.000 HD 
HETATM   25  N   UNL     1      -9.268   3.206  68.086  1.00  0.00    -0.179 NA 
HETATM   26  N   UNL     1      -9.999   4.211  68.554  1.00  0.00     0.001 NA 
ENDBRANCH  20  21
ENDBRANCH  12  15
ENDBRANCH   8   9
ENDBRANCH   6   8
BRANCH   6  27
HETATM   27  C   UNL     1      -7.466   9.719  63.916  1.00  0.00    -0.130 C  
HETATM   28  C   UNL     1      -8.018   8.289  63.618  1.00  0.00    -0.153 C  
HETATM   29  O   UNL     1      -8.098   7.853  62.471  1.00  0.00    -0.157 OA 
HETATM   30  C   UNL     1      -5.913   9.794  63.783  1.00  0.00    -0.112 C  
HETATM   31  O   UNL     1      -8.316   7.488  64.655  1.00  0.00    -0.094 OA 
HETATM   32  C   UNL     1      -5.131   9.464  65.050  1.00  0.00    -0.040 C  
HETATM   33  C   UNL     1      -5.346   9.039  62.579  1.00  0.00    -0.081 C  
ENDBRANCH   6  27
ENDBRANCH   4   5
ENDBRANCH   3   4
ENDBRANCH   2   3
TORSDOF 8
ENDMDL
MODEL      266
REMARK 921   NORMALIZED FREE ENERGY PREDICTED BY IDOCK:   -3.62 KCAL/MOL
REMARK 922        TOTAL FREE ENERGY PREDICTED BY IDOCK:   -5.85 KCAL/MOL
REMARK 923 INTER-LIGAND FREE ENERGY PREDICTED BY IDOCK:   -6.26 KCAL/MOL
REMARK 924 INTRA-LIGAND FREE ENERGY PREDICTED BY IDOCK:    0.42 KCAL/MOL
REMARK 927      BINDING AFFINITY PREDICTED BY RF-SCORE:    0.00 PKD
ROOT
HETATM    1  C   UNL     1      -6.343   8.621  64.075  1.00  0.00    -0.072 C  
HETATM    2  C   UNL     1      -7.482   9.532  64.486  1.00  0.00    -0.114 C  
ENDROOT
BRANCH   2   3
HETATM    3  C   UNL     1      -7.020  10.687  65.376  1.00  0.00    -0.013 C  
BRANCH   3   4
HETATM    4  C   UNL     1      -7.934  10.777  66.598  1.00  0.00    -0.139 C  
BRANCH   4   5
HETATM    5  C   UNL     1      -8.948  11.899  66.537  1.00  0.00    -0.199 C  
HETATM    6  N   UNL     1     -10.297  11.576  66.409  1.00  0.00    -0.230 N  
HETATM    7  O   UNL     1      -8.577  13.076  66.585  1.00  0.00    -0.108 OA 
BRANCH   6   8
HETATM    8  C   UNL     1     -10.784  10.165  66.386  1.00  0.00    -0.007 C  
BRANCH   8   9
HETATM    9  C   UNL     1     -10.735   9.454  67.728  1.00  0.00    -0.290 A  
HETATM   10  C   UNL     1     -11.085  10.132  68.896  1.00  0.00    -0.251 A  
HETATM   11  C   UNL     1     -10.745   9.608  70.152  1.00  0.00    -0.321 A  
HETATM   12  C   UNL     1     -10.126   8.355  70.312  1.00  0.00    -0.196 A  
HETATM   13  C   UNL     1     -10.282   8.140  67.877  1.00  0.00    -0.274 A  
HETATM   14  C   UNL     1     -10.011   7.588  69.142  1.00  0.00    -0.179 A  
BRANCH  12  15
HETATM   15  C   UNL     1      -9.625   7.907  71.656  1.00  0.00    -0.206 A  
HETATM   16  C   UNL     1     -10.605   7.479  72.598  1.00  0.00    -0.338 A  
HETATM   17  C   UNL     1     -10.311   7.168  73.926  1.00  0.00    -0.339 A  
HETATM   18  C   UNL     1      -9.001   7.223  74.365  1.00  0.00    -0.222 A  
HETATM   19  C   UNL     1      -8.002   7.589  73.466  1.00  0.00    -0.158 A  
HETATM   20  C   UNL     1      -8.280   7.940  72.118  1.00  0.00    -0.160 A  
BRANCH  20  21
HETATM   21  C   UNL     1      -7.103   8.332  71.346  1.00  0.00    -0.067 A  
HETATM   22  N   UNL     1      -6.884   9.592  70.912  1.00  0.00    -0.265 NA 
HETATM   23  N   UNL     1      -5.758   9.425  70.209  1.00  0.00    -0.034 NA 
HETATM   24  H   UNL     1      -7.427  10.439  71.076  1.00  0.00     0.000 HD 
HETATM   25  N   UNL     1      -5.258   8.183  70.197  1.00  0.00    -0.023 NA 
HETATM   26  N   UNL     1      -6.133   7.467  70.892  1.00  0.00    -0.035 NA 
ENDBRANCH  20  21
ENDBRANCH  12  15
ENDBRANCH   8   9
ENDBRANCH   6   8
BRANCH   6  27
HETATM   27  C   UNL     1     -11.345  12.656  66.534  1.00  0.00    -0.326 C  
HETATM   28  C   UNL     1     -11.611  13.662  65.370  1.00  0.00    -0.321 C  
HETATM   29  O   UNL     1     -12.735  14.104  65.141  1.00  0.00    -0.616 OA 
HETATM   30  C   UNL     1     -11.353  13.352  67.931  1.00  0.00    -0.322 C  
HETATM   31  O   UNL     1     -10.560  14.125  64.672  1.00  0.00    -0.420 OA 
HETATM   32  C   UNL     1     -10.010  13.906  68.393  1.00  0.00    -0.233 C  
HETATM   33  C   UNL     1     -12.463  14.388  68.113  1.00  0.00     0.214 C  
ENDBRANCH   6  27
ENDBRANCH   4   5
ENDBRANCH   3   4
ENDBRANCH   2   3
TORSDOF 8
ENDMDL
MODEL      267
REMARK 921   NORMALIZED FREE ENERGY PREDICTED BY IDOCK:   -3.62 KCAL/MOL
REMARK 922        TOTAL FREE ENERGY PREDICTED BY IDOCK:   -5.84 KCAL/MOL
REMARK 923 INTER-LIGAND FREE ENERGY PREDICTED BY IDOCK:   -6.10 KCAL/MOL
REMARK 924 INTRA-LIGAND FREE ENERGY PREDICTED BY IDOCK:    0.26 KCAL/MOL
REMARK 927      BINDING AFFINITY PREDICTED BY RF-SCORE:    0.00 PKD
ROOT
HETATM    1  C   UNL     1      -8.919   9.502  70.339  1.00  0.00    -0.291 C  
HETATM    2  C   UNL     1      -7.737   9.380  69.400  1.00  0.00    -0.085 C  
ENDROOT
BRANCH   2   3
HETATM    3  C   UNL     1      -6.754  10.545  69.536  1.00  0.00    -0.089 C  
BRANCH   3   4
HETATM    4  C   UNL     1      -6.925  11.487  68.344  1.00  0.00    -0.077 C  
BRANCH   4   5
HETATM    5  C   UNL     1      -7.273  10.792  67.046  1.00  0.00    -0.109 C  
HETATM    6  N   UNL     1      -8.558  10.947  66.528  1.00  0.00    -0.151 N  
HETATM    7  O   UNL     1      -6.435  10.090  66.471  1.00  0.00    -0.068 OA 
BRANCH   6   8
HETATM    8  C   UNL     1      -9.583  11.817  67.176  1.00  0.00    -0.181 C  
BRANCH   8   9
HETATM    9  C   UNL     1      -9.232  13.295  67.208  1.00  0.00    -0.222 A  
HETATM   10  C   UNL     1      -9.021  13.941  68.427  1.00  0.00    -0.178 A  
HETATM   11  C   UNL     1      -9.017  15.342  68.498  1.00  0.00    -0.192 A  
HETATM   12  C   UNL     1      -9.132  16.163  67.362  1.00  0.00    -0.203 A  
HETATM   13  C   UNL     1      -9.173  14.089  66.059  1.00  0.00     0.026 A  
HETATM   14  C   UNL     1      -9.094  15.492  66.130  1.00  0.00    -0.359 A  
BRANCH  12  15
HETATM   15  C   UNL     1      -9.295  17.650  67.497  1.00  0.00    -0.248 A  
HETATM   16  C   UNL     1     -10.497  18.112  68.109  1.00  0.00    -0.365 A  
HETATM   17  C   UNL     1     -10.855  19.459  68.182  1.00  0.00    -0.097 A  
HETATM   18  C   UNL     1      -9.995  20.420  67.684  1.00  0.00    -0.514 A  
HETATM   19  C   UNL     1      -8.786  20.019  67.121  1.00  0.00    -0.429 A  
HETATM   20  C   UNL     1      -8.413  18.653  67.008  1.00  0.00    -0.275 A  
BRANCH  20  21
HETATM   21  C   UNL     1      -7.125  18.435  66.352  1.00  0.00    -0.239 A  
HETATM   22  N   UNL     1      -6.615  19.267  65.419  1.00  0.00    -0.291 NA 
HETATM   23  N   UNL     1      -5.500  18.611  65.079  1.00  0.00    -0.203 NA 
HETATM   24  H   UNL     1      -6.980  20.153  65.070  1.00  0.00     0.000 HD 
HETATM   25  N   UNL     1      -5.271  17.468  65.740  1.00  0.00    -0.282 NA 
HETATM   26  N   UNL     1      -6.327  17.328  66.532  1.00  0.00    -0.213 NA 
ENDBRANCH  20  21
ENDBRANCH  12  15
ENDBRANCH   8   9
ENDBRANCH   6   8
BRANCH   6  27
HETATM   27  C   UNL     1      -8.880  10.427  65.147  1.00  0.00    -0.189 C  
HETATM   28  C   UNL     1     -10.256  10.727  64.473  1.00  0.00    -0.359 C  
HETATM   29  O   UNL     1     -10.360  10.887  63.258  1.00  0.00    -0.325 OA 
HETATM   30  C   UNL     1      -8.416   8.954  64.917  1.00  0.00    -0.195 C  
HETATM   31  O   UNL     1     -11.362  10.707  65.237  1.00  0.00     0.380 OA 
HETATM   32  C   UNL     1      -8.899   7.946  65.953  1.00  0.00    -0.183 C  
HETATM   33  C   UNL     1      -8.653   8.434  63.497  1.00  0.00     0.107 C  
ENDBRANCH   6  27
ENDBRANCH   4   5
ENDBRANCH   3   4
ENDBRANCH   2   3
TORSDOF 8
ENDMDL
MODEL      268
REMARK 921   NORMALIZED FREE ENERGY PREDICTED BY IDOCK:   -3.62 KCAL/MOL
REMARK 922        TOTAL FREE ENERGY PREDICTED BY IDOCK:   -5.83 KCAL/MOL
REMARK 923 INTER-LIGAND FREE ENERGY PREDICTED BY IDOCK:   -5.72 KCAL/MOL
REMARK 924 INTRA-LIGAND FREE ENERGY PREDICTED BY IDOCK:   -0.12 KCAL/MOL
REMARK 927      BINDING AFFINITY PREDICTED BY RF-SCORE:    0.00 PKD
ROOT
HETATM    1  C   UNL     1      -9.470   1.660  70.439  1.00  0.00    -0.153 C  
HETATM    2  C   UNL     1      -9.330   3.167  70.372  1.00  0.00    -0.232 C  
ENDROOT
BRANCH   2   3
HETATM    3  C   UNL     1      -9.252   3.687  68.934  1.00  0.00    -0.223 C  
BRANCH   3   4
HETATM    4  C   UNL     1      -7.792   3.971  68.582  1.00  0.00    -0.068 C  
BRANCH   4   5
HETATM    5  C   UNL     1      -7.566   4.377  67.142  1.00  0.00    -0.085 C  
HETATM    6  N   UNL     1      -7.093   5.661  66.875  1.00  0.00    -0.069 N  
HETATM    7  O   UNL     1      -7.814   3.587  66.226  1.00  0.00    -0.087 OA 
BRANCH   6   8
HETATM    8  C   UNL     1      -6.747   6.628  67.957  1.00  0.00    -0.071 C  
BRANCH   8   9
HETATM    9  C   UNL     1      -7.931   7.117  68.774  1.00  0.00    -0.123 A  
HETATM   10  C   UNL     1      -9.205   7.165  68.207  1.00  0.00    -0.132 A  
HETATM   11  C   UNL     1     -10.230   7.900  68.822  1.00  0.00    -0.218 A  
HETATM   12  C   UNL     1     -10.067   8.543  70.062  1.00  0.00    -0.195 A  
HETATM   13  C   UNL     1      -7.807   7.600  70.080  1.00  0.00    -0.101 A  
HETATM   14  C   UNL     1      -8.861   8.273  70.725  1.00  0.00    -0.162 A  
BRANCH  12  15
HETATM   15  C   UNL     1     -11.130   9.459  70.601  1.00  0.00    -0.351 A  
HETATM   16  C   UNL     1     -11.844   9.009  71.750  1.00  0.00    -0.442 A  
HETATM   17  C   UNL     1     -12.946   9.680  72.282  1.00  0.00    -0.440 A  
HETATM   18  C   UNL     1     -13.358  10.871  71.713  1.00  0.00    -0.413 A  
HETATM   19  C   UNL     1     -12.659  11.376  70.619  1.00  0.00    -0.360 A  
HETATM   20  C   UNL     1     -11.554  10.696  70.041  1.00  0.00    -0.406 A  
BRANCH  20  21
HETATM   21  C   UNL     1     -10.980  11.366  68.876  1.00  0.00    -0.226 A  
HETATM   22  N   UNL     1     -10.061  12.351  68.962  1.00  0.00    -0.423 NA 
HETATM   23  N   UNL     1      -9.922  12.680  67.673  1.00  0.00    -0.212 NA 
HETATM   24  H   UNL     1      -9.599  12.739  69.785  1.00  0.00     0.000 HD 
HETATM   25  N   UNL     1     -10.653  11.966  66.807  1.00  0.00    -0.221 NA 
HETATM   26  N   UNL     1     -11.363  11.146  67.572  1.00  0.00    -0.439 NA 
ENDBRANCH  20  21
ENDBRANCH  12  15
ENDBRANCH   8   9
ENDBRANCH   6   8
BRANCH   6  27
HETATM   27  C   UNL     1      -6.679   6.033  65.471  1.00  0.00    -0.048 C  
HETATM   28  C   UNL     1      -6.157   7.467  65.137  1.00  0.00    -0.038 C  
HETATM   29  O   UNL     1      -5.292   7.658  64.284  1.00  0.00    -0.029 OA 
HETATM   30  C   UNL     1      -7.644   5.485  64.374  1.00  0.00    -0.074 C  
HETATM   31  O   UNL     1      -6.746   8.518  65.732  1.00  0.00    -0.062 OA 
HETATM   32  C   UNL     1      -9.117   5.830  64.567  1.00  0.00     0.438 C  
HETATM   33  C   UNL     1      -7.199   5.774  62.940  1.00  0.00    -0.051 C  
ENDBRANCH   6  27
ENDBRANCH   4   5
ENDBRANCH   3   4
ENDBRANCH   2   3
TORSDOF 8
ENDMDL
MODEL      269
REMARK 921   NORMALIZED FREE ENERGY PREDICTED BY IDOCK:   -3.59 KCAL/MOL
REMARK 922        TOTAL FREE ENERGY PREDICTED BY IDOCK:   -5.80 KCAL/MOL
REMARK 923 INTER-LIGAND FREE ENERGY PREDICTED BY IDOCK:   -5.83 KCAL/MOL
REMARK 924 INTRA-LIGAND FREE ENERGY PREDICTED BY IDOCK:    0.04 KCAL/MOL
REMARK 927      BINDING AFFINITY PREDICTED BY RF-SCORE:    0.00 PKD
ROOT
HETATM    1  C   UNL     1     -12.497   8.251  71.908  1.00  0.00    -0.376 C  
HETATM    2  C   UNL     1     -11.112   8.496  72.471  1.00  0.00    -0.328 C  
ENDROOT
BRANCH   2   3
HETATM    3  C   UNL     1     -10.217   9.283  71.511  1.00  0.00    -0.338 C  
BRANCH   3   4
HETATM    4  C   UNL     1      -8.844   8.614  71.443  1.00  0.00    -0.276 C  
BRANCH   4   5
HETATM    5  C   UNL     1      -8.490   8.054  70.083  1.00  0.00    -0.128 C  
HETATM    6  N   UNL     1      -7.742   8.842  69.209  1.00  0.00    -0.093 N  
HETATM    7  O   UNL     1      -8.873   6.928  69.754  1.00  0.00    -0.140 OA 
BRANCH   6   8
HETATM    8  C   UNL     1      -7.231  10.192  69.586  1.00  0.00    -0.127 C  
BRANCH   8   9
HETATM    9  C   UNL     1      -7.826  11.342  68.791  1.00  0.00    -0.128 A  
HETATM   10  C   UNL     1      -7.076  12.494  68.553  1.00  0.00    -0.107 A  
HETATM   11  C   UNL     1      -7.701  13.671  68.112  1.00  0.00    -0.138 A  
HETATM   12  C   UNL     1      -9.072  13.735  67.804  1.00  0.00    -0.193 A  
HETATM   13  C   UNL     1      -9.144  11.344  68.327  1.00  0.00    -0.179 A  
HETATM   14  C   UNL     1      -9.749  12.506  67.815  1.00  0.00    -0.202 A  
BRANCH  12  15
HETATM   15  C   UNL     1      -9.734  15.050  67.502  1.00  0.00    -0.215 A  
HETATM   16  C   UNL     1      -9.411  15.661  66.254  1.00  0.00    -0.351 A  
HETATM   17  C   UNL     1      -9.835  16.940  65.892  1.00  0.00    -0.241 A  
HETATM   18  C   UNL     1     -10.649  17.656  66.749  1.00  0.00    -0.224 A  
HETATM   19  C   UNL     1     -11.032  17.080  67.958  1.00  0.00    -0.252 A  
HETATM   20  C   UNL     1     -10.589  15.792  68.362  1.00  0.00    -0.264 A  
BRANCH  20  21
HETATM   21  C   UNL     1     -11.066  15.381  69.681  1.00  0.00    -0.276 A  
HETATM   22  N   UNL     1     -12.357  15.086  69.947  1.00  0.00    -0.483 NA 
HETATM   23  N   UNL     1     -12.297  14.857  71.263  1.00  0.00    -0.299 NA 
HETATM   24  H   UNL     1     -13.158  15.049  69.317  1.00  0.00     0.000 HD 
HETATM   25  N   UNL     1     -11.083  14.958  71.819  1.00  0.00    -0.001 NA 
HETATM   26  N   UNL     1     -10.293  15.330  70.819  1.00  0.00     0.048 NA 
ENDBRANCH  20  21
ENDBRANCH  12  15
ENDBRANCH   8   9
ENDBRANCH   6   8
BRANCH   6  27
HETATM   27  C   UNL     1      -7.213   8.248  67.925  1.00  0.00    -0.095 C  
HETATM   28  C   UNL     1      -8.181   7.676  66.842  1.00  0.00    -0.120 C  
HETATM   29  O   UNL     1      -7.928   7.757  65.641  1.00  0.00    -0.103 OA 
HETATM   30  C   UNL     1      -5.956   7.345  68.133  1.00  0.00    -0.034 C  
HETATM   31  O   UNL     1      -9.264   6.992  67.247  1.00  0.00    -0.125 OA 
HETATM   32  C   UNL     1      -6.111   6.236  69.167  1.00  0.00    -0.029 C  
HETATM   33  C   UNL     1      -5.349   6.803  66.837  1.00  0.00    -0.017 C  
ENDBRANCH   6  27
ENDBRANCH   4   5
ENDBRANCH   3   4
ENDBRANCH   2   3
TORSDOF 8
ENDMDL
MODEL      270
REMARK 921   NORMALIZED FREE ENERGY PREDICTED BY IDOCK:   -3.57 KCAL/MOL
REMARK 922        TOTAL FREE ENERGY PREDICTED BY IDOCK:   -5.77 KCAL/MOL
REMARK 923 INTER-LIGAND FREE ENERGY PREDICTED BY IDOCK:   -5.85 KCAL/MOL
REMARK 924 INTRA-LIGAND FREE ENERGY PREDICTED BY IDOCK:    0.09 KCAL/MOL
REMARK 927      BINDING AFFINITY PREDICTED BY RF-SCORE:    0.00 PKD
ROOT
HETATM    1  C   UNL     1      -5.491  10.110  70.209  1.00  0.00    -0.050 C  
HETATM    2  C   UNL     1      -5.569  11.586  70.545  1.00  0.00    -0.149 C  
ENDROOT
BRANCH   2   3
HETATM    3  C   UNL     1      -6.004  12.438  69.350  1.00  0.00    -0.100 C  
BRANCH   3   4
HETATM    4  C   UNL     1      -7.233  11.803  68.701  1.00  0.00    -0.112 C  
BRANCH   4   5
HETATM    5  C   UNL     1      -8.239  12.798  68.165  1.00  0.00    -0.167 C  
HETATM    6  N   UNL     1      -9.186  12.361  67.240  1.00  0.00    -0.181 N  
HETATM    7  O   UNL     1      -8.206  13.976  68.533  1.00  0.00    -0.142 OA 
BRANCH   6   8
HETATM    8  C   UNL     1      -9.279  10.938  66.801  1.00  0.00    -0.158 C  
BRANCH   8   9
HETATM    9  C   UNL     1      -9.894   9.997  67.823  1.00  0.00    -0.185 A  
HETATM   10  C   UNL     1      -9.828  10.297  69.184  1.00  0.00    -0.228 A  
HETATM   11  C   UNL     1     -10.095   9.308  70.144  1.00  0.00    -0.249 A  
HETATM   12  C   UNL     1     -10.523   8.013  69.804  1.00  0.00    -0.227 A  
HETATM   13  C   UNL     1     -10.481   8.777  67.477  1.00  0.00    -0.340 A  
HETATM   14  C   UNL     1     -10.819   7.814  68.446  1.00  0.00     0.009 A  
BRANCH  12  15
HETATM   15  C   UNL     1     -10.633   6.937  70.848  1.00  0.00    -0.243 A  
HETATM   16  C   UNL     1     -11.916   6.741  71.437  1.00  0.00    -0.403 A  
HETATM   17  C   UNL     1     -12.145   5.880  72.511  1.00  0.00    -0.100 A  
HETATM   18  C   UNL     1     -11.100   5.132  73.020  1.00  0.00    -0.379 A  
HETATM   19  C   UNL     1      -9.838   5.253  72.443  1.00  0.00    -0.198 A  
HETATM   20  C   UNL     1      -9.573   6.144  71.369  1.00  0.00    -0.177 A  
BRANCH  20  21
HETATM   21  C   UNL     1      -8.179   6.156  70.930  1.00  0.00    -0.126 A  
HETATM   22  N   UNL     1      -7.267   7.046  71.374  1.00  0.00    -0.077 NA 
HETATM   23  N   UNL     1      -6.203   6.706  70.638  1.00  0.00    -0.034 NA 
HETATM   24  H   UNL     1      -7.363   7.778  72.078  1.00  0.00     0.000 HD 
HETATM   25  N   UNL     1      -6.377   5.672  69.806  1.00  0.00    -0.032 NA 
HETATM   26  N   UNL     1      -7.652   5.336  69.958  1.00  0.00    -0.067 NA 
ENDBRANCH  20  21
ENDBRANCH  12  15
ENDBRANCH   8   9
ENDBRANCH   6   8
BRANCH   6  27
HETATM   27  C   UNL     1     -10.316  13.275  66.830  1.00  0.00    -0.257 C  
HETATM   28  C   UNL     1     -11.802  12.910  67.140  1.00  0.00    -0.362 C  
HETATM   29  O   UNL     1     -12.639  13.772  67.401  1.00  0.00    -0.068 OA 
HETATM   30  C   UNL     1     -10.139  13.876  65.400  1.00  0.00    -0.328 C  
HETATM   31  O   UNL     1     -12.186  11.628  67.016  1.00  0.00    -0.324 OA 
HETATM   32  C   UNL     1      -9.894  12.860  64.290  1.00  0.00     0.010 C  
HETATM   33  C   UNL     1     -11.226  14.874  64.997  1.00  0.00    -0.408 C  
ENDBRANCH   6  27
ENDBRANCH   4   5
ENDBRANCH   3   4
ENDBRANCH   2   3
TORSDOF 8
ENDMDL
MODEL      271
REMARK 921   NORMALIZED FREE ENERGY PREDICTED BY IDOCK:   -3.55 KCAL/MOL
REMARK 922        TOTAL FREE ENERGY PREDICTED BY IDOCK:   -5.74 KCAL/MOL
REMARK 923 INTER-LIGAND FREE ENERGY PREDICTED BY IDOCK:   -6.41 KCAL/MOL
REMARK 924 INTRA-LIGAND FREE ENERGY PREDICTED BY IDOCK:    0.67 KCAL/MOL
REMARK 927      BINDING AFFINITY PREDICTED BY RF-SCORE:    0.00 PKD
ROOT
HETATM    1  C   UNL     1      -8.613   9.375  70.216  1.00  0.00    -0.249 C  
HETATM    2  C   UNL     1      -7.480   8.977  69.292  1.00  0.00    -0.075 C  
ENDROOT
BRANCH   2   3
HETATM    3  C   UNL     1      -6.455  10.098  69.101  1.00  0.00    -0.049 C  
BRANCH   3   4
HETATM    4  C   UNL     1      -7.015  11.128  68.120  1.00  0.00    -0.069 C  
BRANCH   4   5
HETATM    5  C   UNL     1      -6.940  10.710  66.667  1.00  0.00    -0.119 C  
HETATM    6  N   UNL     1      -8.127  10.474  65.976  1.00  0.00    -0.144 N  
HETATM    7  O   UNL     1      -5.844  10.567  66.116  1.00  0.00    -0.076 OA 
BRANCH   6   8
HETATM    8  C   UNL     1      -9.469  10.673  66.599  1.00  0.00    -0.167 C  
BRANCH   8   9
HETATM    9  C   UNL     1      -9.781  12.107  66.992  1.00  0.00    -0.208 A  
HETATM   10  C   UNL     1     -10.150  13.037  66.020  1.00  0.00    -0.286 A  
HETATM   11  C   UNL     1     -10.127  14.411  66.307  1.00  0.00    -0.308 A  
HETATM   12  C   UNL     1      -9.827  14.918  67.584  1.00  0.00    -0.217 A  
HETATM   13  C   UNL     1      -9.651  12.583  68.300  1.00  0.00    -0.209 A  
HETATM   14  C   UNL     1      -9.704  13.957  68.598  1.00  0.00    -0.160 A  
BRANCH  12  15
HETATM   15  C   UNL     1      -9.645  16.394  67.805  1.00  0.00    -0.231 A  
HETATM   16  C   UNL     1     -10.657  17.252  67.281  1.00  0.00    -0.283 A  
HETATM   17  C   UNL     1     -10.562  18.644  67.285  1.00  0.00    -0.480 A  
HETATM   18  C   UNL     1      -9.462  19.250  67.863  1.00  0.00    -0.393 A  
HETATM   19  C   UNL     1      -8.472  18.453  68.432  1.00  0.00    -0.345 A  
HETATM   20  C   UNL     1      -8.531  17.034  68.414  1.00  0.00    -0.239 A  
BRANCH  20  21
HETATM   21  C   UNL     1      -7.377  16.377  69.026  1.00  0.00    -0.221 A  
HETATM   22  N   UNL     1      -6.373  17.048  69.629  1.00  0.00    -0.238 NA 
HETATM   23  N   UNL     1      -5.549  16.041  69.941  1.00  0.00    -0.146 NA 
HETATM   24  H   UNL     1      -6.270  18.048  69.800  1.00  0.00     0.000 HD 
HETATM   25  N   UNL     1      -5.973  14.816  69.607  1.00  0.00    -0.106 NA 
HETATM   26  N   UNL     1      -7.128  15.024  68.986  1.00  0.00    -0.122 NA 
ENDBRANCH  20  21
ENDBRANCH  12  15
ENDBRANCH   8   9
ENDBRANCH   6   8
BRANCH   6  27
HETATM   27  C   UNL     1      -8.097  10.241  64.485  1.00  0.00    -0.150 C  
HETATM   28  C   UNL     1      -9.231  10.787  63.560  1.00  0.00    -0.257 C  
HETATM   29  O   UNL     1      -9.002  11.170  62.414  1.00  0.00    -0.319 OA 
HETATM   30  C   UNL     1      -7.656   8.797  64.092  1.00  0.00    -0.122 C  
HETATM   31  O   UNL     1     -10.498  10.736  64.002  1.00  0.00    -0.358 OA 
HETATM   32  C   UNL     1      -8.441   7.670  64.755  1.00  0.00     0.037 C  
HETATM   33  C   UNL     1      -7.532   8.563  62.585  1.00  0.00    -0.100 C  
ENDBRANCH   6  27
ENDBRANCH   4   5
ENDBRANCH   3   4
ENDBRANCH   2   3
TORSDOF 8
ENDMDL
MODEL      272
REMARK 921   NORMALIZED FREE ENERGY PREDICTED BY IDOCK:   -3.54 KCAL/MOL
REMARK 922        TOTAL FREE ENERGY PREDICTED BY IDOCK:   -5.72 KCAL/MOL
REMARK 923 INTER-LIGAND FREE ENERGY PREDICTED BY IDOCK:   -4.97 KCAL/MOL
REMARK 924 INTRA-LIGAND FREE ENERGY PREDICTED BY IDOCK:   -0.75 KCAL/MOL
REMARK 927      BINDING AFFINITY PREDICTED BY RF-SCORE:    0.00 PKD
ROOT
HETATM    1  C   UNL     1     -12.145  14.150  66.764  1.00  0.00    -0.474 C  
HETATM    2  C   UNL     1     -12.285  13.002  67.742  1.00  0.00    -0.079 C  
ENDROOT
BRANCH   2   3
HETATM    3  C   UNL     1     -11.136  11.996  67.636  1.00  0.00    -0.319 C  
BRANCH   3   4
HETATM    4  C   UNL     1      -9.987  12.627  66.850  1.00  0.00    -0.232 C  
BRANCH   4   5
HETATM    5  C   UNL     1      -9.035  11.628  66.228  1.00  0.00    -0.193 C  
HETATM    6  N   UNL     1      -7.952  11.177  66.982  1.00  0.00    -0.138 N  
HETATM    7  O   UNL     1      -9.211  11.238  65.070  1.00  0.00    -0.203 OA 
BRANCH   6   8
HETATM    8  C   UNL     1      -7.730  11.599  68.396  1.00  0.00    -0.130 C  
BRANCH   8   9
HETATM    9  C   UNL     1      -7.133  12.987  68.558  1.00  0.00    -0.105 A  
HETATM   10  C   UNL     1      -7.080  13.586  69.817  1.00  0.00     0.376 A  
HETATM   11  C   UNL     1      -6.838  14.963  69.939  1.00  0.00    -0.167 A  
HETATM   12  C   UNL     1      -6.550  15.786  68.836  1.00  0.00    -0.119 A  
HETATM   13  C   UNL     1      -6.681  13.752  67.479  1.00  0.00    -0.131 A  
HETATM   14  C   UNL     1      -6.366  15.116  67.617  1.00  0.00    -0.164 A  
BRANCH  12  15
HETATM   15  C   UNL     1      -6.467  17.279  68.988  1.00  0.00    -0.221 A  
HETATM   16  C   UNL     1      -5.304  17.796  69.630  1.00  0.00    -0.199 A  
HETATM   17  C   UNL     1      -5.145  19.141  69.967  1.00  0.00    -0.205 A  
HETATM   18  C   UNL     1      -6.131  20.049  69.630  1.00  0.00    -0.377 A  
HETATM   19  C   UNL     1      -7.264  19.598  68.956  1.00  0.00    -0.379 A  
HETATM   20  C   UNL     1      -7.463  18.230  68.630  1.00  0.00    -0.308 A  
BRANCH  20  21
HETATM   21  C   UNL     1      -8.731  17.951  67.960  1.00  0.00    -0.256 A  
HETATM   22  N   UNL     1      -8.921  18.103  66.632  1.00  0.00    -0.276 NA 
HETATM   23  N   UNL     1     -10.223  17.812  66.529  1.00  0.00    -0.347 NA 
HETATM   24  H   UNL     1      -8.255  18.368  65.907  1.00  0.00     0.000 HD 
HETATM   25  N   UNL     1     -10.837  17.470  67.669  1.00  0.00    -0.302 NA 
HETATM   26  N   UNL     1      -9.897  17.592  68.599  1.00  0.00    -0.331 NA 
ENDBRANCH  20  21
ENDBRANCH  12  15
ENDBRANCH   8   9
ENDBRANCH   6   8
BRANCH   6  27
HETATM   27  C   UNL     1      -7.096  10.045  66.466  1.00  0.00    -0.097 C  
HETATM   28  C   UNL     1      -6.426   9.029  67.444  1.00  0.00    -0.064 C  
HETATM   29  O   UNL     1      -6.270   7.847  67.142  1.00  0.00    -0.051 OA 
HETATM   30  C   UNL     1      -6.139  10.471  65.309  1.00  0.00    -0.110 C  
HETATM   31  O   UNL     1      -5.923   9.490  68.601  1.00  0.00    -0.043 OA 
HETATM   32  C   UNL     1      -5.249  11.673  65.604  1.00  0.00     0.721 C  
HETATM   33  C   UNL     1      -5.324   9.323  64.709  1.00  0.00    -0.049 C  
ENDBRANCH   6  27
ENDBRANCH   4   5
ENDBRANCH   3   4
ENDBRANCH   2   3
TORSDOF 8
ENDMDL
MODEL      273
REMARK 921   NORMALIZED FREE ENERGY PREDICTED BY IDOCK:   -3.53 KCAL/MOL
REMARK 922        TOTAL FREE ENERGY PREDICTED BY IDOCK:   -5.70 KCAL/MOL
REMARK 923 INTER-LIGAND FREE ENERGY PREDICTED BY IDOCK:   -4.77 KCAL/MOL
REMARK 924 INTRA-LIGAND FREE ENERGY PREDICTED BY IDOCK:   -0.94 KCAL/MOL
REMARK 927      BINDING AFFINITY PREDICTED BY RF-SCORE:    0.00 PKD
ROOT
HETATM    1  C   UNL     1     -11.067   6.417  68.574  1.00  0.00    -0.385 C  
HETATM    2  C   UNL     1     -11.048   6.670  67.080  1.00  0.00    -0.427 C  
ENDROOT
BRANCH   2   3
HETATM    3  C   UNL     1     -10.245   7.918  66.706  1.00  0.00    -0.358 C  
BRANCH   3   4
HETATM    4  C   UNL     1     -10.653   9.072  67.622  1.00  0.00    -0.298 C  
BRANCH   4   5
HETATM    5  C   UNL     1     -10.185  10.433  67.156  1.00  0.00    -0.222 C  
HETATM    6  N   UNL     1      -9.230  11.109  67.914  1.00  0.00    -0.150 N  
HETATM    7  O   UNL     1     -10.656  10.937  66.131  1.00  0.00    -0.254 OA 
BRANCH   6   8
HETATM    8  C   UNL     1      -8.613  10.515  69.136  1.00  0.00    -0.150 C  
BRANCH   8   9
HETATM    9  C   UNL     1      -7.833   9.233  68.896  1.00  0.00    -0.087 A  
HETATM   10  C   UNL     1      -6.999   9.116  67.784  1.00  0.00    -0.078 A  
HETATM   11  C   UNL     1      -6.532   7.858  67.375  1.00  0.00    -0.056 A  
HETATM   12  C   UNL     1      -6.794   6.678  68.093  1.00  0.00    -0.074 A  
HETATM   13  C   UNL     1      -7.956   8.104  69.710  1.00  0.00    -0.111 A  
HETATM   14  C   UNL     1      -7.422   6.857  69.335  1.00  0.00    -0.094 A  
BRANCH  12  15
HETATM   15  C   UNL     1      -6.424   5.334  67.532  1.00  0.00    -0.052 A  
HETATM   16  C   UNL     1      -5.602   5.328  66.367  1.00  0.00    -0.017 A  
HETATM   17  C   UNL     1      -5.289   4.171  65.653  1.00  0.00    -0.009 A  
HETATM   18  C   UNL     1      -5.748   2.947  66.103  1.00  0.00    -0.022 A  
HETATM   19  C   UNL     1      -6.513   2.898  67.266  1.00  0.00    -0.036 A  
HETATM   20  C   UNL     1      -6.871   4.064  67.993  1.00  0.00    -0.047 A  
BRANCH  20  21
HETATM   21  C   UNL     1      -7.711   3.809  69.161  1.00  0.00    -0.052 A  
HETATM   22  N   UNL     1      -7.217   3.578  70.397  1.00  0.00    -0.040 NA 
HETATM   23  N   UNL     1      -8.343   3.328  71.075  1.00  0.00    -0.064 NA 
HETATM   24  H   UNL     1      -6.251   3.590  70.723  1.00  0.00     0.000 HD 
HETATM   25  N   UNL     1      -9.479   3.412  70.371  1.00  0.00    -0.171 NA 
HETATM   26  N   UNL     1      -9.082   3.684  69.134  1.00  0.00    -0.123 NA 
ENDBRANCH  20  21
ENDBRANCH  12  15
ENDBRANCH   8   9
ENDBRANCH   6   8
BRANCH   6  27
HETATM   27  C   UNL     1      -8.605  12.376  67.382  1.00  0.00    -0.181 C  
HETATM   28  C   UNL     1      -7.213  12.865  67.893  1.00  0.00    -0.125 C  
HETATM   29  O   UNL     1      -6.420  13.448  67.154  1.00  0.00    -0.220 OA 
HETATM   30  C   UNL     1      -9.622  13.549  67.222  1.00  0.00    -0.235 C  
HETATM   31  O   UNL     1      -6.926  12.730  69.199  1.00  0.00    -0.090 OA 
HETATM   32  C   UNL     1     -10.438  13.881  68.466  1.00  0.00    -0.253 C  
HETATM   33  C   UNL     1      -9.031  14.816  66.601  1.00  0.00    -0.286 C  
ENDBRANCH   6  27
ENDBRANCH   4   5
ENDBRANCH   3   4
ENDBRANCH   2   3
TORSDOF 8
ENDMDL
MODEL      274
REMARK 921   NORMALIZED FREE ENERGY PREDICTED BY IDOCK:   -3.53 KCAL/MOL
REMARK 922        TOTAL FREE ENERGY PREDICTED BY IDOCK:   -5.70 KCAL/MOL
REMARK 923 INTER-LIGAND FREE ENERGY PREDICTED BY IDOCK:   -6.28 KCAL/MOL
REMARK 924 INTRA-LIGAND FREE ENERGY PREDICTED BY IDOCK:    0.58 KCAL/MOL
REMARK 927      BINDING AFFINITY PREDICTED BY RF-SCORE:    0.00 PKD
ROOT
HETATM    1  C   UNL     1     -10.624  15.656  65.430  1.00  0.00    -0.436 C  
HETATM    2  C   UNL     1     -11.036  14.366  66.110  1.00  0.00    -0.330 C  
ENDROOT
BRANCH   2   3
HETATM    3  C   UNL     1     -11.082  13.180  65.144  1.00  0.00    -0.308 C  
BRANCH   3   4
HETATM    4  C   UNL     1     -11.657  11.963  65.871  1.00  0.00    -0.291 C  
BRANCH   4   5
HETATM    5  C   UNL     1     -10.973  11.640  67.181  1.00  0.00    -0.280 C  
HETATM    6  N   UNL     1     -10.012  10.631  67.204  1.00  0.00    -0.189 N  
HETATM    7  O   UNL     1     -11.277  12.252  68.210  1.00  0.00    -0.228 OA 
BRANCH   6   8
HETATM    8  C   UNL     1      -9.594   9.897  65.974  1.00  0.00    -0.225 C  
BRANCH   8   9
HETATM    9  C   UNL     1      -9.672   8.383  66.080  1.00  0.00    -0.146 A  
HETATM   10  C   UNL     1     -10.651   7.783  66.872  1.00  0.00    -0.347 A  
HETATM   11  C   UNL     1     -10.543   6.432  67.235  1.00  0.00    -0.382 A  
HETATM   12  C   UNL     1      -9.516   5.596  66.761  1.00  0.00    -0.150 A  
HETATM   13  C   UNL     1      -8.752   7.529  65.465  1.00  0.00    -0.062 A  
HETATM   14  C   UNL     1      -8.692   6.157  65.774  1.00  0.00    -0.151 A  
BRANCH  12  15
HETATM   15  C   UNL     1      -9.338   4.207  67.306  1.00  0.00    -0.200 A  
HETATM   16  C   UNL     1      -9.082   4.093  68.704  1.00  0.00    -0.185 A  
HETATM   17  C   UNL     1      -8.760   2.889  69.331  1.00  0.00    -0.131 A  
HETATM   18  C   UNL     1      -8.726   1.723  68.590  1.00  0.00    -0.109 A  
HETATM   19  C   UNL     1      -9.018   1.777  67.229  1.00  0.00    -0.153 A  
HETATM   20  C   UNL     1      -9.319   2.995  66.562  1.00  0.00    -0.093 A  
BRANCH  20  21
HETATM   21  C   UNL     1      -9.558   2.850  65.128  1.00  0.00    -0.019 A  
HETATM   22  N   UNL     1     -10.748   3.100  64.542  1.00  0.00    -0.411 NA 
HETATM   23  N   UNL     1     -10.485   2.753  63.278  1.00  0.00    -0.180 NA 
HETATM   24  H   UNL     1     -11.611   3.457  64.952  1.00  0.00     0.000 HD 
HETATM   25  N   UNL     1      -9.235   2.339  63.034  1.00  0.00    -0.091 NA 
HETATM   26  N   UNL     1      -8.643   2.362  64.222  1.00  0.00    -0.090 NA 
ENDBRANCH  20  21
ENDBRANCH  12  15
ENDBRANCH   8   9
ENDBRANCH   6   8
BRANCH   6  27
HETATM   27  C   UNL     1      -9.180  10.411  68.444  1.00  0.00    -0.147 C  
HETATM   28  C   UNL     1      -9.844  10.031  69.805  1.00  0.00    -0.235 C  
HETATM   29  O   UNL     1      -9.287   9.288  70.612  1.00  0.00    -0.236 OA 
HETATM   30  C   UNL     1      -8.037  11.460  68.616  1.00  0.00    -0.141 C  
HETATM   31  O   UNL     1     -11.008  10.616  70.135  1.00  0.00    -0.282 OA 
HETATM   32  C   UNL     1      -8.474  12.919  68.563  1.00  0.00    -0.045 C  
HETATM   33  C   UNL     1      -7.124  11.207  69.818  1.00  0.00    -0.008 C  
ENDBRANCH   6  27
ENDBRANCH   4   5
ENDBRANCH   3   4
ENDBRANCH   2   3
TORSDOF 8
ENDMDL
MODEL      275
REMARK 921   NORMALIZED FREE ENERGY PREDICTED BY IDOCK:   -3.52 KCAL/MOL
REMARK 922        TOTAL FREE ENERGY PREDICTED BY IDOCK:   -5.69 KCAL/MOL
REMARK 923 INTER-LIGAND FREE ENERGY PREDICTED BY IDOCK:   -6.05 KCAL/MOL
REMARK 924 INTRA-LIGAND FREE ENERGY PREDICTED BY IDOCK:    0.36 KCAL/MOL
REMARK 927      BINDING AFFINITY PREDICTED BY RF-SCORE:    0.00 PKD
ROOT
HETATM    1  C   UNL     1     -12.340  11.673  64.035  1.00  0.00    -0.195 C  
HETATM    2  C   UNL     1     -11.462  12.897  63.870  1.00  0.00    -0.504 C  
ENDROOT
BRANCH   2   3
HETATM    3  C   UNL     1     -11.533  13.839  65.074  1.00  0.00    -0.340 C  
BRANCH   3   4
HETATM    4  C   UNL     1     -10.310  14.757  65.065  1.00  0.00    -0.420 C  
BRANCH   4   5
HETATM    5  C   UNL     1     -10.421  15.950  65.989  1.00  0.00    -0.345 C  
HETATM    6  N   UNL     1      -9.286  16.368  66.681  1.00  0.00    -0.236 N  
HETATM    7  O   UNL     1     -11.503  16.527  66.134  1.00  0.00     0.462 OA 
BRANCH   6   8
HETATM    8  C   UNL     1      -7.954  15.718  66.503  1.00  0.00    -0.137 C  
BRANCH   8   9
HETATM    9  C   UNL     1      -7.725  14.491  67.369  1.00  0.00    -0.215 A  
HETATM   10  C   UNL     1      -6.438  14.161  67.793  1.00  0.00    -0.181 A  
HETATM   11  C   UNL     1      -6.165  12.885  68.309  1.00  0.00    -0.082 A  
HETATM   12  C   UNL     1      -7.163  11.915  68.511  1.00  0.00    -0.100 A  
HETATM   13  C   UNL     1      -8.749  13.608  67.723  1.00  0.00    -0.184 A  
HETATM   14  C   UNL     1      -8.480  12.358  68.310  1.00  0.00    -0.170 A  
BRANCH  12  15
HETATM   15  C   UNL     1      -6.806  10.509  68.902  1.00  0.00    -0.063 A  
HETATM   16  C   UNL     1      -6.085  10.344  70.121  1.00  0.00    -0.097 A  
HETATM   17  C   UNL     1      -5.564   9.122  70.547  1.00  0.00    -0.031 A  
HETATM   18  C   UNL     1      -5.785   7.986  69.790  1.00  0.00    -0.023 A  
HETATM   19  C   UNL     1      -6.527   8.089  68.616  1.00  0.00    -0.053 A  
HETATM   20  C   UNL     1      -7.042   9.327  68.146  1.00  0.00    -0.077 A  
BRANCH  20  21
HETATM   21  C   UNL     1      -7.758   9.235  66.875  1.00  0.00    -0.094 A  
HETATM   22  N   UNL     1      -9.102   9.320  66.771  1.00  0.00    -0.137 NA 
HETATM   23  N   UNL     1      -9.267   9.101  65.462  1.00  0.00    -0.228 NA 
HETATM   24  H   UNL     1      -9.799   9.501  67.493  1.00  0.00     0.000 HD 
HETATM   25  N   UNL     1      -8.145   8.918  64.754  1.00  0.00    -0.136 NA 
HETATM   26  N   UNL     1      -7.174   8.965  65.658  1.00  0.00    -0.084 NA 
ENDBRANCH  20  21
ENDBRANCH  12  15
ENDBRANCH   8   9
ENDBRANCH   6   8
BRANCH   6  27
HETATM   27  C   UNL     1      -9.313  17.662  67.461  1.00  0.00    -0.248 C  
HETATM   28  C   UNL     1     -10.178  18.872  66.985  1.00  0.00    -0.378 C  
HETATM   29  O   UNL     1     -10.715  19.637  67.785  1.00  0.00    -0.430 OA 
HETATM   30  C   UNL     1      -7.908  18.104  67.976  1.00  0.00    -0.266 C  
HETATM   31  O   UNL     1     -10.247  19.132  65.669  1.00  0.00    -0.485 OA 
HETATM   32  C   UNL     1      -6.818  18.187  66.913  1.00  0.00    -0.214 C  
HETATM   33  C   UNL     1      -7.922  19.365  68.842  1.00  0.00    -0.360 C  
ENDBRANCH   6  27
ENDBRANCH   4   5
ENDBRANCH   3   4
ENDBRANCH   2   3
TORSDOF 8
ENDMDL
MODEL      276
REMARK 921   NORMALIZED FREE ENERGY PREDICTED BY IDOCK:   -3.52 KCAL/MOL
REMARK 922        TOTAL FREE ENERGY PREDICTED BY IDOCK:   -5.69 KCAL/MOL
REMARK 923 INTER-LIGAND FREE ENERGY PREDICTED BY IDOCK:   -6.27 KCAL/MOL
REMARK 924 INTRA-LIGAND FREE ENERGY PREDICTED BY IDOCK:    0.58 KCAL/MOL
REMARK 927      BINDING AFFINITY PREDICTED BY RF-SCORE:    0.00 PKD
ROOT
HETATM    1  C   UNL     1      -5.131  10.610  66.201  1.00  0.00    -0.079 C  
HETATM    2  C   UNL     1      -5.344  10.908  67.671  1.00  0.00    -0.040 C  
ENDROOT
BRANCH   2   3
HETATM    3  C   UNL     1      -6.795  10.696  68.110  1.00  0.00    -0.068 C  
BRANCH   3   4
HETATM    4  C   UNL     1      -7.729  11.111  66.973  1.00  0.00    -0.139 C  
BRANCH   4   5
HETATM    5  C   UNL     1      -8.322  12.495  67.128  1.00  0.00    -0.179 C  
HETATM    6  N   UNL     1      -9.682  12.671  66.878  1.00  0.00    -0.228 N  
HETATM    7  O   UNL     1      -7.606  13.446  67.453  1.00  0.00    -0.162 OA 
BRANCH   6   8
HETATM    8  C   UNL     1     -10.584  11.538  66.519  1.00  0.00    -0.258 C  
BRANCH   8   9
HETATM    9  C   UNL     1     -10.632  10.415  67.542  1.00  0.00    -0.312 A  
HETATM   10  C   UNL     1     -11.273  10.607  68.766  1.00  0.00    -0.337 A  
HETATM   11  C   UNL     1     -11.055   9.718  69.830  1.00  0.00    -0.272 A  
HETATM   12  C   UNL     1     -10.268   8.559  69.704  1.00  0.00    -0.209 A  
HETATM   13  C   UNL     1      -9.994   9.186  67.353  1.00  0.00    -0.262 A  
HETATM   14  C   UNL     1      -9.841   8.261  68.401  1.00  0.00    -0.187 A  
BRANCH  12  15
HETATM   15  C   UNL     1      -9.921   7.728  70.908  1.00  0.00    -0.190 A  
HETATM   16  C   UNL     1     -10.067   8.350  72.182  1.00  0.00    -0.376 A  
HETATM   17  C   UNL     1      -9.656   7.760  73.378  1.00  0.00    -0.352 A  
HETATM   18  C   UNL     1      -9.118   6.486  73.358  1.00  0.00    -0.140 A  
HETATM   19  C   UNL     1      -9.001   5.819  72.142  1.00  0.00    -0.137 A  
HETATM   20  C   UNL     1      -9.384   6.411  70.908  1.00  0.00    -0.168 A  
BRANCH  20  21
HETATM   21  C   UNL     1      -9.146   5.568  69.739  1.00  0.00    -0.132 A  
HETATM   22  N   UNL     1      -7.987   4.912  69.517  1.00  0.00    -0.070 NA 
HETATM   23  N   UNL     1      -8.230   4.368  68.320  1.00  0.00    -0.089 NA 
HETATM   24  H   UNL     1      -7.155   4.848  70.103  1.00  0.00     0.000 HD 
HETATM   25  N   UNL     1      -9.441   4.611  67.803  1.00  0.00    -0.144 NA 
HETATM   26  N   UNL     1     -10.023   5.410  68.689  1.00  0.00    -0.158 NA 
ENDBRANCH  20  21
ENDBRANCH  12  15
ENDBRANCH   8   9
ENDBRANCH   6   8
BRANCH   6  27
HETATM   27  C   UNL     1     -10.342  13.990  67.204  1.00  0.00    -0.265 C  
HETATM   28  C   UNL     1     -11.837  14.056  67.650  1.00  0.00    -0.395 C  
HETATM   29  O   UNL     1     -12.234  14.891  68.461  1.00  0.00    -0.194 OA 
HETATM   30  C   UNL     1      -9.972  15.131  66.205  1.00  0.00    -0.307 C  
HETATM   31  O   UNL     1     -12.721  13.240  67.051  1.00  0.00    -0.023 OA 
HETATM   32  C   UNL     1     -10.200  14.812  64.732  1.00  0.00    -0.178 C  
HETATM   33  C   UNL     1     -10.557  16.498  66.565  1.00  0.00    -0.217 C  
ENDBRANCH   6  27
ENDBRANCH   4   5
ENDBRANCH   3   4
ENDBRANCH   2   3
TORSDOF 8
ENDMDL
MODEL      277
REMARK 921   NORMALIZED FREE ENERGY PREDICTED BY IDOCK:   -3.50 KCAL/MOL
REMARK 922        TOTAL FREE ENERGY PREDICTED BY IDOCK:   -5.67 KCAL/MOL
REMARK 923 INTER-LIGAND FREE ENERGY PREDICTED BY IDOCK:   -6.25 KCAL/MOL
REMARK 924 INTRA-LIGAND FREE ENERGY PREDICTED BY IDOCK:    0.58 KCAL/MOL
REMARK 927      BINDING AFFINITY PREDICTED BY RF-SCORE:    0.00 PKD
ROOT
HETATM    1  C   UNL     1      -7.323   7.934  63.610  1.00  0.00    -0.103 C  
HETATM    2  C   UNL     1      -7.762   6.656  64.295  1.00  0.00    -0.109 C  
ENDROOT
BRANCH   2   3
HETATM    3  C   UNL     1      -7.130   6.482  65.678  1.00  0.00    -0.061 C  
BRANCH   3   4
HETATM    4  C   UNL     1      -8.192   5.981  66.657  1.00  0.00    -0.106 C  
BRANCH   4   5
HETATM    5  C   UNL     1      -8.026   6.491  68.072  1.00  0.00    -0.109 C  
HETATM    6  N   UNL     1      -8.314   7.828  68.339  1.00  0.00    -0.124 N  
HETATM    7  O   UNL     1      -7.628   5.736  68.963  1.00  0.00    -0.085 OA 
BRANCH   6   8
HETATM    8  C   UNL     1      -8.833   8.760  67.294  1.00  0.00    -0.132 C  
BRANCH   8   9
HETATM    9  C   UNL     1      -9.759   9.847  67.815  1.00  0.00    -0.175 A  
HETATM   10  C   UNL     1      -9.231  11.022  68.351  1.00  0.00    -0.175 A  
HETATM   11  C   UNL     1     -10.037  11.878  69.116  1.00  0.00     0.148 A  
HETATM   12  C   UNL     1     -11.413  11.658  69.311  1.00  0.00    -0.364 A  
HETATM   13  C   UNL     1     -11.149   9.708  67.853  1.00  0.00    -0.102 A  
HETATM   14  C   UNL     1     -11.965  10.610  68.559  1.00  0.00     0.048 A  
BRANCH  12  15
HETATM   15  C   UNL     1     -12.201  12.501  70.274  1.00  0.00    -0.345 A  
HETATM   16  C   UNL     1     -12.047  13.914  70.167  1.00  0.00    -0.418 A  
HETATM   17  C   UNL     1     -12.601  14.819  71.073  1.00  0.00    -0.401 A  
HETATM   18  C   UNL     1     -13.384  14.350  72.112  1.00  0.00    -0.486 A  
HETATM   19  C   UNL     1     -13.603  12.979  72.228  1.00  0.00    -0.643 A  
HETATM   20  C   UNL     1     -13.025  12.037  71.336  1.00  0.00    -0.362 A  
BRANCH  20  21
HETATM   21  C   UNL     1     -13.341  10.644  71.648  1.00  0.00    -0.307 A  
HETATM   22  N   UNL     1     -12.962  10.033  72.791  1.00  0.00    -0.148 NA 
HETATM   23  N   UNL     1     -13.404   8.790  72.570  1.00  0.00    -0.388 NA 
HETATM   24  H   UNL     1     -12.474  10.415  73.600  1.00  0.00     0.000 HD 
HETATM   25  N   UNL     1     -14.041   8.594  71.408  1.00  0.00    -0.336 NA 
HETATM   26  N   UNL     1     -13.973   9.769  70.793  1.00  0.00     0.179 NA 
ENDBRANCH  20  21
ENDBRANCH  12  15
ENDBRANCH   8   9
ENDBRANCH   6   8
BRANCH   6  27
HETATM   27  C   UNL     1      -8.342   8.322  69.766  1.00  0.00    -0.123 C  
HETATM   28  C   UNL     1      -7.064   8.270  70.662  1.00  0.00    -0.042 C  
HETATM   29  O   UNL     1      -6.833   9.132  71.509  1.00  0.00    -0.210 OA 
HETATM   30  C   UNL     1      -9.628   7.899  70.543  1.00  0.00    -0.170 C  
HETATM   31  O   UNL     1      -6.257   7.200  70.566  1.00  0.00    -0.031 OA 
HETATM   32  C   UNL     1      -9.941   6.407  70.527  1.00  0.00    -0.214 C  
HETATM   33  C   UNL     1      -9.720   8.461  71.963  1.00  0.00    -0.353 C  
ENDBRANCH   6  27
ENDBRANCH   4   5
ENDBRANCH   3   4
ENDBRANCH   2   3
TORSDOF 8
ENDMDL
MODEL      278
REMARK 921   NORMALIZED FREE ENERGY PREDICTED BY IDOCK:   -3.48 KCAL/MOL
REMARK 922        TOTAL FREE ENERGY PREDICTED BY IDOCK:   -5.63 KCAL/MOL
REMARK 923 INTER-LIGAND FREE ENERGY PREDICTED BY IDOCK:   -5.60 KCAL/MOL
REMARK 924 INTRA-LIGAND FREE ENERGY PREDICTED BY IDOCK:   -0.03 KCAL/MOL
REMARK 927      BINDING AFFINITY PREDICTED BY RF-SCORE:    0.00 PKD
ROOT
HETATM    1  C   UNL     1      -5.257  16.205  70.354  1.00  0.00    -0.178 C  
HETATM    2  C   UNL     1      -5.995  15.981  69.049  1.00  0.00    -0.125 C  
ENDROOT
BRANCH   2   3
HETATM    3  C   UNL     1      -5.548  14.705  68.332  1.00  0.00    -0.107 C  
BRANCH   3   4
HETATM    4  C   UNL     1      -6.458  13.549  68.750  1.00  0.00    -0.098 C  
BRANCH   4   5
HETATM    5  C   UNL     1      -7.937  13.856  68.654  1.00  0.00    -0.109 C  
HETATM    6  N   UNL     1      -8.683  13.249  67.645  1.00  0.00    -0.182 N  
HETATM    7  O   UNL     1      -8.462  14.642  69.449  1.00  0.00    -0.044 OA 
BRANCH   6   8
HETATM    8  C   UNL     1      -8.089  12.267  66.692  1.00  0.00     0.064 C  
BRANCH   8   9
HETATM    9  C   UNL     1      -8.032  10.838  67.205  1.00  0.00    -0.124 A  
HETATM   10  C   UNL     1      -8.486   9.786  66.408  1.00  0.00    -0.128 A  
HETATM   11  C   UNL     1      -8.739   8.526  66.971  1.00  0.00    -0.132 A  
HETATM   12  C   UNL     1      -8.474   8.226  68.319  1.00  0.00    -0.136 A  
HETATM   13  C   UNL     1      -7.603  10.509  68.494  1.00  0.00    -0.097 A  
HETATM   14  C   UNL     1      -7.790   9.223  69.032  1.00  0.00    -0.082 A  
BRANCH  12  15
HETATM   15  C   UNL     1      -8.918   6.923  68.922  1.00  0.00    -0.131 A  
HETATM   16  C   UNL     1      -8.390   5.733  68.341  1.00  0.00    -0.107 A  
HETATM   17  C   UNL     1      -8.811   4.452  68.698  1.00  0.00    -0.135 A  
HETATM   18  C   UNL     1      -9.754   4.298  69.697  1.00  0.00    -0.284 A  
HETATM   19  C   UNL     1     -10.261   5.430  70.328  1.00  0.00    -0.338 A  
HETATM   20  C   UNL     1      -9.871   6.746  69.962  1.00  0.00    -0.179 A  
BRANCH  20  21
HETATM   21  C   UNL     1     -10.546   7.803  70.714  1.00  0.00    -0.218 A  
HETATM   22  N   UNL     1     -10.133   8.234  71.925  1.00  0.00    -0.221 NA 
HETATM   23  N   UNL     1     -11.094   9.118  72.218  1.00  0.00    -0.091 NA 
HETATM   24  H   UNL     1      -9.314   7.961  72.467  1.00  0.00     0.000 HD 
HETATM   25  N   UNL     1     -12.039   9.284  71.284  1.00  0.00    -0.319 NA 
HETATM   26  N   UNL     1     -11.717   8.418  70.331  1.00  0.00    -0.076 NA 
ENDBRANCH  20  21
ENDBRANCH  12  15
ENDBRANCH   8   9
ENDBRANCH   6   8
BRANCH   6  27
HETATM   27  C   UNL     1     -10.187  13.384  67.636  1.00  0.00    -0.228 C  
HETATM   28  C   UNL     1     -11.088  12.412  68.462  1.00  0.00    -0.258 C  
HETATM   29  O   UNL     1     -12.140  12.787  68.979  1.00  0.00    -0.262 OA 
HETATM   30  C   UNL     1     -10.774  13.677  66.220  1.00  0.00    -0.285 C  
HETATM   31  O   UNL     1     -10.747  11.114  68.518  1.00  0.00    -0.178 OA 
HETATM   32  C   UNL     1     -10.356  12.704  65.124  1.00  0.00    -0.312 C  
HETATM   33  C   UNL     1     -12.287  13.905  66.200  1.00  0.00    -0.504 C  
ENDBRANCH   6  27
ENDBRANCH   4   5
ENDBRANCH   3   4
ENDBRANCH   2   3
TORSDOF 8
ENDMDL
MODEL      279
REMARK 921   NORMALIZED FREE ENERGY PREDICTED BY IDOCK:   -3.46 KCAL/MOL
REMARK 922        TOTAL FREE ENERGY PREDICTED BY IDOCK:   -5.61 KCAL/MOL
REMARK 923 INTER-LIGAND FREE ENERGY PREDICTED BY IDOCK:   -5.14 KCAL/MOL
REMARK 924 INTRA-LIGAND FREE ENERGY PREDICTED BY IDOCK:   -0.47 KCAL/MOL
REMARK 927      BINDING AFFINITY PREDICTED BY RF-SCORE:    0.00 PKD
ROOT
HETATM    1  C   UNL     1     -12.464  14.485  71.886  1.00  0.00    -0.406 C  
HETATM    2  C   UNL     1     -13.453  13.390  72.232  1.00  0.00    -0.683 C  
ENDROOT
BRANCH   2   3
HETATM    3  C   UNL     1     -13.298  12.156  71.340  1.00  0.00    -0.008 C  
BRANCH   3   4
HETATM    4  C   UNL     1     -12.207  11.253  71.917  1.00  0.00     0.529 C  
BRANCH   4   5
HETATM    5  C   UNL     1     -12.417   9.777  71.655  1.00  0.00    -0.410 C  
HETATM    6  N   UNL     1     -11.385   9.050  71.063  1.00  0.00    -0.278 N  
HETATM    7  O   UNL     1     -13.489   9.239  71.947  1.00  0.00    -0.376 OA 
BRANCH   6   8
HETATM    8  C   UNL     1     -10.064   9.659  70.731  1.00  0.00    -0.223 C  
BRANCH   8   9
HETATM    9  C   UNL     1     -10.046  10.479  69.452  1.00  0.00    -0.233 A  
HETATM   10  C   UNL     1      -9.301  11.657  69.382  1.00  0.00     0.680 A  
HETATM   11  C   UNL     1      -9.523  12.578  68.347  1.00  0.00    -0.167 A  
HETATM   12  C   UNL     1     -10.422  12.336  67.292  1.00  0.00    -0.236 A  
HETATM   13  C   UNL     1     -10.809  10.151  68.327  1.00  0.00    -0.297 A  
HETATM   14  C   UNL     1     -10.970  11.046  67.253  1.00  0.00    -0.356 A  
BRANCH  12  15
HETATM   15  C   UNL     1     -10.756  13.416  66.301  1.00  0.00    -0.290 A  
HETATM   16  C   UNL     1     -11.314  14.619  66.824  1.00  0.00    -0.360 A  
HETATM   17  C   UNL     1     -11.801  15.652  66.023  1.00  0.00     0.601 A  
HETATM   18  C   UNL     1     -11.708  15.550  64.648  1.00  0.00    -0.226 A  
HETATM   19  C   UNL     1     -11.125  14.414  64.092  1.00  0.00     0.125 A  
HETATM   20  C   UNL     1     -10.649  13.336  64.885  1.00  0.00    -0.381 A  
BRANCH  20  21
HETATM   21  C   UNL     1     -10.109  12.218  64.114  1.00  0.00    -0.302 A  
HETATM   22  N   UNL     1      -8.788  12.014  63.925  1.00  0.00     0.156 NA 
HETATM   23  N   UNL     1      -8.810  10.950  63.114  1.00  0.00    -0.200 NA 
HETATM   24  H   UNL     1      -7.991  12.530  64.297  1.00  0.00     0.000 HD 
HETATM   25  N   UNL     1     -10.024  10.470  62.815  1.00  0.00    -0.145 NA 
HETATM   26  N   UNL     1     -10.865  11.299  63.422  1.00  0.00    -0.320 NA 
ENDBRANCH  20  21
ENDBRANCH  12  15
ENDBRANCH   8   9
ENDBRANCH   6   8
BRANCH   6  27
HETATM   27  C   UNL     1     -11.487   7.547  70.960  1.00  0.00    -0.278 C  
HETATM   28  C   UNL     1     -11.774   6.669  72.220  1.00  0.00    -0.269 C  
HETATM   29  O   UNL     1     -12.438   5.637  72.152  1.00  0.00     0.127 OA 
HETATM   30  C   UNL     1     -10.403   6.914  70.032  1.00  0.00    -0.219 C  
HETATM   31  O   UNL     1     -11.190   7.008  73.382  1.00  0.00    -0.191 OA 
HETATM   32  C   UNL     1      -8.963   7.294  70.357  1.00  0.00    -0.151 C  
HETATM   33  C   UNL     1     -10.540   5.403  69.842  1.00  0.00    -0.351 C  
ENDBRANCH   6  27
ENDBRANCH   4   5
ENDBRANCH   3   4
ENDBRANCH   2   3
TORSDOF 8
ENDMDL
MODEL      280
REMARK 921   NORMALIZED FREE ENERGY PREDICTED BY IDOCK:   -3.46 KCAL/MOL
REMARK 922        TOTAL FREE ENERGY PREDICTED BY IDOCK:   -5.60 KCAL/MOL
REMARK 923 INTER-LIGAND FREE ENERGY PREDICTED BY IDOCK:   -6.06 KCAL/MOL
REMARK 924 INTRA-LIGAND FREE ENERGY PREDICTED BY IDOCK:    0.46 KCAL/MOL
REMARK 927      BINDING AFFINITY PREDICTED BY RF-SCORE:    0.00 PKD
ROOT
HETATM    1  C   UNL     1      -8.738   3.299  66.740  1.00  0.00    -0.132 C  
HETATM    2  C   UNL     1      -7.867   3.061  67.956  1.00  0.00    -0.062 C  
ENDROOT
BRANCH   2   3
HETATM    3  C   UNL     1      -8.437   3.704  69.223  1.00  0.00    -0.096 C  
BRANCH   3   4
HETATM    4  C   UNL     1      -8.732   5.179  68.948  1.00  0.00    -0.096 C  
BRANCH   4   5
HETATM    5  C   UNL     1      -7.603   6.118  69.315  1.00  0.00    -0.098 C  
HETATM    6  N   UNL     1      -7.915   7.337  69.915  1.00  0.00    -0.119 N  
HETATM    7  O   UNL     1      -6.433   5.810  69.069  1.00  0.00    -0.044 OA 
BRANCH   6   8
HETATM    8  C   UNL     1      -9.314   7.725  70.259  1.00  0.00    -0.156 C  
BRANCH   8   9
HETATM    9  C   UNL     1      -9.997   8.617  69.236  1.00  0.00    -0.195 A  
HETATM   10  C   UNL     1     -10.205   8.162  67.934  1.00  0.00    -0.274 A  
HETATM   11  C   UNL     1     -10.531   9.063  66.909  1.00  0.00    -0.293 A  
HETATM   12  C   UNL     1     -10.751  10.433  67.141  1.00  0.00    -0.316 A  
HETATM   13  C   UNL     1     -10.380   9.933  69.510  1.00  0.00    -0.248 A  
HETATM   14  C   UNL     1     -10.780  10.817  68.491  1.00  0.00    -0.245 A  
BRANCH  12  15
HETATM   15  C   UNL     1     -10.928  11.391  65.997  1.00  0.00    -0.286 A  
HETATM   16  C   UNL     1     -11.952  12.374  66.133  1.00  0.00    -0.397 A  
HETATM   17  C   UNL     1     -12.328  13.240  65.106  1.00  0.00    -0.516 A  
HETATM   18  C   UNL     1     -11.657  13.197  63.899  1.00  0.00    -0.488 A  
HETATM   19  C   UNL     1     -10.615  12.286  63.736  1.00  0.00    -0.488 A  
HETATM   20  C   UNL     1     -10.234  11.374  64.755  1.00  0.00    -0.338 A  
BRANCH  20  21
HETATM   21  C   UNL     1      -9.147  10.473  64.378  1.00  0.00    -0.225 A  
HETATM   22  N   UNL     1      -7.896  10.566  64.878  1.00  0.00    -0.306 NA 
HETATM   23  N   UNL     1      -7.276   9.606  64.184  1.00  0.00    -0.117 NA 
HETATM   24  H   UNL     1      -7.526  11.196  65.589  1.00  0.00     0.000 HD 
HETATM   25  N   UNL     1      -8.041   8.918  63.327  1.00  0.00    -0.165 NA 
HETATM   26  N   UNL     1      -9.235   9.491  63.417  1.00  0.00    -0.117 NA 
ENDBRANCH  20  21
ENDBRANCH  12  15
ENDBRANCH   8   9
ENDBRANCH   6   8
BRANCH   6  27
HETATM   27  C   UNL     1      -6.812   8.210  70.462  1.00  0.00    -0.037 C  
HETATM   28  C   UNL     1      -5.729   8.827  69.521  1.00  0.00    -0.034 C  
HETATM   29  O   UNL     1      -5.238   9.934  69.738  1.00  0.00    -0.037 OA 
HETATM   30  C   UNL     1      -6.202   7.675  71.795  1.00  0.00    -0.039 C  
HETATM   31  O   UNL     1      -5.258   8.079  68.510  1.00  0.00    -0.029 OA 
HETATM   32  C   UNL     1      -5.720   6.229  71.760  1.00  0.00    -0.032 C  
HETATM   33  C   UNL     1      -5.143   8.588  72.416  1.00  0.00    -0.039 C  
ENDBRANCH   6  27
ENDBRANCH   4   5
ENDBRANCH   3   4
ENDBRANCH   2   3
TORSDOF 8
ENDMDL
MODEL      281
REMARK 921   NORMALIZED FREE ENERGY PREDICTED BY IDOCK:   -3.45 KCAL/MOL
REMARK 922        TOTAL FREE ENERGY PREDICTED BY IDOCK:   -5.58 KCAL/MOL
REMARK 923 INTER-LIGAND FREE ENERGY PREDICTED BY IDOCK:   -6.41 KCAL/MOL
REMARK 924 INTRA-LIGAND FREE ENERGY PREDICTED BY IDOCK:    0.83 KCAL/MOL
REMARK 927      BINDING AFFINITY PREDICTED BY RF-SCORE:    0.00 PKD
ROOT
HETATM    1  C   UNL     1     -10.167  17.088  65.886  1.00  0.00    -0.311 C  
HETATM    2  C   UNL     1     -10.661  15.782  66.475  1.00  0.00    -0.306 C  
ENDROOT
BRANCH   2   3
HETATM    3  C   UNL     1     -11.256  14.849  65.419  1.00  0.00    -0.359 C  
BRANCH   3   4
HETATM    4  C   UNL     1     -12.185  13.845  66.102  1.00  0.00    -0.498 C  
BRANCH   4   5
HETATM    5  C   UNL     1     -11.549  13.087  67.247  1.00  0.00    -0.356 C  
HETATM    6  N   UNL     1     -10.827  11.929  66.963  1.00  0.00    -0.246 N  
HETATM    7  O   UNL     1     -11.683  13.484  68.408  1.00  0.00    -0.315 OA 
BRANCH   6   8
HETATM    8  C   UNL     1     -10.612  11.440  65.570  1.00  0.00    -0.271 C  
BRANCH   8   9
HETATM    9  C   UNL     1     -10.019  10.045  65.469  1.00  0.00    -0.367 A  
HETATM   10  C   UNL     1     -10.445   9.036  66.333  1.00  0.00    -0.110 A  
HETATM   11  C   UNL     1      -9.698   7.856  66.472  1.00  0.00    -0.279 A  
HETATM   12  C   UNL     1      -8.552   7.586  65.702  1.00  0.00    -0.131 A  
HETATM   13  C   UNL     1      -8.991   9.718  64.581  1.00  0.00    -0.270 A  
HETATM   14  C   UNL     1      -8.290   8.501  64.672  1.00  0.00    -0.156 A  
BRANCH  12  15
HETATM   15  C   UNL     1      -7.686   6.394  66.001  1.00  0.00    -0.093 A  
HETATM   16  C   UNL     1      -6.622   6.589  66.930  1.00  0.00    -0.051 A  
HETATM   17  C   UNL     1      -5.654   5.622  67.203  1.00  0.00    -0.016 A  
HETATM   18  C   UNL     1      -5.734   4.385  66.590  1.00  0.00    -0.018 A  
HETATM   19  C   UNL     1      -6.785   4.132  65.713  1.00  0.00    -0.048 A  
HETATM   20  C   UNL     1      -7.765   5.110  65.395  1.00  0.00    -0.087 A  
BRANCH  20  21
HETATM   21  C   UNL     1      -8.762   4.665  64.423  1.00  0.00    -0.148 A  
HETATM   22  N   UNL     1      -8.732   5.006  63.117  1.00  0.00    -0.234 NA 
HETATM   23  N   UNL     1      -9.863   4.440  62.683  1.00  0.00    -0.098 NA 
HETATM   24  H   UNL     1      -8.037   5.546  62.603  1.00  0.00     0.000 HD 
HETATM   25  N   UNL     1     -10.567   3.763  63.600  1.00  0.00    -0.258 NA 
HETATM   26  N   UNL     1      -9.888   3.933  64.727  1.00  0.00    -0.188 NA 
ENDBRANCH  20  21
ENDBRANCH  12  15
ENDBRANCH   8   9
ENDBRANCH   6   8
BRANCH   6  27
HETATM   27  C   UNL     1     -10.025  11.256  68.052  1.00  0.00    -0.179 C  
HETATM   28  C   UNL     1     -10.692  10.825  69.396  1.00  0.00    -0.233 C  
HETATM   29  O   UNL     1     -10.331   9.817  70.003  1.00  0.00    -0.227 OA 
HETATM   30  C   UNL     1      -8.616  11.893  68.267  1.00  0.00    -0.162 C  
HETATM   31  O   UNL     1     -11.611  11.636  69.944  1.00  0.00    -0.296 OA 
HETATM   32  C   UNL     1      -8.609  13.399  68.503  1.00  0.00    -0.074 C  
HETATM   33  C   UNL     1      -7.751  11.174  69.303  1.00  0.00    -0.027 C  
ENDBRANCH   6  27
ENDBRANCH   4   5
ENDBRANCH   3   4
ENDBRANCH   2   3
TORSDOF 8
ENDMDL
MODEL      282
REMARK 921   NORMALIZED FREE ENERGY PREDICTED BY IDOCK:   -3.43 KCAL/MOL
REMARK 922        TOTAL FREE ENERGY PREDICTED BY IDOCK:   -5.56 KCAL/MOL
REMARK 923 INTER-LIGAND FREE ENERGY PREDICTED BY IDOCK:   -6.56 KCAL/MOL
REMARK 924 INTRA-LIGAND FREE ENERGY PREDICTED BY IDOCK:    1.00 KCAL/MOL
REMARK 927      BINDING AFFINITY PREDICTED BY RF-SCORE:    0.00 PKD
ROOT
HETATM    1  C   UNL     1      -9.802   5.366  73.603  1.00  0.00    -0.170 C  
HETATM    2  C   UNL     1     -10.811   6.430  73.219  1.00  0.00    -0.270 C  
ENDROOT
BRANCH   2   3
HETATM    3  C   UNL     1     -11.862   5.915  72.233  1.00  0.00    -0.266 C  
BRANCH   3   4
HETATM    4  C   UNL     1     -11.396   6.205  70.806  1.00  0.00    -0.364 C  
BRANCH   4   5
HETATM    5  C   UNL     1      -9.934   5.905  70.556  1.00  0.00    -0.189 C  
HETATM    6  N   UNL     1      -9.012   6.947  70.649  1.00  0.00    -0.151 N  
HETATM    7  O   UNL     1      -9.575   4.762  70.259  1.00  0.00    -0.163 OA 
BRANCH   6   8
HETATM    8  C   UNL     1      -9.406   8.332  71.040  1.00  0.00    -0.162 C  
BRANCH   8   9
HETATM    9  C   UNL     1      -9.777   9.239  69.879  1.00  0.00    -0.220 A  
HETATM   10  C   UNL     1      -8.801   9.660  68.976  1.00  0.00    -0.147 A  
HETATM   11  C   UNL     1      -9.051  10.733  68.107  1.00  0.00    -0.151 A  
HETATM   12  C   UNL     1     -10.299  11.376  68.031  1.00  0.00    -0.204 A  
HETATM   13  C   UNL     1     -11.065   9.749  69.694  1.00  0.00    -0.251 A  
HETATM   14  C   UNL     1     -11.331  10.775  68.768  1.00  0.00    -0.352 A  
BRANCH  12  15
HETATM   15  C   UNL     1     -10.475  12.626  67.216  1.00  0.00    -0.237 A  
HETATM   16  C   UNL     1     -10.779  13.822  67.929  1.00  0.00    -0.256 A  
HETATM   17  C   UNL     1     -11.105  15.028  67.307  1.00  0.00    -0.334 A  
HETATM   18  C   UNL     1     -11.094  15.106  65.926  1.00  0.00    -0.319 A  
HETATM   19  C   UNL     1     -10.754  13.976  65.187  1.00  0.00    -0.393 A  
HETATM   20  C   UNL     1     -10.448  12.730  65.797  1.00  0.00    -0.294 A  
BRANCH  20  21
HETATM   21  C   UNL     1     -10.157  11.654  64.851  1.00  0.00    -0.260 A  
HETATM   22  N   UNL     1      -9.411  10.572  65.162  1.00  0.00    -0.212 NA 
HETATM   23  N   UNL     1      -9.369   9.948  63.979  1.00  0.00    -0.264 NA 
HETATM   24  H   UNL     1      -8.995  10.305  66.053  1.00  0.00     0.000 HD 
HETATM   25  N   UNL     1     -10.043  10.537  62.984  1.00  0.00    -0.124 NA 
HETATM   26  N   UNL     1     -10.522  11.652  63.524  1.00  0.00    -0.409 NA 
ENDBRANCH  20  21
ENDBRANCH  12  15
ENDBRANCH   8   9
ENDBRANCH   6   8
BRANCH   6  27
HETATM   27  C   UNL     1      -7.533   6.649  70.592  1.00  0.00    -0.083 C  
HETATM   28  C   UNL     1      -6.496   7.577  71.300  1.00  0.00    -0.038 C  
HETATM   29  O   UNL     1      -5.466   7.131  71.804  1.00  0.00    -0.035 OA 
HETATM   30  C   UNL     1      -7.048   6.187  69.182  1.00  0.00    -0.070 C  
HETATM   31  O   UNL     1      -6.695   8.906  71.264  1.00  0.00    -0.071 OA 
HETATM   32  C   UNL     1      -7.413   7.113  68.028  1.00  0.00    -0.099 C  
HETATM   33  C   UNL     1      -5.570   5.795  69.121  1.00  0.00    -0.008 C  
ENDBRANCH   6  27
ENDBRANCH   4   5
ENDBRANCH   3   4
ENDBRANCH   2   3
TORSDOF 8
ENDMDL
MODEL      283
REMARK 921   NORMALIZED FREE ENERGY PREDICTED BY IDOCK:   -3.41 KCAL/MOL
REMARK 922        TOTAL FREE ENERGY PREDICTED BY IDOCK:   -5.53 KCAL/MOL
REMARK 923 INTER-LIGAND FREE ENERGY PREDICTED BY IDOCK:   -6.25 KCAL/MOL
REMARK 924 INTRA-LIGAND FREE ENERGY PREDICTED BY IDOCK:    0.72 KCAL/MOL
REMARK 927      BINDING AFFINITY PREDICTED BY RF-SCORE:    0.00 PKD
ROOT
HETATM    1  C   UNL     1      -6.923  17.307  68.076  1.00  0.00    -0.179 C  
HETATM    2  C   UNL     1      -7.582  17.824  66.814  1.00  0.00    -0.248 C  
ENDROOT
BRANCH   2   3
HETATM    3  C   UNL     1      -9.024  17.332  66.660  1.00  0.00    -0.279 C  
BRANCH   3   4
HETATM    4  C   UNL     1      -9.012  15.905  66.113  1.00  0.00    -0.376 C  
BRANCH   4   5
HETATM    5  C   UNL     1     -10.098  15.013  66.675  1.00  0.00    -0.261 C  
HETATM    6  N   UNL     1      -9.729  13.926  67.466  1.00  0.00    -0.228 N  
HETATM    7  O   UNL     1     -11.284  15.241  66.420  1.00  0.00    -0.315 OA 
BRANCH   6   8
HETATM    8  C   UNL     1      -8.308  13.643  67.824  1.00  0.00    -0.181 C  
BRANCH   8   9
HETATM    9  C   UNL     1      -7.937  12.170  67.835  1.00  0.00    -0.150 A  
HETATM   10  C   UNL     1      -8.239  11.361  66.739  1.00  0.00    -0.160 A  
HETATM   11  C   UNL     1      -8.200   9.963  66.855  1.00  0.00    -0.120 A  
HETATM   12  C   UNL     1      -7.778   9.307  68.026  1.00  0.00    -0.088 A  
HETATM   13  C   UNL     1      -7.354  11.540  68.938  1.00  0.00    -0.116 A  
HETATM   14  C   UNL     1      -7.246  10.140  69.022  1.00  0.00    -0.076 A  
BRANCH  12  15
HETATM   15  C   UNL     1      -7.914   7.817  68.168  1.00  0.00    -0.122 A  
HETATM   16  C   UNL     1      -8.360   7.100  67.019  1.00  0.00    -0.118 A  
HETATM   17  C   UNL     1      -8.666   5.739  67.033  1.00  0.00    -0.109 A  
HETATM   18  C   UNL     1      -8.491   5.014  68.197  1.00  0.00    -0.099 A  
HETATM   19  C   UNL     1      -8.010   5.661  69.332  1.00  0.00    -0.099 A  
HETATM   20  C   UNL     1      -7.720   7.052  69.351  1.00  0.00    -0.108 A  
BRANCH  20  21
HETATM   21  C   UNL     1      -7.264   7.553  70.646  1.00  0.00    -0.067 A  
HETATM   22  N   UNL     1      -8.096   7.820  71.676  1.00  0.00    -0.100 NA 
HETATM   23  N   UNL     1      -7.236   8.314  72.573  1.00  0.00    -0.104 NA 
HETATM   24  H   UNL     1      -9.104   7.683  71.748  1.00  0.00     0.000 HD 
HETATM   25  N   UNL     1      -5.952   8.347  72.194  1.00  0.00    -0.051 NA 
HETATM   26  N   UNL     1      -5.965   7.895  70.946  1.00  0.00    -0.034 NA 
ENDBRANCH  20  21
ENDBRANCH  12  15
ENDBRANCH   8   9
ENDBRANCH   6   8
BRANCH   6  27
HETATM   27  C   UNL     1     -10.786  13.132  68.194  1.00  0.00    -0.251 C  
HETATM   28  C   UNL     1     -11.845  12.291  67.412  1.00  0.00    -0.257 C  
HETATM   29  O   UNL     1     -12.282  11.229  67.853  1.00  0.00    -0.570 OA 
HETATM   30  C   UNL     1     -11.412  13.895  69.402  1.00  0.00    -0.334 C  
HETATM   31  O   UNL     1     -12.357  12.800  66.279  1.00  0.00    -0.521 OA 
HETATM   32  C   UNL     1     -11.962  15.282  69.087  1.00  0.00    -0.308 C  
HETATM   33  C   UNL     1     -12.423  13.078  70.209  1.00  0.00    -0.217 C  
ENDBRANCH   6  27
ENDBRANCH   4   5
ENDBRANCH   3   4
ENDBRANCH   2   3
TORSDOF 8
ENDMDL
MODEL      284
REMARK 921   NORMALIZED FREE ENERGY PREDICTED BY IDOCK:   -3.39 KCAL/MOL
REMARK 922        TOTAL FREE ENERGY PREDICTED BY IDOCK:   -5.50 KCAL/MOL
REMARK 923 INTER-LIGAND FREE ENERGY PREDICTED BY IDOCK:   -6.27 KCAL/MOL
REMARK 924 INTRA-LIGAND FREE ENERGY PREDICTED BY IDOCK:    0.77 KCAL/MOL
REMARK 927      BINDING AFFINITY PREDICTED BY RF-SCORE:    0.00 PKD
ROOT
HETATM    1  C   UNL     1      -5.390  18.867  65.664  1.00  0.00    -0.189 C  
HETATM    2  C   UNL     1      -6.727  18.250  66.021  1.00  0.00    -0.301 C  
ENDROOT
BRANCH   2   3
HETATM    3  C   UNL     1      -6.587  16.849  66.622  1.00  0.00    -0.252 C  
BRANCH   3   4
HETATM    4  C   UNL     1      -7.312  16.805  67.967  1.00  0.00    -0.167 C  
BRANCH   4   5
HETATM    5  C   UNL     1      -8.711  16.232  67.902  1.00  0.00    -0.175 C  
HETATM    6  N   UNL     1      -8.899  14.888  68.218  1.00  0.00    -0.166 N  
HETATM    7  O   UNL     1      -9.660  16.943  67.558  1.00  0.00    -0.240 OA 
BRANCH   6   8
HETATM    8  C   UNL     1      -7.782  14.009  68.673  1.00  0.00    -0.135 C  
BRANCH   8   9
HETATM    9  C   UNL     1      -7.657  12.697  67.916  1.00  0.00    -0.132 A  
HETATM   10  C   UNL     1      -6.436  12.325  67.353  1.00  0.00    -0.157 A  
HETATM   11  C   UNL     1      -6.378  11.301  66.395  1.00  0.00    -0.091 A  
HETATM   12  C   UNL     1      -7.503  10.545  66.019  1.00  0.00    -0.137 A  
HETATM   13  C   UNL     1      -8.741  11.847  67.683  1.00  0.00    -0.162 A  
HETATM   14  C   UNL     1      -8.661  10.773  66.778  1.00  0.00    -0.136 A  
BRANCH  12  15
HETATM   15  C   UNL     1      -7.434   9.578  64.871  1.00  0.00    -0.111 A  
HETATM   16  C   UNL     1      -6.893  10.070  63.647  1.00  0.00    -0.130 A  
HETATM   17  C   UNL     1      -6.891   9.339  62.458  1.00  0.00    -0.091 A  
HETATM   18  C   UNL     1      -7.389   8.050  62.450  1.00  0.00    -0.098 A  
HETATM   19  C   UNL     1      -7.882   7.508  63.635  1.00  0.00    -0.112 A  
HETATM   20  C   UNL     1      -7.923   8.242  64.850  1.00  0.00    -0.144 A  
BRANCH  20  21
HETATM   21  C   UNL     1      -8.513   7.514  65.971  1.00  0.00    -0.148 A  
HETATM   22  N   UNL     1      -9.838   7.288  66.098  1.00  0.00    -0.432 NA 
HETATM   23  N   UNL     1      -9.877   6.678  67.288  1.00  0.00    -0.137 NA 
HETATM   24  H   UNL     1     -10.600   7.519  65.461  1.00  0.00     0.000 HD 
HETATM   25  N   UNL     1      -8.694   6.488  67.885  1.00  0.00    -0.117 NA 
HETATM   26  N   UNL     1      -7.816   7.054  67.066  1.00  0.00    -0.107 NA 
ENDBRANCH  20  21
ENDBRANCH  12  15
ENDBRANCH   8   9
ENDBRANCH   6   8
BRANCH   6  27
HETATM   27  C   UNL     1     -10.298  14.333  68.347  1.00  0.00    -0.247 C  
HETATM   28  C   UNL     1     -11.280  14.333  67.133  1.00  0.00    -0.322 C  
HETATM   29  O   UNL     1     -12.102  13.434  66.966  1.00  0.00    -0.381 OA 
HETATM   30  C   UNL     1     -11.003  14.734  69.680  1.00  0.00    -0.285 C  
HETATM   31  O   UNL     1     -11.286  15.399  66.314  1.00  0.00    -0.232 OA 
HETATM   32  C   UNL     1     -11.032  16.228  69.981  1.00  0.00    -0.356 C  
HETATM   33  C   UNL     1     -12.388  14.112  69.872  1.00  0.00    -0.382 C  
ENDBRANCH   6  27
ENDBRANCH   4   5
ENDBRANCH   3   4
ENDBRANCH   2   3
TORSDOF 8
ENDMDL
MODEL      285
REMARK 921   NORMALIZED FREE ENERGY PREDICTED BY IDOCK:   -3.38 KCAL/MOL
REMARK 922        TOTAL FREE ENERGY PREDICTED BY IDOCK:   -5.49 KCAL/MOL
REMARK 923 INTER-LIGAND FREE ENERGY PREDICTED BY IDOCK:   -6.90 KCAL/MOL
REMARK 924 INTRA-LIGAND FREE ENERGY PREDICTED BY IDOCK:    1.41 KCAL/MOL
REMARK 927      BINDING AFFINITY PREDICTED BY RF-SCORE:    0.00 PKD
ROOT
HETATM    1  C   UNL     1      -9.757   4.772  68.406  1.00  0.00    -0.209 C  
HETATM    2  C   UNL     1      -9.623   5.633  69.646  1.00  0.00    -0.197 C  
ENDROOT
BRANCH   2   3
HETATM    3  C   UNL     1      -8.228   6.244  69.789  1.00  0.00    -0.125 C  
BRANCH   3   4
HETATM    4  C   UNL     1      -8.260   7.692  69.297  1.00  0.00    -0.133 C  
BRANCH   4   5
HETATM    5  C   UNL     1      -7.295   7.988  68.170  1.00  0.00    -0.096 C  
HETATM    6  N   UNL     1      -7.787   8.056  66.868  1.00  0.00    -0.102 N  
HETATM    7  O   UNL     1      -6.094   8.150  68.405  1.00  0.00    -0.043 OA 
BRANCH   6   8
HETATM    8  C   UNL     1      -9.238   7.902  66.551  1.00  0.00    -0.191 C  
BRANCH   8   9
HETATM    9  C   UNL     1     -10.139   8.956  67.174  1.00  0.00    -0.316 A  
HETATM   10  C   UNL     1     -10.702   9.956  66.381  1.00  0.00    -0.034 A  
HETATM   11  C   UNL     1     -11.260  11.101  66.971  1.00  0.00    -0.291 A  
HETATM   12  C   UNL     1     -11.365  11.266  68.364  1.00  0.00    -0.348 A  
HETATM   13  C   UNL     1     -10.391   9.026  68.547  1.00  0.00    -0.233 A  
HETATM   14  C   UNL     1     -11.019  10.142  69.130  1.00  0.00    -0.270 A  
BRANCH  12  15
HETATM   15  C   UNL     1     -11.809  12.574  68.955  1.00  0.00    -0.346 A  
HETATM   16  C   UNL     1     -12.039  12.599  70.362  1.00  0.00    -0.381 A  
HETATM   17  C   UNL     1     -12.584  13.695  71.032  1.00  0.00    -0.441 A  
HETATM   18  C   UNL     1     -12.881  14.846  70.327  1.00  0.00    -0.264 A  
HETATM   19  C   UNL     1     -12.627  14.886  68.958  1.00  0.00     0.207 A  
HETATM   20  C   UNL     1     -12.101  13.774  68.248  1.00  0.00    -0.314 A  
BRANCH  20  21
HETATM   21  C   UNL     1     -11.943  13.998  66.813  1.00  0.00    -0.444 A  
HETATM   22  N   UNL     1     -10.790  14.415  66.247  1.00  0.00    -0.308 NA 
HETATM   23  N   UNL     1     -11.168  14.546  64.971  1.00  0.00    -0.362 NA 
HETATM   24  H   UNL     1      -9.880  14.584  66.676  1.00  0.00     0.000 HD 
HETATM   25  N   UNL     1     -12.439  14.221  64.702  1.00  0.00    -0.631 NA 
HETATM   26  N   UNL     1     -12.955  13.904  65.883  1.00  0.00    -0.399 NA 
ENDBRANCH  20  21
ENDBRANCH  12  15
ENDBRANCH   8   9
ENDBRANCH   6   8
BRANCH   6  27
HETATM   27  C   UNL     1      -6.893   8.533  65.749  1.00  0.00    -0.067 C  
HETATM   28  C   UNL     1      -7.134   9.911  65.055  1.00  0.00    -0.131 C  
HETATM   29  O   UNL     1      -6.203  10.598  64.638  1.00  0.00    -0.070 OA 
HETATM   30  C   UNL     1      -6.527   7.412  64.727  1.00  0.00    -0.037 C  
HETATM   31  O   UNL     1      -8.400  10.298  64.823  1.00  0.00    -0.164 OA 
HETATM   32  C   UNL     1      -7.711   6.659  64.130  1.00  0.00    -0.109 C  
HETATM   33  C   UNL     1      -5.550   7.849  63.633  1.00  0.00    -0.053 C  
ENDBRANCH   6  27
ENDBRANCH   4   5
ENDBRANCH   3   4
ENDBRANCH   2   3
TORSDOF 8
ENDMDL
MODEL      286
REMARK 921   NORMALIZED FREE ENERGY PREDICTED BY IDOCK:   -3.35 KCAL/MOL
REMARK 922        TOTAL FREE ENERGY PREDICTED BY IDOCK:   -5.44 KCAL/MOL
REMARK 923 INTER-LIGAND FREE ENERGY PREDICTED BY IDOCK:   -6.01 KCAL/MOL
REMARK 924 INTRA-LIGAND FREE ENERGY PREDICTED BY IDOCK:    0.57 KCAL/MOL
REMARK 927      BINDING AFFINITY PREDICTED BY RF-SCORE:    0.00 PKD
ROOT
HETATM    1  C   UNL     1     -13.197  11.601  72.018  1.00  0.00    -0.443 C  
HETATM    2  C   UNL     1     -12.970  10.344  71.204  1.00  0.00    -0.506 C  
ENDROOT
BRANCH   2   3
HETATM    3  C   UNL     1     -12.526  10.643  69.770  1.00  0.00    -0.187 C  
BRANCH   3   4
HETATM    4  C   UNL     1     -11.581  11.845  69.778  1.00  0.00    -0.359 C  
BRANCH   4   5
HETATM    5  C   UNL     1     -11.413  12.514  68.431  1.00  0.00    -0.312 C  
HETATM    6  N   UNL     1     -10.137  12.591  67.876  1.00  0.00    -0.208 N  
HETATM    7  O   UNL     1     -12.390  12.994  67.848  1.00  0.00    -0.129 OA 
BRANCH   6   8
HETATM    8  C   UNL     1      -8.941  11.989  68.535  1.00  0.00    -0.098 C  
BRANCH   8   9
HETATM    9  C   UNL     1      -9.034  10.492  68.776  1.00  0.00    -0.166 A  
HETATM   10  C   UNL     1      -8.474   9.928  69.923  1.00  0.00    -0.210 A  
HETATM   11  C   UNL     1      -8.268   8.542  70.006  1.00  0.00    -0.121 A  
HETATM   12  C   UNL     1      -8.685   7.649  69.003  1.00  0.00    -0.136 A  
HETATM   13  C   UNL     1      -9.606   9.607  67.857  1.00  0.00    -0.159 A  
HETATM   14  C   UNL     1      -9.463   8.213  67.981  1.00  0.00    -0.155 A  
BRANCH  12  15
HETATM   15  C   UNL     1      -8.293   6.199  69.051  1.00  0.00    -0.112 A  
HETATM   16  C   UNL     1      -7.563   5.693  67.935  1.00  0.00    -0.085 A  
HETATM   17  C   UNL     1      -7.250   4.343  67.770  1.00  0.00    -0.065 A  
HETATM   18  C   UNL     1      -7.614   3.434  68.746  1.00  0.00    -0.052 A  
HETATM   19  C   UNL     1      -8.285   3.890  69.878  1.00  0.00    -0.068 A  
HETATM   20  C   UNL     1      -8.642   5.254  70.055  1.00  0.00    -0.117 A  
BRANCH  20  21
HETATM   21  C   UNL     1      -9.377   5.526  71.289  1.00  0.00    -0.147 A  
HETATM   22  N   UNL     1      -8.929   6.356  72.255  1.00  0.00    -0.139 NA 
HETATM   23  N   UNL     1      -9.885   6.208  73.178  1.00  0.00    -0.163 NA 
HETATM   24  H   UNL     1      -8.090   6.936  72.275  1.00  0.00     0.000 HD 
HETATM   25  N   UNL     1     -10.889   5.385  72.851  1.00  0.00    -0.250 NA 
HETATM   26  N   UNL     1     -10.554   4.913  71.656  1.00  0.00    -0.130 NA 
ENDBRANCH  20  21
ENDBRANCH  12  15
ENDBRANCH   8   9
ENDBRANCH   6   8
BRANCH   6  27
HETATM   27  C   UNL     1      -9.961  13.079  66.458  1.00  0.00    -0.262 C  
HETATM   28  C   UNL     1     -10.304  14.550  66.063  1.00  0.00    -0.309 C  
HETATM   29  O   UNL     1      -9.665  15.155  65.203  1.00  0.00    -0.232 OA 
HETATM   30  C   UNL     1     -10.438  12.051  65.386  1.00  0.00    -0.313 C  
HETATM   31  O   UNL     1     -11.388  15.124  66.611  1.00  0.00    -0.320 OA 
HETATM   32  C   UNL     1     -11.863  11.537  65.561  1.00  0.00     0.324 C  
HETATM   33  C   UNL     1     -10.189  12.486  63.940  1.00  0.00    -0.386 C  
ENDBRANCH   6  27
ENDBRANCH   4   5
ENDBRANCH   3   4
ENDBRANCH   2   3
TORSDOF 8
ENDMDL
MODEL      287
REMARK 921   NORMALIZED FREE ENERGY PREDICTED BY IDOCK:   -3.34 KCAL/MOL
REMARK 922        TOTAL FREE ENERGY PREDICTED BY IDOCK:   -5.43 KCAL/MOL
REMARK 923 INTER-LIGAND FREE ENERGY PREDICTED BY IDOCK:   -5.40 KCAL/MOL
REMARK 924 INTRA-LIGAND FREE ENERGY PREDICTED BY IDOCK:   -0.03 KCAL/MOL
REMARK 927      BINDING AFFINITY PREDICTED BY RF-SCORE:    0.00 PKD
ROOT
HETATM    1  C   UNL     1      -8.159   8.883  64.881  1.00  0.00    -0.144 C  
HETATM    2  C   UNL     1      -6.751   9.184  65.355  1.00  0.00    -0.073 C  
ENDROOT
BRANCH   2   3
HETATM    3  C   UNL     1      -6.252   8.176  66.393  1.00  0.00    -0.046 C  
BRANCH   3   4
HETATM    4  C   UNL     1      -6.949   6.834  66.165  1.00  0.00    -0.061 C  
BRANCH   4   5
HETATM    5  C   UNL     1      -6.493   5.729  67.093  1.00  0.00    -0.047 C  
HETATM    6  N   UNL     1      -7.438   5.102  67.902  1.00  0.00    -0.075 N  
HETATM    7  O   UNL     1      -5.302   5.407  67.139  1.00  0.00    -0.007 OA 
BRANCH   6   8
HETATM    8  C   UNL     1      -8.891   5.440  67.846  1.00  0.00    -0.105 C  
BRANCH   8   9
HETATM    9  C   UNL     1      -9.239   6.830  68.352  1.00  0.00    -0.123 A  
HETATM   10  C   UNL     1      -8.967   7.186  69.673  1.00  0.00    -0.141 A  
HETATM   11  C   UNL     1      -9.561   8.324  70.240  1.00  0.00    -0.169 A  
HETATM   12  C   UNL     1     -10.375   9.204  69.505  1.00  0.00    -0.220 A  
HETATM   13  C   UNL     1      -9.899   7.781  67.569  1.00  0.00    -0.221 A  
HETATM   14  C   UNL     1     -10.430   8.960  68.124  1.00  0.00    -0.254 A  
BRANCH  12  15
HETATM   15  C   UNL     1     -11.127  10.312  70.188  1.00  0.00    -0.385 A  
HETATM   16  C   UNL     1     -11.986   9.938  71.263  1.00  0.00    -0.489 A  
HETATM   17  C   UNL     1     -12.850  10.827  71.902  1.00  0.00    -0.460 A  
HETATM   18  C   UNL     1     -12.861  12.157  71.524  1.00  0.00    -0.394 A  
HETATM   19  C   UNL     1     -12.003  12.579  70.511  1.00  0.00    -0.277 A  
HETATM   20  C   UNL     1     -11.136  11.687  69.825  1.00  0.00    -0.116 A  
BRANCH  20  21
HETATM   21  C   UNL     1     -10.345  12.313  68.768  1.00  0.00    -0.135 A  
HETATM   22  N   UNL     1      -9.082  11.944  68.466  1.00  0.00    -0.319 NA 
HETATM   23  N   UNL     1      -8.776  12.840  67.521  1.00  0.00    -0.174 NA 
HETATM   24  H   UNL     1      -8.516  11.188  68.852  1.00  0.00     0.000 HD 
HETATM   25  N   UNL     1      -9.747  13.705  67.202  1.00  0.00    -0.238 NA 
HETATM   26  N   UNL     1     -10.745  13.399  68.022  1.00  0.00    -0.242 NA 
ENDBRANCH  20  21
ENDBRANCH  12  15
ENDBRANCH   8   9
ENDBRANCH   6   8
BRANCH   6  27
HETATM   27  C   UNL     1      -7.055   3.876  68.697  1.00  0.00    -0.051 C  
HETATM   28  C   UNL     1      -6.939   2.476  68.015  1.00  0.00    -0.048 C  
HETATM   29  O   UNL     1      -6.110   1.645  68.380  1.00  0.00    -0.023 OA 
HETATM   30  C   UNL     1      -7.750   3.800  70.092  1.00  0.00    -0.048 C  
HETATM   31  O   UNL     1      -7.840   2.146  67.075  1.00  0.00    -0.065 OA 
HETATM   32  C   UNL     1      -9.269   3.925  70.073  1.00  0.00    -0.220 C  
HETATM   33  C   UNL     1      -7.310   2.613  70.952  1.00  0.00    -0.033 C  
ENDBRANCH   6  27
ENDBRANCH   4   5
ENDBRANCH   3   4
ENDBRANCH   2   3
TORSDOF 8
ENDMDL
MODEL      288
REMARK 921   NORMALIZED FREE ENERGY PREDICTED BY IDOCK:   -3.30 KCAL/MOL
REMARK 922        TOTAL FREE ENERGY PREDICTED BY IDOCK:   -5.37 KCAL/MOL
REMARK 923 INTER-LIGAND FREE ENERGY PREDICTED BY IDOCK:   -6.44 KCAL/MOL
REMARK 924 INTRA-LIGAND FREE ENERGY PREDICTED BY IDOCK:    1.07 KCAL/MOL
REMARK 927      BINDING AFFINITY PREDICTED BY RF-SCORE:    0.00 PKD
ROOT
HETATM    1  C   UNL     1      -7.524  17.656  68.229  1.00  0.00    -0.251 C  
HETATM    2  C   UNL     1      -7.454  16.445  69.136  1.00  0.00    -0.228 C  
ENDROOT
BRANCH   2   3
HETATM    3  C   UNL     1      -7.350  15.132  68.356  1.00  0.00    -0.115 C  
BRANCH   3   4
HETATM    4  C   UNL     1      -8.569  14.264  68.669  1.00  0.00    -0.149 C  
BRANCH   4   5
HETATM    5  C   UNL     1      -9.677  14.351  67.641  1.00  0.00    -0.219 C  
HETATM    6  N   UNL     1      -9.726  13.395  66.628  1.00  0.00    -0.268 N  
HETATM    7  O   UNL     1     -10.507  15.263  67.696  1.00  0.00    -0.254 OA 
BRANCH   6   8
HETATM    8  C   UNL     1      -8.762  12.258  66.553  1.00  0.00    -0.084 C  
BRANCH   8   9
HETATM    9  C   UNL     1      -9.118  11.065  67.424  1.00  0.00    -0.143 A  
HETATM   10  C   UNL     1      -8.406  10.814  68.598  1.00  0.00    -0.141 A  
HETATM   11  C   UNL     1      -8.499   9.566  69.233  1.00  0.00    -0.139 A  
HETATM   12  C   UNL     1      -9.363   8.549  68.790  1.00  0.00    -0.143 A  
HETATM   13  C   UNL     1     -10.102  10.135  67.076  1.00  0.00    -0.277 A  
HETATM   14  C   UNL     1     -10.245   8.915  67.762  1.00  0.00    -0.283 A  
BRANCH  12  15
HETATM   15  C   UNL     1      -9.308   7.173  69.392  1.00  0.00    -0.147 A  
HETATM   16  C   UNL     1      -9.998   6.138  68.696  1.00  0.00    -0.176 A  
HETATM   17  C   UNL     1     -10.154   4.845  69.198  1.00  0.00    -0.229 A  
HETATM   18  C   UNL     1      -9.579   4.511  70.410  1.00  0.00    -0.270 A  
HETATM   19  C   UNL     1      -8.852   5.476  71.103  1.00  0.00    -0.142 A  
HETATM   20  C   UNL     1      -8.705   6.807  70.628  1.00  0.00    -0.143 A  
BRANCH  20  21
HETATM   21  C   UNL     1      -7.941   7.680  71.516  1.00  0.00    -0.094 A  
HETATM   22  N   UNL     1      -8.437   8.191  72.664  1.00  0.00    -0.174 NA 
HETATM   23  N   UNL     1      -7.418   8.963  73.057  1.00  0.00    -0.322 NA 
HETATM   24  H   UNL     1      -9.340   8.031  73.109  1.00  0.00     0.000 HD 
HETATM   25  N   UNL     1      -6.337   8.949  72.267  1.00  0.00    -0.210 NA 
HETATM   26  N   UNL     1      -6.676   8.158  71.257  1.00  0.00    -0.043 NA 
ENDBRANCH  20  21
ENDBRANCH  12  15
ENDBRANCH   8   9
ENDBRANCH   6   8
BRANCH   6  27
HETATM   27  C   UNL     1     -10.918  13.340  65.702  1.00  0.00    -0.277 C  
HETATM   28  C   UNL     1     -10.938  12.381  64.470  1.00  0.00    -0.316 C  
HETATM   29  O   UNL     1     -11.977  11.849  64.081  1.00  0.00    -0.353 OA 
HETATM   30  C   UNL     1     -11.509  14.745  65.369  1.00  0.00    -0.341 C  
HETATM   31  O   UNL     1      -9.806  12.220  63.765  1.00  0.00    -0.310 OA 
HETATM   32  C   UNL     1     -10.510  15.764  64.833  1.00  0.00    -0.221 C  
HETATM   33  C   UNL     1     -12.770  14.710  64.504  1.00  0.00     0.016 C  
ENDBRANCH   6  27
ENDBRANCH   4   5
ENDBRANCH   3   4
ENDBRANCH   2   3
TORSDOF 8
ENDMDL
MODEL      289
REMARK 921   NORMALIZED FREE ENERGY PREDICTED BY IDOCK:   -3.30 KCAL/MOL
REMARK 922        TOTAL FREE ENERGY PREDICTED BY IDOCK:   -5.37 KCAL/MOL
REMARK 923 INTER-LIGAND FREE ENERGY PREDICTED BY IDOCK:   -5.60 KCAL/MOL
REMARK 924 INTRA-LIGAND FREE ENERGY PREDICTED BY IDOCK:    0.23 KCAL/MOL
REMARK 927      BINDING AFFINITY PREDICTED BY RF-SCORE:    0.00 PKD
ROOT
HETATM    1  C   UNL     1     -12.398  13.564  66.972  1.00  0.00    -0.260 C  
HETATM    2  C   UNL     1     -11.972  12.123  66.773  1.00  0.00    -0.170 C  
ENDROOT
BRANCH   2   3
HETATM    3  C   UNL     1     -11.457  11.852  65.358  1.00  0.00    -0.310 C  
BRANCH   3   4
HETATM    4  C   UNL     1      -9.929  11.813  65.379  1.00  0.00    -0.284 C  
BRANCH   4   5
HETATM    5  C   UNL     1      -9.313  10.948  64.300  1.00  0.00    -0.228 C  
HETATM    6  N   UNL     1      -8.152  10.236  64.595  1.00  0.00    -0.163 N  
HETATM    7  O   UNL     1      -9.826  10.892  63.179  1.00  0.00    -0.313 OA 
BRANCH   6   8
HETATM    8  C   UNL     1      -7.526  10.251  65.950  1.00  0.00    -0.135 C  
BRANCH   8   9
HETATM    9  C   UNL     1      -8.145   9.284  66.946  1.00  0.00    -0.108 A  
HETATM   10  C   UNL     1      -9.531   9.206  67.082  1.00  0.00    -0.197 A  
HETATM   11  C   UNL     1     -10.102   8.573  68.197  1.00  0.00    -0.240 A  
HETATM   12  C   UNL     1      -9.334   7.916  69.175  1.00  0.00    -0.154 A  
HETATM   13  C   UNL     1      -7.383   8.493  67.811  1.00  0.00    -0.093 A  
HETATM   14  C   UNL     1      -7.967   7.796  68.886  1.00  0.00    -0.124 A  
BRANCH  12  15
HETATM   15  C   UNL     1      -9.969   7.402  70.437  1.00  0.00    -0.188 A  
HETATM   16  C   UNL     1     -11.314   6.938  70.337  1.00  0.00    -0.376 A  
HETATM   17  C   UNL     1     -12.080   6.562  71.441  1.00  0.00    -0.344 A  
HETATM   18  C   UNL     1     -11.516   6.586  72.702  1.00  0.00    -0.224 A  
HETATM   19  C   UNL     1     -10.189   6.983  72.843  1.00  0.00    -0.243 A  
HETATM   20  C   UNL     1      -9.397   7.400  71.739  1.00  0.00    -0.161 A  
BRANCH  20  21
HETATM   21  C   UNL     1      -8.043   7.818  72.096  1.00  0.00    -0.112 A  
HETATM   22  N   UNL     1      -7.757   9.010  72.663  1.00  0.00    -0.195 NA 
HETATM   23  N   UNL     1      -6.422   8.950  72.714  1.00  0.00    -0.295 NA 
HETATM   24  H   UNL     1      -8.387   9.751  72.968  1.00  0.00     0.000 HD 
HETATM   25  N   UNL     1      -5.870   7.820  72.255  1.00  0.00    -0.039 NA 
HETATM   26  N   UNL     1      -6.899   7.102  71.822  1.00  0.00    -0.059 NA 
ENDBRANCH  20  21
ENDBRANCH  12  15
ENDBRANCH   8   9
ENDBRANCH   6   8
BRANCH   6  27
HETATM   27  C   UNL     1      -7.620   9.222  63.610  1.00  0.00    -0.112 C  
HETATM   28  C   UNL     1      -8.148   7.753  63.600  1.00  0.00    -0.053 C  
HETATM   29  O   UNL     1      -8.248   7.108  62.557  1.00  0.00    -0.119 OA 
HETATM   30  C   UNL     1      -6.073   9.297  63.419  1.00  0.00    -0.090 C  
HETATM   31  O   UNL     1      -8.400   7.155  64.777  1.00  0.00    -0.091 OA 
HETATM   32  C   UNL     1      -5.251   9.223  64.701  1.00  0.00    -0.049 C  
HETATM   33  C   UNL     1      -5.521   8.340  62.361  1.00  0.00    -0.070 C  
ENDBRANCH   6  27
ENDBRANCH   4   5
ENDBRANCH   3   4
ENDBRANCH   2   3
TORSDOF 8
ENDMDL
MODEL      290
REMARK 921   NORMALIZED FREE ENERGY PREDICTED BY IDOCK:   -3.29 KCAL/MOL
REMARK 922        TOTAL FREE ENERGY PREDICTED BY IDOCK:   -5.35 KCAL/MOL
REMARK 923 INTER-LIGAND FREE ENERGY PREDICTED BY IDOCK:   -5.80 KCAL/MOL
REMARK 924 INTRA-LIGAND FREE ENERGY PREDICTED BY IDOCK:    0.45 KCAL/MOL
REMARK 927      BINDING AFFINITY PREDICTED BY RF-SCORE:    0.00 PKD
ROOT
HETATM    1  C   UNL     1      -6.617   7.123  69.605  1.00  0.00    -0.044 C  
HETATM    2  C   UNL     1      -7.352   6.305  68.563  1.00  0.00    -0.086 C  
ENDROOT
BRANCH   2   3
HETATM    3  C   UNL     1      -7.567   7.072  67.256  1.00  0.00    -0.108 C  
BRANCH   3   4
HETATM    4  C   UNL     1      -7.140   8.527  67.453  1.00  0.00    -0.080 C  
BRANCH   4   5
HETATM    5  C   UNL     1      -8.289   9.510  67.524  1.00  0.00    -0.125 C  
HETATM    6  N   UNL     1      -8.121  10.684  68.255  1.00  0.00    -0.113 N  
HETATM    7  O   UNL     1      -9.357   9.261  66.955  1.00  0.00    -0.137 OA 
BRANCH   6   8
HETATM    8  C   UNL     1      -6.834  11.034  68.923  1.00  0.00    -0.079 C  
BRANCH   8   9
HETATM    9  C   UNL     1      -6.481  12.511  68.889  1.00  0.00    -0.091 A  
HETATM   10  C   UNL     1      -6.399  13.242  70.075  1.00  0.00    -0.016 A  
HETATM   11  C   UNL     1      -6.395  14.645  70.047  1.00  0.00    -0.165 A  
HETATM   12  C   UNL     1      -6.382  15.383  68.849  1.00  0.00    -0.106 A  
HETATM   13  C   UNL     1      -6.294  13.222  67.700  1.00  0.00    -0.161 A  
HETATM   14  C   UNL     1      -6.215  14.626  67.679  1.00  0.00    -0.106 A  
BRANCH  12  15
HETATM   15  C   UNL     1      -6.551  16.876  68.861  1.00  0.00    -0.193 A  
HETATM   16  C   UNL     1      -5.368  17.656  69.020  1.00  0.00    -0.172 A  
HETATM   17  C   UNL     1      -5.378  19.041  69.188  1.00  0.00    -0.202 A  
HETATM   18  C   UNL     1      -6.579  19.723  69.155  1.00  0.00    -0.377 A  
HETATM   19  C   UNL     1      -7.758  19.009  68.952  1.00  0.00    -0.344 A  
HETATM   20  C   UNL     1      -7.777  17.596  68.809  1.00  0.00    -0.246 A  
BRANCH  20  21
HETATM   21  C   UNL     1      -9.114  17.028  68.645  1.00  0.00    -0.271 A  
HETATM   22  N   UNL     1      -9.901  17.272  67.576  1.00  0.00    -0.268 NA 
HETATM   23  N   UNL     1     -11.012  16.615  67.925  1.00  0.00    -0.318 NA 
HETATM   24  H   UNL     1      -9.701  17.810  66.733  1.00  0.00     0.000 HD 
HETATM   25  N   UNL     1     -10.965  15.970  69.098  1.00  0.00    -0.274 NA 
HETATM   26  N   UNL     1      -9.764  16.259  69.585  1.00  0.00    -0.130 NA 
ENDBRANCH  20  21
ENDBRANCH  12  15
ENDBRANCH   8   9
ENDBRANCH   6   8
BRANCH   6  27
HETATM   27  C   UNL     1      -9.172  11.767  68.192  1.00  0.00    -0.186 C  
HETATM   28  C   UNL     1     -10.581  11.562  68.833  1.00  0.00    -0.204 C  
HETATM   29  O   UNL     1     -11.201  12.494  69.344  1.00  0.00    -0.225 OA 
HETATM   30  C   UNL     1      -9.251  12.473  66.802  1.00  0.00    -0.217 C  
HETATM   31  O   UNL     1     -11.164  10.356  68.728  1.00  0.00    -0.246 OA 
HETATM   32  C   UNL     1      -9.421  11.544  65.606  1.00  0.00    -0.244 C  
HETATM   33  C   UNL     1     -10.246  13.633  66.740  1.00  0.00    -0.268 C  
ENDBRANCH   6  27
ENDBRANCH   4   5
ENDBRANCH   3   4
ENDBRANCH   2   3
TORSDOF 8
ENDMDL
MODEL      291
REMARK 921   NORMALIZED FREE ENERGY PREDICTED BY IDOCK:   -3.27 KCAL/MOL
REMARK 922        TOTAL FREE ENERGY PREDICTED BY IDOCK:   -5.32 KCAL/MOL
REMARK 923 INTER-LIGAND FREE ENERGY PREDICTED BY IDOCK:   -5.73 KCAL/MOL
REMARK 924 INTRA-LIGAND FREE ENERGY PREDICTED BY IDOCK:    0.40 KCAL/MOL
REMARK 927      BINDING AFFINITY PREDICTED BY RF-SCORE:    0.00 PKD
ROOT
HETATM    1  C   UNL     1     -11.003  16.213  64.756  1.00  0.00    -0.330 C  
HETATM    2  C   UNL     1     -11.377  14.985  65.561  1.00  0.00    -0.312 C  
ENDROOT
BRANCH   2   3
HETATM    3  C   UNL     1     -11.727  13.786  64.677  1.00  0.00    -0.417 C  
BRANCH   3   4
HETATM    4  C   UNL     1     -12.383  12.704  65.535  1.00  0.00    -0.455 C  
BRANCH   4   5
HETATM    5  C   UNL     1     -11.619  12.358  66.794  1.00  0.00    -0.379 C  
HETATM    6  N   UNL     1     -10.595  11.416  66.717  1.00  0.00    -0.244 N  
HETATM    7  O   UNL     1     -11.912  12.893  67.867  1.00  0.00    -0.349 OA 
BRANCH   6   8
HETATM    8  C   UNL     1     -10.188  10.778  65.431  1.00  0.00    -0.276 C  
BRANCH   8   9
HETATM    9  C   UNL     1      -9.738   9.332  65.553  1.00  0.00    -0.247 A  
HETATM   10  C   UNL     1     -10.367   8.474  66.456  1.00  0.00    -0.215 A  
HETATM   11  C   UNL     1      -9.770   7.254  66.811  1.00  0.00    -0.260 A  
HETATM   12  C   UNL     1      -8.578   6.791  66.227  1.00  0.00    -0.141 A  
HETATM   13  C   UNL     1      -8.654   8.810  64.842  1.00  0.00    -0.177 A  
HETATM   14  C   UNL     1      -8.101   7.553  65.149  1.00  0.00    -0.130 A  
BRANCH  12  15
HETATM   15  C   UNL     1      -7.883   5.568  66.756  1.00  0.00    -0.101 A  
HETATM   16  C   UNL     1      -8.108   4.347  66.055  1.00  0.00    -0.102 A  
HETATM   17  C   UNL     1      -7.648   3.108  66.501  1.00  0.00    -0.076 A  
HETATM   18  C   UNL     1      -6.891   3.038  67.656  1.00  0.00    -0.049 A  
HETATM   19  C   UNL     1      -6.603   4.212  68.348  1.00  0.00    -0.046 A  
HETATM   20  C   UNL     1      -7.086   5.481  67.931  1.00  0.00    -0.071 A  
BRANCH  20  21
HETATM   21  C   UNL     1      -6.710   6.585  68.812  1.00  0.00    -0.057 A  
HETATM   22  N   UNL     1      -7.059   6.650  70.114  1.00  0.00    -0.072 NA 
HETATM   23  N   UNL     1      -6.566   7.847  70.448  1.00  0.00    -0.037 NA 
HETATM   24  H   UNL     1      -7.562   5.972  70.687  1.00  0.00     0.000 HD 
HETATM   25  N   UNL     1      -5.924   8.506  69.475  1.00  0.00    -0.033 NA 
HETATM   26  N   UNL     1      -6.044   7.721  68.411  1.00  0.00    -0.035 NA 
ENDBRANCH  20  21
ENDBRANCH  12  15
ENDBRANCH   8   9
ENDBRANCH   6   8
BRANCH   6  27
HETATM   27  C   UNL     1      -9.692  11.187  67.906  1.00  0.00    -0.174 C  
HETATM   28  C   UNL     1     -10.278  10.810  69.304  1.00  0.00    -0.194 C  
HETATM   29  O   UNL     1      -9.680  10.061  70.075  1.00  0.00    -0.235 OA 
HETATM   30  C   UNL     1      -8.532  12.226  68.011  1.00  0.00    -0.171 C  
HETATM   31  O   UNL     1     -11.414  11.404  69.703  1.00  0.00    -0.269 OA 
HETATM   32  C   UNL     1      -8.959  13.689  67.986  1.00  0.00    -0.188 C  
HETATM   33  C   UNL     1      -7.552  11.963  69.157  1.00  0.00     0.115 C  
ENDBRANCH   6  27
ENDBRANCH   4   5
ENDBRANCH   3   4
ENDBRANCH   2   3
TORSDOF 8
ENDMDL
MODEL      292
REMARK 921   NORMALIZED FREE ENERGY PREDICTED BY IDOCK:   -3.26 KCAL/MOL
REMARK 922        TOTAL FREE ENERGY PREDICTED BY IDOCK:   -5.31 KCAL/MOL
REMARK 923 INTER-LIGAND FREE ENERGY PREDICTED BY IDOCK:   -5.03 KCAL/MOL
REMARK 924 INTRA-LIGAND FREE ENERGY PREDICTED BY IDOCK:   -0.28 KCAL/MOL
REMARK 927      BINDING AFFINITY PREDICTED BY RF-SCORE:    0.00 PKD
ROOT
HETATM    1  C   UNL     1     -11.534  11.616  68.833  1.00  0.00    -0.349 C  
HETATM    2  C   UNL     1     -10.351  10.676  68.939  1.00  0.00    -0.225 C  
ENDROOT
BRANCH   2   3
HETATM    3  C   UNL     1     -10.657   9.282  68.386  1.00  0.00    -0.234 C  
BRANCH   3   4
HETATM    4  C   UNL     1     -10.635   9.332  66.858  1.00  0.00    -0.239 C  
BRANCH   4   5
HETATM    5  C   UNL     1      -9.336   9.840  66.271  1.00  0.00    -0.180 C  
HETATM    6  N   UNL     1      -8.360   8.914  65.904  1.00  0.00    -0.121 N  
HETATM    7  O   UNL     1      -9.145  11.052  66.136  1.00  0.00    -0.180 OA 
BRANCH   6   8
HETATM    8  C   UNL     1      -8.571   7.441  66.018  1.00  0.00    -0.151 C  
BRANCH   8   9
HETATM    9  C   UNL     1      -8.600   6.911  67.442  1.00  0.00    -0.121 A  
HETATM   10  C   UNL     1      -9.473   5.881  67.792  1.00  0.00    -0.114 A  
HETATM   11  C   UNL     1      -9.742   5.604  69.141  1.00  0.00    -0.193 A  
HETATM   12  C   UNL     1      -9.096   6.269  70.198  1.00  0.00    -0.155 A  
HETATM   13  C   UNL     1      -7.827   7.456  68.472  1.00  0.00    -0.122 A  
HETATM   14  C   UNL     1      -8.047   7.121  69.821  1.00  0.00    -0.129 A  
BRANCH  12  15
HETATM   15  C   UNL     1      -9.534   6.065  71.621  1.00  0.00    -0.163 A  
HETATM   16  C   UNL     1     -10.743   5.337  71.823  1.00  0.00    -0.240 A  
HETATM   17  C   UNL     1     -11.350   5.184  73.071  1.00  0.00    -0.381 A  
HETATM   18  C   UNL     1     -10.743   5.718  74.193  1.00  0.00    -0.071 A  
HETATM   19  C   UNL     1      -9.535   6.395  74.051  1.00  0.00    -0.197 A  
HETATM   20  C   UNL     1      -8.913   6.590  72.789  1.00  0.00    -0.127 A  
BRANCH  20  21
HETATM   21  C   UNL     1      -7.672   7.360  72.843  1.00  0.00    -0.088 A  
HETATM   22  N   UNL     1      -6.475   6.820  73.155  1.00  0.00    -0.063 NA 
HETATM   23  N   UNL     1      -5.699   7.910  73.151  1.00  0.00    -0.045 NA 
HETATM   24  H   UNL     1      -6.229   5.849  73.343  1.00  0.00     0.000 HD 
HETATM   25  N   UNL     1      -6.309   9.060  72.839  1.00  0.00    -0.310 NA 
HETATM   26  N   UNL     1      -7.583   8.724  72.675  1.00  0.00    -0.361 NA 
ENDBRANCH  20  21
ENDBRANCH  12  15
ENDBRANCH   8   9
ENDBRANCH   6   8
BRANCH   6  27
HETATM   27  C   UNL     1      -7.137   9.370  65.145  1.00  0.00    -0.100 C  
HETATM   28  C   UNL     1      -6.210   8.345  64.418  1.00  0.00    -0.066 C  
HETATM   29  O   UNL     1      -5.637   8.624  63.366  1.00  0.00    -0.067 OA 
HETATM   30  C   UNL     1      -6.327  10.479  65.885  1.00  0.00    -0.128 C  
HETATM   31  O   UNL     1      -5.962   7.169  65.017  1.00  0.00    -0.036 OA 
HETATM   32  C   UNL     1      -5.928  10.151  67.319  1.00  0.00    -0.054 C  
HETATM   33  C   UNL     1      -5.133  11.021  65.096  1.00  0.00    -0.019 C  
ENDBRANCH   6  27
ENDBRANCH   4   5
ENDBRANCH   3   4
ENDBRANCH   2   3
TORSDOF 8
ENDMDL
MODEL      293
REMARK 921   NORMALIZED FREE ENERGY PREDICTED BY IDOCK:   -3.22 KCAL/MOL
REMARK 922        TOTAL FREE ENERGY PREDICTED BY IDOCK:   -5.26 KCAL/MOL
REMARK 923 INTER-LIGAND FREE ENERGY PREDICTED BY IDOCK:   -5.45 KCAL/MOL
REMARK 924 INTRA-LIGAND FREE ENERGY PREDICTED BY IDOCK:    0.19 KCAL/MOL
REMARK 927      BINDING AFFINITY PREDICTED BY RF-SCORE:    0.00 PKD
ROOT
HETATM    1  C   UNL     1     -10.570  19.206  67.424  1.00  0.00    -0.577 C  
HETATM    2  C   UNL     1      -9.956  17.996  68.100  1.00  0.00    -0.356 C  
ENDROOT
BRANCH   2   3
HETATM    3  C   UNL     1     -10.827  16.745  67.972  1.00  0.00    -0.341 C  
BRANCH   3   4
HETATM    4  C   UNL     1      -9.954  15.504  68.158  1.00  0.00    -0.217 C  
BRANCH   4   5
HETATM    5  C   UNL     1     -10.467  14.269  67.450  1.00  0.00    -0.264 C  
HETATM    6  N   UNL     1      -9.544  13.350  66.953  1.00  0.00    -0.249 N  
HETATM    7  O   UNL     1     -11.681  14.094  67.304  1.00  0.00    -0.351 OA 
BRANCH   6   8
HETATM    8  C   UNL     1      -8.073  13.510  67.143  1.00  0.00    -0.082 C  
BRANCH   8   9
HETATM    9  C   UNL     1      -7.381  12.318  67.784  1.00  0.00    -0.118 A  
HETATM   10  C   UNL     1      -6.632  11.438  67.004  1.00  0.00    -0.125 A  
HETATM   11  C   UNL     1      -6.262  10.181  67.506  1.00  0.00    -0.058 A  
HETATM   12  C   UNL     1      -6.539   9.776  68.824  1.00  0.00    -0.046 A  
HETATM   13  C   UNL     1      -7.510  12.003  69.139  1.00  0.00     0.096 A  
HETATM   14  C   UNL     1      -7.071  10.771  69.659  1.00  0.00    -0.136 A  
BRANCH  12  15
HETATM   15  C   UNL     1      -6.280   8.364  69.269  1.00  0.00    -0.038 A  
HETATM   16  C   UNL     1      -5.689   8.193  70.555  1.00  0.00    -0.029 A  
HETATM   17  C   UNL     1      -5.264   6.958  71.047  1.00  0.00    -0.023 A  
HETATM   18  C   UNL     1      -5.456   5.819  70.288  1.00  0.00    -0.012 A  
HETATM   19  C   UNL     1      -6.076   5.931  69.046  1.00  0.00    -0.031 A  
HETATM   20  C   UNL     1      -6.490   7.179  68.510  1.00  0.00    -0.040 A  
BRANCH  20  21
HETATM   21  C   UNL     1      -7.082   7.093  67.177  1.00  0.00    -0.087 A  
HETATM   22  N   UNL     1      -8.414   7.057  66.955  1.00  0.00    -0.117 NA 
HETATM   23  N   UNL     1      -8.444   6.899  65.627  1.00  0.00    -0.146 NA 
HETATM   24  H   UNL     1      -9.185   7.130  67.618  1.00  0.00     0.000 HD 
HETATM   25  N   UNL     1      -7.252   6.863  65.016  1.00  0.00    -0.071 NA 
HETATM   26  N   UNL     1      -6.372   6.949  66.006  1.00  0.00    -0.048 NA 
ENDBRANCH  20  21
ENDBRANCH  12  15
ENDBRANCH   8   9
ENDBRANCH   6   8
BRANCH   6  27
HETATM   27  C   UNL     1     -10.021  12.022  66.412  1.00  0.00    -0.219 C  
HETATM   28  C   UNL     1     -11.003  11.951  65.200  1.00  0.00    -0.312 C  
HETATM   29  O   UNL     1     -10.946  11.041  64.375  1.00  0.00    -0.293 OA 
HETATM   30  C   UNL     1     -10.381  10.992  67.528  1.00  0.00    -0.233 C  
HETATM   31  O   UNL     1     -11.993  12.855  65.124  1.00  0.00    -0.362 OA 
HETATM   32  C   UNL     1     -11.370  11.484  68.578  1.00  0.00    -0.337 C  
HETATM   33  C   UNL     1     -10.781   9.611  67.005  1.00  0.00    -0.225 C  
ENDBRANCH   6  27
ENDBRANCH   4   5
ENDBRANCH   3   4
ENDBRANCH   2   3
TORSDOF 8
ENDMDL
MODEL      294
REMARK 921   NORMALIZED FREE ENERGY PREDICTED BY IDOCK:   -3.22 KCAL/MOL
REMARK 922        TOTAL FREE ENERGY PREDICTED BY IDOCK:   -5.25 KCAL/MOL
REMARK 923 INTER-LIGAND FREE ENERGY PREDICTED BY IDOCK:   -5.67 KCAL/MOL
REMARK 924 INTRA-LIGAND FREE ENERGY PREDICTED BY IDOCK:    0.41 KCAL/MOL
REMARK 927      BINDING AFFINITY PREDICTED BY RF-SCORE:    0.00 PKD
ROOT
HETATM    1  C   UNL     1      -6.787  17.715  68.017  1.00  0.00    -0.193 C  
HETATM    2  C   UNL     1      -7.661  18.064  66.830  1.00  0.00    -0.247 C  
ENDROOT
BRANCH   2   3
HETATM    3  C   UNL     1      -9.101  17.572  66.994  1.00  0.00    -0.255 C  
BRANCH   3   4
HETATM    4  C   UNL     1      -9.206  16.142  66.464  1.00  0.00    -0.303 C  
BRANCH   4   5
HETATM    5  C   UNL     1     -10.261  15.300  67.149  1.00  0.00    -0.252 C  
HETATM    6  N   UNL     1      -9.853  14.222  67.932  1.00  0.00    -0.221 N  
HETATM    7  O   UNL     1     -11.459  15.559  66.998  1.00  0.00    -0.202 OA 
BRANCH   6   8
HETATM    8  C   UNL     1      -8.414  13.902  68.166  1.00  0.00    -0.171 C  
BRANCH   8   9
HETATM    9  C   UNL     1      -7.932  12.622  67.505  1.00  0.00    -0.174 A  
HETATM   10  C   UNL     1      -6.607  12.210  67.651  1.00  0.00    -0.116 A  
HETATM   11  C   UNL     1      -6.070  11.229  66.804  1.00  0.00    -0.131 A  
HETATM   12  C   UNL     1      -6.837  10.552  65.840  1.00  0.00    -0.132 A  
HETATM   13  C   UNL     1      -8.744  11.841  66.677  1.00  0.00    -0.186 A  
HETATM   14  C   UNL     1      -8.216  10.807  65.883  1.00  0.00    -0.155 A  
BRANCH  12  15
HETATM   15  C   UNL     1      -6.188   9.636  64.841  1.00  0.00    -0.085 A  
HETATM   16  C   UNL     1      -5.884  10.189  63.563  1.00  0.00    -0.137 A  
HETATM   17  C   UNL     1      -5.410   9.433  62.490  1.00  0.00    -0.084 A  
HETATM   18  C   UNL     1      -5.169   8.083  62.663  1.00  0.00    -0.055 A  
HETATM   19  C   UNL     1      -5.403   7.507  63.909  1.00  0.00    -0.033 A  
HETATM   20  C   UNL     1      -5.915   8.250  65.007  1.00  0.00    -0.045 A  
BRANCH  20  21
HETATM   21  C   UNL     1      -6.131   7.459  66.217  1.00  0.00    -0.037 A  
HETATM   22  N   UNL     1      -5.141   7.116  67.069  1.00  0.00    -0.016 NA 
HETATM   23  N   UNL     1      -5.811   6.352  67.939  1.00  0.00    -0.015 NA 
HETATM   24  H   UNL     1      -4.154   7.370  67.053  1.00  0.00     0.000 HD 
HETATM   25  N   UNL     1      -7.124   6.221  67.710  1.00  0.00    -0.079 NA 
HETATM   26  N   UNL     1      -7.332   6.896  66.587  1.00  0.00    -0.076 NA 
ENDBRANCH  20  21
ENDBRANCH  12  15
ENDBRANCH   8   9
ENDBRANCH   6   8
BRANCH   6  27
HETATM   27  C   UNL     1     -10.861  13.481  68.777  1.00  0.00    -0.253 C  
HETATM   28  C   UNL     1     -11.952  12.576  68.122  1.00  0.00    -0.219 C  
HETATM   29  O   UNL     1     -12.354  11.549  68.668  1.00  0.00    -0.445 OA 
HETATM   30  C   UNL     1     -11.428  14.333  69.956  1.00  0.00    -0.280 C  
HETATM   31  O   UNL     1     -12.531  12.992  66.983  1.00  0.00    -0.270 OA 
HETATM   32  C   UNL     1     -12.007  15.687  69.564  1.00  0.00    -0.363 C  
HETATM   33  C   UNL     1     -12.385  13.575  70.878  1.00  0.00    -0.437 C  
ENDBRANCH   6  27
ENDBRANCH   4   5
ENDBRANCH   3   4
ENDBRANCH   2   3
TORSDOF 8
ENDMDL
MODEL      295
REMARK 921   NORMALIZED FREE ENERGY PREDICTED BY IDOCK:   -3.21 KCAL/MOL
REMARK 922        TOTAL FREE ENERGY PREDICTED BY IDOCK:   -5.23 KCAL/MOL
REMARK 923 INTER-LIGAND FREE ENERGY PREDICTED BY IDOCK:   -5.79 KCAL/MOL
REMARK 924 INTRA-LIGAND FREE ENERGY PREDICTED BY IDOCK:    0.56 KCAL/MOL
REMARK 927      BINDING AFFINITY PREDICTED BY RF-SCORE:    0.00 PKD
ROOT
HETATM    1  C   UNL     1     -10.304  18.308  67.171  1.00  0.00    -0.402 C  
HETATM    2  C   UNL     1      -9.563  17.304  68.030  1.00  0.00    -0.274 C  
ENDROOT
BRANCH   2   3
HETATM    3  C   UNL     1     -10.364  16.020  68.256  1.00  0.00    -0.261 C  
BRANCH   3   4
HETATM    4  C   UNL     1      -9.415  14.822  68.213  1.00  0.00    -0.207 C  
BRANCH   4   5
HETATM    5  C   UNL     1      -9.908  13.666  67.369  1.00  0.00    -0.234 C  
HETATM    6  N   UNL     1      -9.007  12.662  67.018  1.00  0.00    -0.211 N  
HETATM    7  O   UNL     1     -11.082  13.629  66.990  1.00  0.00    -0.291 OA 
BRANCH   6   8
HETATM    8  C   UNL     1      -7.591  12.656  67.490  1.00  0.00    -0.160 C  
BRANCH   8   9
HETATM    9  C   UNL     1      -7.166  11.386  68.207  1.00  0.00    -0.082 A  
HETATM   10  C   UNL     1      -6.584  10.337  67.494  1.00  0.00    -0.067 A  
HETATM   11  C   UNL     1      -6.483   9.059  68.065  1.00  0.00    -0.060 A  
HETATM   12  C   UNL     1      -6.870   8.783  69.388  1.00  0.00    -0.049 A  
HETATM   13  C   UNL     1      -7.391  11.170  69.569  1.00  0.00    -0.023 A  
HETATM   14  C   UNL     1      -7.218   9.903  70.158  1.00  0.00    -0.159 A  
BRANCH  12  15
HETATM   15  C   UNL     1      -6.907   7.372  69.903  1.00  0.00    -0.055 A  
HETATM   16  C   UNL     1      -6.977   6.333  68.929  1.00  0.00    -0.076 A  
HETATM   17  C   UNL     1      -7.156   4.988  69.251  1.00  0.00    -0.056 A  
HETATM   18  C   UNL     1      -7.225   4.608  70.579  1.00  0.00    -0.049 A  
HETATM   19  C   UNL     1      -7.111   5.583  71.567  1.00  0.00    -0.072 A  
HETATM   20  C   UNL     1      -6.959   6.962  71.264  1.00  0.00    -0.062 A  
BRANCH  20  21
HETATM   21  C   UNL     1      -6.898   7.831  72.438  1.00  0.00    -0.067 A  
HETATM   22  N   UNL     1      -5.793   8.518  72.799  1.00  0.00    -0.069 NA 
HETATM   23  N   UNL     1      -6.206   9.076  73.943  1.00  0.00    -0.318 NA 
HETATM   24  H   UNL     1      -4.891   8.591  72.329  1.00  0.00     0.000 HD 
HETATM   25  N   UNL     1      -7.470   8.813  74.297  1.00  0.00    -0.424 NA 
HETATM   26  N   UNL     1      -7.911   7.986  73.358  1.00  0.00    -0.168 NA 
ENDBRANCH  20  21
ENDBRANCH  12  15
ENDBRANCH   8   9
ENDBRANCH   6   8
BRANCH   6  27
HETATM   27  C   UNL     1      -9.505  11.407  66.342  1.00  0.00    -0.204 C  
HETATM   28  C   UNL     1     -10.223  11.468  64.956  1.00  0.00    -0.280 C  
HETATM   29  O   UNL     1     -10.099  10.571  64.124  1.00  0.00    -0.338 OA 
HETATM   30  C   UNL     1     -10.195  10.407  67.322  1.00  0.00    -0.258 C  
HETATM   31  O   UNL     1     -11.072  12.481  64.718  1.00  0.00    -0.284 OA 
HETATM   32  C   UNL     1     -11.317  10.992  68.171  1.00  0.00    -0.374 C  
HETATM   33  C   UNL     1     -10.629   9.090  66.676  1.00  0.00    -0.158 C  
ENDBRANCH   6  27
ENDBRANCH   4   5
ENDBRANCH   3   4
ENDBRANCH   2   3
TORSDOF 8
ENDMDL
MODEL      296
REMARK 921   NORMALIZED FREE ENERGY PREDICTED BY IDOCK:   -3.16 KCAL/MOL
REMARK 922        TOTAL FREE ENERGY PREDICTED BY IDOCK:   -5.16 KCAL/MOL
REMARK 923 INTER-LIGAND FREE ENERGY PREDICTED BY IDOCK:   -5.14 KCAL/MOL
REMARK 924 INTRA-LIGAND FREE ENERGY PREDICTED BY IDOCK:   -0.02 KCAL/MOL
REMARK 927      BINDING AFFINITY PREDICTED BY RF-SCORE:    0.00 PKD
ROOT
HETATM    1  C   UNL     1      -5.917  14.306  70.559  1.00  0.00    -0.183 C  
HETATM    2  C   UNL     1      -5.221  13.047  70.082  1.00  0.00    -0.100 C  
ENDROOT
BRANCH   2   3
HETATM    3  C   UNL     1      -6.045  12.276  69.048  1.00  0.00    -0.076 C  
BRANCH   3   4
HETATM    4  C   UNL     1      -7.500  12.739  69.119  1.00  0.00     0.200 C  
BRANCH   4   5
HETATM    5  C   UNL     1      -8.184  12.852  67.774  1.00  0.00    -0.174 C  
HETATM    6  N   UNL     1      -9.523  12.478  67.670  1.00  0.00    -0.182 N  
HETATM    7  O   UNL     1      -7.557  13.253  66.789  1.00  0.00     0.225 OA 
BRANCH   6   8
HETATM    8  C   UNL     1     -10.321  12.024  68.847  1.00  0.00    -0.092 C  
BRANCH   8   9
HETATM    9  C   UNL     1     -10.272  10.528  69.109  1.00  0.00    -0.241 A  
HETATM   10  C   UNL     1     -11.177   9.940  69.993  1.00  0.00    -0.327 A  
HETATM   11  C   UNL     1     -10.948   8.647  70.487  1.00  0.00    -0.266 A  
HETATM   12  C   UNL     1      -9.870   7.849  70.065  1.00  0.00    -0.181 A  
HETATM   13  C   UNL     1      -9.301   9.690  68.553  1.00  0.00    -0.138 A  
HETATM   14  C   UNL     1      -9.121   8.367  68.997  1.00  0.00    -0.147 A  
BRANCH  12  15
HETATM   15  C   UNL     1      -9.564   6.543  70.742  1.00  0.00    -0.190 A  
HETATM   16  C   UNL     1     -10.295   5.402  70.299  1.00  0.00    -0.357 A  
HETATM   17  C   UNL     1     -10.223   4.154  70.920  1.00  0.00     0.011 A  
HETATM   18  C   UNL     1      -9.372   3.976  71.994  1.00  0.00    -0.187 A  
HETATM   19  C   UNL     1      -8.601   5.049  72.432  1.00  0.00    -0.124 A  
HETATM   20  C   UNL     1      -8.678   6.336  71.836  1.00  0.00    -0.136 A  
BRANCH  20  21
HETATM   21  C   UNL     1      -7.820   7.340  72.463  1.00  0.00    -0.095 A  
HETATM   22  N   UNL     1      -6.527   7.531  72.123  1.00  0.00    -0.049 NA 
HETATM   23  N   UNL     1      -6.171   8.469  73.008  1.00  0.00    -0.097 NA 
HETATM   24  H   UNL     1      -5.975   7.083  71.393  1.00  0.00     0.000 HD 
HETATM   25  N   UNL     1      -7.136   8.886  73.838  1.00  0.00    -0.373 NA 
HETATM   26  N   UNL     1      -8.188   8.141  73.521  1.00  0.00    -0.206 NA 
ENDBRANCH  20  21
ENDBRANCH  12  15
ENDBRANCH   8   9
ENDBRANCH   6   8
BRANCH   6  27
HETATM   27  C   UNL     1     -10.285  12.754  66.396  1.00  0.00    -0.253 C  
HETATM   28  C   UNL     1      -9.939  13.985  65.500  1.00  0.00    -0.276 C  
HETATM   29  O   UNL     1     -10.041  13.943  64.275  1.00  0.00    -0.214 OA 
HETATM   30  C   UNL     1     -11.824  12.537  66.535  1.00  0.00    -0.434 C  
HETATM   31  O   UNL     1      -9.619  15.144  66.099  1.00  0.00    -0.272 OA 
HETATM   32  C   UNL     1     -12.489  13.286  67.684  1.00  0.00     0.256 C  
HETATM   33  C   UNL     1     -12.607  12.725  65.234  1.00  0.00    -0.460 C  
ENDBRANCH   6  27
ENDBRANCH   4   5
ENDBRANCH   3   4
ENDBRANCH   2   3
TORSDOF 8
ENDMDL
MODEL      297
REMARK 921   NORMALIZED FREE ENERGY PREDICTED BY IDOCK:   -3.12 KCAL/MOL
REMARK 922        TOTAL FREE ENERGY PREDICTED BY IDOCK:   -5.11 KCAL/MOL
REMARK 923 INTER-LIGAND FREE ENERGY PREDICTED BY IDOCK:   -5.98 KCAL/MOL
REMARK 924 INTRA-LIGAND FREE ENERGY PREDICTED BY IDOCK:    0.87 KCAL/MOL
REMARK 927      BINDING AFFINITY PREDICTED BY RF-SCORE:    0.00 PKD
ROOT
HETATM    1  C   UNL     1      -5.137  11.680  70.022  1.00  0.00    -0.074 C  
HETATM    2  C   UNL     1      -5.479  12.950  70.774  1.00  0.00    -0.178 C  
ENDROOT
BRANCH   2   3
HETATM    3  C   UNL     1      -6.089  14.023  69.869  1.00  0.00    -0.140 C  
BRANCH   3   4
HETATM    4  C   UNL     1      -7.222  13.403  69.049  1.00  0.00    -0.018 C  
BRANCH   4   5
HETATM    5  C   UNL     1      -8.155  14.411  68.415  1.00  0.00    -0.143 C  
HETATM    6  N   UNL     1      -8.729  14.107  67.181  1.00  0.00    -0.219 N  
HETATM    7  O   UNL     1      -8.387  15.485  68.977  1.00  0.00    -0.188 OA 
BRANCH   6   8
HETATM    8  C   UNL     1      -8.501  12.804  66.491  1.00  0.00     0.165 C  
BRANCH   8   9
HETATM    9  C   UNL     1      -9.063  11.594  67.217  1.00  0.00    -0.167 A  
HETATM   10  C   UNL     1     -10.200  10.948  66.731  1.00  0.00    -0.277 A  
HETATM   11  C   UNL     1     -10.910  10.050  67.544  1.00  0.00    -0.326 A  
HETATM   12  C   UNL     1     -10.481   9.686  68.833  1.00  0.00    -0.234 A  
HETATM   13  C   UNL     1      -8.534  11.113  68.418  1.00  0.00    -0.151 A  
HETATM   14  C   UNL     1      -9.210  10.157  69.198  1.00  0.00    -0.204 A  
BRANCH  12  15
HETATM   15  C   UNL     1     -11.355   8.859  69.733  1.00  0.00     0.072 A  
HETATM   16  C   UNL     1     -12.070   9.555  70.752  1.00  0.00    -0.305 A  
HETATM   17  C   UNL     1     -12.810   8.915  71.746  1.00  0.00    -0.419 A  
HETATM   18  C   UNL     1     -12.911   7.536  71.738  1.00  0.00    -0.359 A  
HETATM   19  C   UNL     1     -12.270   6.816  70.733  1.00  0.00    -0.353 A  
HETATM   20  C   UNL     1     -11.487   7.443  69.727  1.00  0.00     0.038 A  
BRANCH  20  21
HETATM   21  C   UNL     1     -10.863   6.515  68.786  1.00  0.00    -0.299 A  
HETATM   22  N   UNL     1     -10.365   5.312  69.147  1.00  0.00    -0.216 NA 
HETATM   23  N   UNL     1      -9.848   4.896  67.985  1.00  0.00    -0.152 NA 
HETATM   24  H   UNL     1     -10.379   4.849  70.055  1.00  0.00     0.000 HD 
HETATM   25  N   UNL     1     -10.010   5.722  66.944  1.00  0.00    -0.154 NA 
HETATM   26  N   UNL     1     -10.627   6.780  67.456  1.00  0.00    -0.241 NA 
ENDBRANCH  20  21
ENDBRANCH  12  15
ENDBRANCH   8   9
ENDBRANCH   6   8
BRANCH   6  27
HETATM   27  C   UNL     1      -9.805  15.000  66.612  1.00  0.00    -0.254 C  
HETATM   28  C   UNL     1     -10.689  14.534  65.412  1.00  0.00    -0.361 C  
HETATM   29  O   UNL     1     -11.868  14.869  65.308  1.00  0.00    -0.313 OA 
HETATM   30  C   UNL     1      -9.367  16.492  66.479  1.00  0.00    -0.295 C  
HETATM   31  O   UNL     1     -10.109  13.833  64.423  1.00  0.00    -0.319 OA 
HETATM   32  C   UNL     1      -8.070  16.727  65.714  1.00  0.00     0.388 C  
HETATM   33  C   UNL     1     -10.469  17.432  65.988  1.00  0.00    -0.278 C  
ENDBRANCH   6  27
ENDBRANCH   4   5
ENDBRANCH   3   4
ENDBRANCH   2   3
TORSDOF 8
ENDMDL
MODEL      298
REMARK 921   NORMALIZED FREE ENERGY PREDICTED BY IDOCK:   -3.11 KCAL/MOL
REMARK 922        TOTAL FREE ENERGY PREDICTED BY IDOCK:   -5.10 KCAL/MOL
REMARK 923 INTER-LIGAND FREE ENERGY PREDICTED BY IDOCK:   -5.10 KCAL/MOL
REMARK 924 INTRA-LIGAND FREE ENERGY PREDICTED BY IDOCK:    0.00 KCAL/MOL
REMARK 927      BINDING AFFINITY PREDICTED BY RF-SCORE:    0.00 PKD
ROOT
HETATM    1  C   UNL     1      -6.998  17.556  66.050  1.00  0.00    -0.296 C  
HETATM    2  C   UNL     1      -7.263  18.571  67.143  1.00  0.00    -0.218 C  
ENDROOT
BRANCH   2   3
HETATM    3  C   UNL     1      -8.305  18.087  68.155  1.00  0.00    -0.273 C  
BRANCH   3   4
HETATM    4  C   UNL     1      -8.350  16.558  68.137  1.00  0.00    -0.186 C  
BRANCH   4   5
HETATM    5  C   UNL     1      -9.712  15.979  67.820  1.00  0.00    -0.221 C  
HETATM    6  N   UNL     1      -9.791  14.893  66.951  1.00  0.00    -0.235 N  
HETATM    7  O   UNL     1     -10.729  16.475  68.313  1.00  0.00    -0.314 OA 
BRANCH   6   8
HETATM    8  C   UNL     1      -8.580  14.245  66.366  1.00  0.00     0.281 C  
BRANCH   8   9
HETATM    9  C   UNL     1      -7.868  13.275  67.293  1.00  0.00    -0.118 A  
HETATM   10  C   UNL     1      -7.980  11.899  67.091  1.00  0.00    -0.172 A  
HETATM   11  C   UNL     1      -7.607  11.000  68.102  1.00  0.00    -0.095 A  
HETATM   12  C   UNL     1      -7.028  11.414  69.315  1.00  0.00    -0.115 A  
HETATM   13  C   UNL     1      -7.140  13.689  68.412  1.00  0.00    -0.107 A  
HETATM   14  C   UNL     1      -6.700  12.777  69.390  1.00  0.00    -0.018 A  
BRANCH  12  15
HETATM   15  C   UNL     1      -6.803  10.439  70.436  1.00  0.00    -0.073 A  
HETATM   16  C   UNL     1      -5.602  10.591  71.189  1.00  0.00    -0.040 A  
HETATM   17  C   UNL     1      -5.187   9.685  72.166  1.00  0.00    -0.068 A  
HETATM   18  C   UNL     1      -5.986   8.599  72.471  1.00  0.00    -0.079 A  
HETATM   19  C   UNL     1      -7.193   8.436  71.796  1.00  0.00    -0.105 A  
HETATM   20  C   UNL     1      -7.623   9.328  70.777  1.00  0.00    -0.154 A  
BRANCH  20  21
HETATM   21  C   UNL     1      -8.896   8.964  70.159  1.00  0.00    -0.163 A  
HETATM   22  N   UNL     1     -10.039   9.660  70.345  1.00  0.00    -0.265 NA 
HETATM   23  N   UNL     1     -10.907   8.905  69.662  1.00  0.00    -0.215 NA 
HETATM   24  H   UNL     1     -10.196  10.523  70.863  1.00  0.00     0.000 HD 
HETATM   25  N   UNL     1     -10.393   7.828  69.055  1.00  0.00    -0.209 NA 
HETATM   26  N   UNL     1      -9.111   7.836  69.399  1.00  0.00    -0.146 NA 
ENDBRANCH  20  21
ENDBRANCH  12  15
ENDBRANCH   8   9
ENDBRANCH   6   8
BRANCH   6  27
HETATM   27  C   UNL     1     -11.106  14.175  66.761  1.00  0.00    -0.310 C  
HETATM   28  C   UNL     1     -11.582  13.083  67.772  1.00  0.00    -0.340 C  
HETATM   29  O   UNL     1     -12.772  12.926  68.041  1.00  0.00     0.449 OA 
HETATM   30  C   UNL     1     -11.384  13.771  65.280  1.00  0.00    -0.310 C  
HETATM   31  O   UNL     1     -10.669  12.237  68.277  1.00  0.00    -0.205 OA 
HETATM   32  C   UNL     1     -10.278  12.970  64.602  1.00  0.00    -0.324 C  
HETATM   33  C   UNL     1     -12.749  13.121  65.049  1.00  0.00    -0.456 C  
ENDBRANCH   6  27
ENDBRANCH   4   5
ENDBRANCH   3   4
ENDBRANCH   2   3
TORSDOF 8
ENDMDL
MODEL      299
REMARK 921   NORMALIZED FREE ENERGY PREDICTED BY IDOCK:   -3.11 KCAL/MOL
REMARK 922        TOTAL FREE ENERGY PREDICTED BY IDOCK:   -5.09 KCAL/MOL
REMARK 923 INTER-LIGAND FREE ENERGY PREDICTED BY IDOCK:   -5.32 KCAL/MOL
REMARK 924 INTRA-LIGAND FREE ENERGY PREDICTED BY IDOCK:    0.23 KCAL/MOL
REMARK 927      BINDING AFFINITY PREDICTED BY RF-SCORE:    0.00 PKD
ROOT
HETATM    1  C   UNL     1      -6.881  18.892  66.818  1.00  0.00    -0.210 C  
HETATM    2  C   UNL     1      -7.771  18.221  67.845  1.00  0.00    -0.249 C  
ENDROOT
BRANCH   2   3
HETATM    3  C   UNL     1      -7.309  16.803  68.188  1.00  0.00    -0.174 C  
BRANCH   3   4
HETATM    4  C   UNL     1      -7.316  15.952  66.918  1.00  0.00    -0.207 C  
BRANCH   4   5
HETATM    5  C   UNL     1      -8.682  15.435  66.522  1.00  0.00    -0.300 C  
HETATM    6  N   UNL     1      -9.207  14.340  67.207  1.00  0.00    -0.205 N  
HETATM    7  O   UNL     1      -9.306  15.968  65.600  1.00  0.00    -0.385 OA 
BRANCH   6   8
HETATM    8  C   UNL     1      -8.497  13.695  68.350  1.00  0.00    -0.147 C  
BRANCH   8   9
HETATM    9  C   UNL     1      -7.857  12.355  68.026  1.00  0.00    -0.141 A  
HETATM   10  C   UNL     1      -7.709  11.949  66.699  1.00  0.00     0.018 A  
HETATM   11  C   UNL     1      -7.425  10.609  66.394  1.00  0.00    -0.138 A  
HETATM   12  C   UNL     1      -7.188   9.636  67.381  1.00  0.00    -0.086 A  
HETATM   13  C   UNL     1      -7.455  11.447  69.009  1.00  0.00    -0.093 A  
HETATM   14  C   UNL     1      -7.098  10.123  68.694  1.00  0.00    -0.074 A  
BRANCH  12  15
HETATM   15  C   UNL     1      -7.058   8.184  67.018  1.00  0.00    -0.079 A  
HETATM   16  C   UNL     1      -6.060   7.848  66.056  1.00  0.00    -0.038 A  
HETATM   17  C   UNL     1      -5.911   6.570  65.517  1.00  0.00    -0.033 A  
HETATM   18  C   UNL     1      -6.730   5.546  65.956  1.00  0.00    -0.056 A  
HETATM   19  C   UNL     1      -7.686   5.815  66.931  1.00  0.00    -0.101 A  
HETATM   20  C   UNL     1      -7.878   7.114  67.473  1.00  0.00    -0.112 A  
BRANCH  20  21
HETATM   21  C   UNL     1      -8.957   7.202  68.455  1.00  0.00    -0.125 A  
HETATM   22  N   UNL     1      -8.777   7.002  69.778  1.00  0.00    -0.141 NA 
HETATM   23  N   UNL     1     -10.035   7.107  70.222  1.00  0.00    -0.186 NA 
HETATM   24  H   UNL     1      -7.918   6.820  70.297  1.00  0.00     0.000 HD 
HETATM   25  N   UNL     1     -10.960   7.379  69.293  1.00  0.00    -0.132 NA 
HETATM   26  N   UNL     1     -10.284   7.405  68.151  1.00  0.00    -0.180 NA 
ENDBRANCH  20  21
ENDBRANCH  12  15
ENDBRANCH   8   9
ENDBRANCH   6   8
BRANCH   6  27
HETATM   27  C   UNL     1     -10.637  13.918  66.968  1.00  0.00    -0.279 C  
HETATM   28  C   UNL     1     -11.331  12.862  67.886  1.00  0.00    -0.294 C  
HETATM   29  O   UNL     1     -12.531  12.924  68.150  1.00  0.00     0.071 OA 
HETATM   30  C   UNL     1     -10.977  13.705  65.459  1.00  0.00    -0.297 C  
HETATM   31  O   UNL     1     -10.611  11.810  68.310  1.00  0.00    -0.195 OA 
HETATM   32  C   UNL     1     -10.048  12.760  64.707  1.00  0.00    -0.240 C  
HETATM   33  C   UNL     1     -12.443  13.364  65.185  1.00  0.00    -0.509 C  
ENDBRANCH   6  27
ENDBRANCH   4   5
ENDBRANCH   3   4
ENDBRANCH   2   3
TORSDOF 8
ENDMDL
MODEL      300
REMARK 921   NORMALIZED FREE ENERGY PREDICTED BY IDOCK:   -3.11 KCAL/MOL
REMARK 922        TOTAL FREE ENERGY PREDICTED BY IDOCK:   -5.08 KCAL/MOL
REMARK 923 INTER-LIGAND FREE ENERGY PREDICTED BY IDOCK:   -6.02 KCAL/MOL
REMARK 924 INTRA-LIGAND FREE ENERGY PREDICTED BY IDOCK:    0.94 KCAL/MOL
REMARK 927      BINDING AFFINITY PREDICTED BY RF-SCORE:    0.00 PKD
ROOT
HETATM    1  C   UNL     1     -12.945  12.088  63.576  1.00  0.00    -0.329 C  
HETATM    2  C   UNL     1     -11.948  13.212  63.381  1.00  0.00    -0.552 C  
ENDROOT
BRANCH   2   3
HETATM    3  C   UNL     1     -11.530  13.863  64.702  1.00  0.00    -0.386 C  
BRANCH   3   4
HETATM    4  C   UNL     1     -10.004  13.942  64.762  1.00  0.00    -0.105 C  
BRANCH   4   5
HETATM    5  C   UNL     1      -9.467  14.715  65.946  1.00  0.00    -0.203 C  
HETATM    6  N   UNL     1      -8.764  14.025  66.933  1.00  0.00    -0.202 N  
HETATM    7  O   UNL     1      -9.664  15.930  66.039  1.00  0.00    -0.293 OA 
BRANCH   6   8
HETATM    8  C   UNL     1      -8.474  12.564  66.835  1.00  0.00    -0.130 C  
BRANCH   8   9
HETATM    9  C   UNL     1      -9.226  11.699  67.833  1.00  0.00    -0.171 A  
HETATM   10  C   UNL     1      -8.664  11.410  69.077  1.00  0.00     0.079 A  
HETATM   11  C   UNL     1      -9.182  10.373  69.867  1.00  0.00     0.097 A  
HETATM   12  C   UNL     1     -10.326   9.639  69.507  1.00  0.00    -0.235 A  
HETATM   13  C   UNL     1     -10.456  11.101  67.546  1.00  0.00    -0.239 A  
HETATM   14  C   UNL     1     -11.013  10.114  68.379  1.00  0.00    -0.293 A  
BRANCH  12  15
HETATM   15  C   UNL     1     -10.747   8.429  70.292  1.00  0.00    -0.240 A  
HETATM   16  C   UNL     1     -12.103   8.385  70.729  1.00  0.00    -0.064 A  
HETATM   17  C   UNL     1     -12.605   7.400  71.580  1.00  0.00    -0.401 A  
HETATM   18  C   UNL     1     -11.777   6.375  71.999  1.00  0.00    -0.376 A  
HETATM   19  C   UNL     1     -10.457   6.349  71.557  1.00  0.00    -0.256 A  
HETATM   20  C   UNL     1      -9.914   7.356  70.716  1.00  0.00    -0.182 A  
BRANCH  20  21
HETATM   21  C   UNL     1      -8.500   7.173  70.396  1.00  0.00    -0.140 A  
HETATM   22  N   UNL     1      -8.064   6.592  69.258  1.00  0.00    -0.115 NA 
HETATM   23  N   UNL     1      -6.743   6.586  69.468  1.00  0.00    -0.051 NA 
HETATM   24  H   UNL     1      -8.596   6.251  68.457  1.00  0.00     0.000 HD 
HETATM   25  N   UNL     1      -6.333   7.135  70.619  1.00  0.00    -0.038 NA 
HETATM   26  N   UNL     1      -7.455   7.481  71.237  1.00  0.00    -0.078 NA 
ENDBRANCH  20  21
ENDBRANCH  12  15
ENDBRANCH   8   9
ENDBRANCH   6   8
BRANCH   6  27
HETATM   27  C   UNL     1      -8.055  14.788  68.026  1.00  0.00    -0.139 C  
HETATM   28  C   UNL     1      -7.682  16.294  67.847  1.00  0.00    -0.141 C  
HETATM   29  O   UNL     1      -7.693  17.080  68.793  1.00  0.00    -0.234 OA 
HETATM   30  C   UNL     1      -6.913  13.973  68.710  1.00  0.00    -0.106 C  
HETATM   31  O   UNL     1      -7.245  16.708  66.646  1.00  0.00    -0.219 OA 
HETATM   32  C   UNL     1      -5.875  13.380  67.765  1.00  0.00    -0.128 C  
HETATM   33  C   UNL     1      -6.239  14.693  69.880  1.00  0.00    -0.150 C  
ENDBRANCH   6  27
ENDBRANCH   4   5
ENDBRANCH   3   4
ENDBRANCH   2   3
TORSDOF 8
ENDMDL
MODEL      301
REMARK 921   NORMALIZED FREE ENERGY PREDICTED BY IDOCK:   -3.05 KCAL/MOL
REMARK 922        TOTAL FREE ENERGY PREDICTED BY IDOCK:   -5.01 KCAL/MOL
REMARK 923 INTER-LIGAND FREE ENERGY PREDICTED BY IDOCK:   -5.49 KCAL/MOL
REMARK 924 INTRA-LIGAND FREE ENERGY PREDICTED BY IDOCK:    0.49 KCAL/MOL
REMARK 927      BINDING AFFINITY PREDICTED BY RF-SCORE:    0.00 PKD
ROOT
HETATM    1  C   UNL     1      -5.492  15.908  70.188  1.00  0.00    -0.154 C  
HETATM    2  C   UNL     1      -6.312  15.415  69.013  1.00  0.00    -0.110 C  
ENDROOT
BRANCH   2   3
HETATM    3  C   UNL     1      -5.801  14.084  68.457  1.00  0.00    -0.093 C  
BRANCH   3   4
HETATM    4  C   UNL     1      -6.690  12.951  68.969  1.00  0.00    -0.095 C  
BRANCH   4   5
HETATM    5  C   UNL     1      -8.139  13.055  68.543  1.00  0.00    -0.082 C  
HETATM    6  N   UNL     1      -8.687  12.026  67.779  1.00  0.00    -0.154 N  
HETATM    7  O   UNL     1      -8.810  14.042  68.855  1.00  0.00    -0.082 OA 
BRANCH   6   8
HETATM    8  C   UNL     1      -7.916  10.801  67.415  1.00  0.00    -0.112 C  
BRANCH   8   9
HETATM    9  C   UNL     1      -7.551   9.908  68.589  1.00  0.00    -0.080 A  
HETATM   10  C   UNL     1      -6.939   8.673  68.369  1.00  0.00    -0.066 A  
HETATM   11  C   UNL     1      -6.890   7.713  69.391  1.00  0.00    -0.048 A  
HETATM   12  C   UNL     1      -7.359   7.961  70.693  1.00  0.00    -0.061 A  
HETATM   13  C   UNL     1      -7.860  10.228  69.914  1.00  0.00    -0.119 A  
HETATM   14  C   UNL     1      -7.739   9.287  70.952  1.00  0.00    -0.134 A  
BRANCH  12  15
HETATM   15  C   UNL     1      -7.444   6.855  71.707  1.00  0.00    -0.089 A  
HETATM   16  C   UNL     1      -6.213   6.383  72.250  1.00  0.00    -0.049 A  
HETATM   17  C   UNL     1      -6.119   5.275  73.092  1.00  0.00    -0.042 A  
HETATM   18  C   UNL     1      -7.269   4.610  73.475  1.00  0.00    -0.080 A  
HETATM   19  C   UNL     1      -8.500   5.066  73.010  1.00  0.00    -0.111 A  
HETATM   20  C   UNL     1      -8.620   6.172  72.127  1.00  0.00    -0.127 A  
BRANCH  20  21
HETATM   21  C   UNL     1      -9.991   6.470  71.721  1.00  0.00    -0.176 A  
HETATM   22  N   UNL     1     -10.832   7.239  72.446  1.00  0.00    -0.240 NA 
HETATM   23  N   UNL     1     -11.951   7.143  71.720  1.00  0.00    -0.297 NA 
HETATM   24  H   UNL     1     -10.660   7.752  73.310  1.00  0.00     0.000 HD 
HETATM   25  N   UNL     1     -11.861   6.408  70.604  1.00  0.00    -0.327 NA 
HETATM   26  N   UNL     1     -10.619   5.941  70.615  1.00  0.00    -0.251 NA 
ENDBRANCH  20  21
ENDBRANCH  12  15
ENDBRANCH   8   9
ENDBRANCH   6   8
BRANCH   6  27
HETATM   27  C   UNL     1     -10.171  12.005  67.498  1.00  0.00    -0.198 C  
HETATM   28  C   UNL     1     -11.098  10.925  68.138  1.00  0.00    -0.280 C  
HETATM   29  O   UNL     1     -12.259  11.176  68.458  1.00  0.00    -0.600 OA 
HETATM   30  C   UNL     1     -10.521  12.275  66.001  1.00  0.00    -0.284 C  
HETATM   31  O   UNL     1     -10.638   9.667  68.245  1.00  0.00    -0.212 OA 
HETATM   32  C   UNL     1      -9.811  11.379  64.992  1.00  0.00    -0.304 C  
HETATM   33  C   UNL     1     -12.021  12.347  65.708  1.00  0.00    -0.437 C  
ENDBRANCH   6  27
ENDBRANCH   4   5
ENDBRANCH   3   4
ENDBRANCH   2   3
TORSDOF 8
ENDMDL
MODEL      302
REMARK 921   NORMALIZED FREE ENERGY PREDICTED BY IDOCK:   -2.99 KCAL/MOL
REMARK 922        TOTAL FREE ENERGY PREDICTED BY IDOCK:   -4.92 KCAL/MOL
REMARK 923 INTER-LIGAND FREE ENERGY PREDICTED BY IDOCK:   -5.30 KCAL/MOL
REMARK 924 INTRA-LIGAND FREE ENERGY PREDICTED BY IDOCK:    0.38 KCAL/MOL
REMARK 927      BINDING AFFINITY PREDICTED BY RF-SCORE:    0.00 PKD
ROOT
HETATM    1  C   UNL     1     -12.566  11.806  71.329  1.00  0.00    -0.401 C  
HETATM    2  C   UNL     1     -11.672  10.689  70.831  1.00  0.00    -0.387 C  
ENDROOT
BRANCH   2   3
HETATM    3  C   UNL     1     -11.124  10.956  69.427  1.00  0.00    -0.317 C  
BRANCH   3   4
HETATM    4  C   UNL     1     -10.413  12.310  69.415  1.00  0.00     0.279 C  
BRANCH   4   5
HETATM    5  C   UNL     1     -10.879  13.249  68.323  1.00  0.00    -0.256 C  
HETATM    6  N   UNL     1     -10.036  13.484  67.238  1.00  0.00    -0.233 N  
HETATM    7  O   UNL     1     -11.979  13.804  68.407  1.00  0.00    -0.355 OA 
BRANCH   6   8
HETATM    8  C   UNL     1      -8.717  12.802  67.087  1.00  0.00    -0.202 C  
BRANCH   8   9
HETATM    9  C   UNL     1      -8.800  11.302  66.858  1.00  0.00    -0.165 A  
HETATM   10  C   UNL     1      -9.805  10.769  66.051  1.00  0.00    -0.285 A  
HETATM   11  C   UNL     1     -10.092   9.395  66.086  1.00  0.00    -0.324 A  
HETATM   12  C   UNL     1      -9.343   8.481  66.848  1.00  0.00    -0.219 A  
HETATM   13  C   UNL     1      -7.944  10.389  67.480  1.00  0.00    -0.106 A  
HETATM   14  C   UNL     1      -8.190   9.004  67.452  1.00  0.00    -0.108 A  
BRANCH  12  15
HETATM   15  C   UNL     1      -9.787   7.052  66.993  1.00  0.00    -0.239 A  
HETATM   16  C   UNL     1     -10.572   6.735  68.140  1.00  0.00    -0.279 A  
HETATM   17  C   UNL     1     -10.941   5.434  68.484  1.00  0.00     0.232 A  
HETATM   18  C   UNL     1     -10.579   4.384  67.662  1.00  0.00     0.657 A  
HETATM   19  C   UNL     1      -9.853   4.650  66.503  1.00  0.00    -0.241 A  
HETATM   20  C   UNL     1      -9.440   5.962  66.147  1.00  0.00    -0.131 A  
BRANCH  20  21
HETATM   21  C   UNL     1      -8.654   6.030  64.917  1.00  0.00    -0.002 A  
HETATM   22  N   UNL     1      -8.751   5.125  63.921  1.00  0.00    -0.292 NA 
HETATM   23  N   UNL     1      -7.803   5.565  63.087  1.00  0.00    -0.084 NA 
HETATM   24  H   UNL     1      -9.376   4.324  63.829  1.00  0.00     0.000 HD 
HETATM   25  N   UNL     1      -7.155   6.672  63.472  1.00  0.00    -0.052 NA 
HETATM   26  N   UNL     1      -7.668   6.957  64.662  1.00  0.00    -0.110 NA 
ENDBRANCH  20  21
ENDBRANCH  12  15
ENDBRANCH   8   9
ENDBRANCH   6   8
BRANCH   6  27
HETATM   27  C   UNL     1     -10.542  14.260  66.046  1.00  0.00    -0.300 C  
HETATM   28  C   UNL     1     -10.738  15.808  66.116  1.00  0.00    -0.290 C  
HETATM   29  O   UNL     1     -10.545  16.529  65.138  1.00  0.00    -0.632 OA 
HETATM   30  C   UNL     1     -11.710  13.549  65.294  1.00  0.00    -0.341 C  
HETATM   31  O   UNL     1     -11.227  16.341  67.247  1.00  0.00    -0.128 OA 
HETATM   32  C   UNL     1     -12.895  13.142  66.162  1.00  0.00     0.348 C  
HETATM   33  C   UNL     1     -12.181  14.273  64.031  1.00  0.00    -0.336 C  
ENDBRANCH   6  27
ENDBRANCH   4   5
ENDBRANCH   3   4
ENDBRANCH   2   3
TORSDOF 8
ENDMDL
MODEL      303
REMARK 921   NORMALIZED FREE ENERGY PREDICTED BY IDOCK:   -2.97 KCAL/MOL
REMARK 922        TOTAL FREE ENERGY PREDICTED BY IDOCK:   -4.88 KCAL/MOL
REMARK 923 INTER-LIGAND FREE ENERGY PREDICTED BY IDOCK:   -6.42 KCAL/MOL
REMARK 924 INTRA-LIGAND FREE ENERGY PREDICTED BY IDOCK:    1.54 KCAL/MOL
REMARK 927      BINDING AFFINITY PREDICTED BY RF-SCORE:    0.00 PKD
ROOT
HETATM    1  C   UNL     1     -13.009  10.804  70.463  1.00  0.00    -0.258 C  
HETATM    2  C   UNL     1     -11.559  11.119  70.157  1.00  0.00    -0.410 C  
ENDROOT
BRANCH   2   3
HETATM    3  C   UNL     1     -11.369  11.727  68.766  1.00  0.00    -0.325 C  
BRANCH   3   4
HETATM    4  C   UNL     1      -9.907  12.141  68.594  1.00  0.00    -0.110 C  
BRANCH   4   5
HETATM    5  C   UNL     1      -9.309  11.772  67.254  1.00  0.00    -0.171 C  
HETATM    6  N   UNL     1      -9.786  10.639  66.597  1.00  0.00    -0.194 N  
HETATM    7  O   UNL     1      -8.406  12.458  66.765  1.00  0.00    -0.155 OA 
BRANCH   6   8
HETATM    8  C   UNL     1     -10.901   9.809  67.140  1.00  0.00    -0.136 C  
BRANCH   8   9
HETATM    9  C   UNL     1     -10.461   8.542  67.854  1.00  0.00    -0.262 A  
HETATM   10  C   UNL     1     -11.084   7.326  67.575  1.00  0.00    -0.110 A  
HETATM   11  C   UNL     1     -10.921   6.229  68.435  1.00  0.00    -0.409 A  
HETATM   12  C   UNL     1     -10.069   6.260  69.554  1.00  0.00    -0.217 A  
HETATM   13  C   UNL     1      -9.485   8.533  68.854  1.00  0.00    -0.147 A  
HETATM   14  C   UNL     1      -9.269   7.407  69.669  1.00  0.00    -0.146 A  
BRANCH  12  15
HETATM   15  C   UNL     1     -10.054   5.128  70.544  1.00  0.00    -0.326 A  
HETATM   16  C   UNL     1     -10.517   5.419  71.860  1.00  0.00    -0.283 A  
HETATM   17  C   UNL     1     -10.436   4.516  72.921  1.00  0.00    -0.254 A  
HETATM   18  C   UNL     1      -9.926   3.250  72.700  1.00  0.00    -0.221 A  
HETATM   19  C   UNL     1      -9.507   2.904  71.418  1.00  0.00    -0.216 A  
HETATM   20  C   UNL     1      -9.552   3.815  70.329  1.00  0.00    -0.257 A  
BRANCH  20  21
HETATM   21  C   UNL     1      -9.030   3.277  69.074  1.00  0.00    -0.129 A  
HETATM   22  N   UNL     1      -9.498   2.150  68.496  1.00  0.00    -0.186 NA 
HETATM   23  N   UNL     1      -8.670   2.039  67.452  1.00  0.00    -0.104 NA 
HETATM   24  H   UNL     1     -10.271   1.548  68.779  1.00  0.00     0.000 HD 
HETATM   25  N   UNL     1      -7.757   3.011  67.326  1.00  0.00    -0.073 NA 
HETATM   26  N   UNL     1      -7.956   3.790  68.383  1.00  0.00    -0.071 NA 
ENDBRANCH  20  21
ENDBRANCH  12  15
ENDBRANCH   8   9
ENDBRANCH   6   8
BRANCH   6  27
HETATM   27  C   UNL     1      -9.349  10.350  65.181  1.00  0.00    -0.222 C  
HETATM   28  C   UNL     1      -7.855  10.041  64.845  1.00  0.00    -0.141 C  
HETATM   29  O   UNL     1      -7.542   9.254  63.953  1.00  0.00    -0.106 OA 
HETATM   30  C   UNL     1     -10.012  11.287  64.124  1.00  0.00    -0.350 C  
HETATM   31  O   UNL     1      -6.899  10.735  65.484  1.00  0.00    -0.094 OA 
HETATM   32  C   UNL     1      -9.869  12.781  64.393  1.00  0.00    -0.052 C  
HETATM   33  C   UNL     1      -9.653  10.957  62.674  1.00  0.00    -0.290 C  
ENDBRANCH   6  27
ENDBRANCH   4   5
ENDBRANCH   3   4
ENDBRANCH   2   3
TORSDOF 8
ENDMDL
MODEL      304
REMARK 921   NORMALIZED FREE ENERGY PREDICTED BY IDOCK:   -2.96 KCAL/MOL
REMARK 922        TOTAL FREE ENERGY PREDICTED BY IDOCK:   -4.87 KCAL/MOL
REMARK 923 INTER-LIGAND FREE ENERGY PREDICTED BY IDOCK:   -5.48 KCAL/MOL
REMARK 924 INTRA-LIGAND FREE ENERGY PREDICTED BY IDOCK:    0.62 KCAL/MOL
REMARK 927      BINDING AFFINITY PREDICTED BY RF-SCORE:    0.00 PKD
ROOT
HETATM    1  C   UNL     1      -6.159   7.521  68.857  1.00  0.00    -0.031 C  
HETATM    2  C   UNL     1      -6.902   6.351  68.246  1.00  0.00    -0.071 C  
ENDROOT
BRANCH   2   3
HETATM    3  C   UNL     1      -7.728   6.752  67.022  1.00  0.00    -0.100 C  
BRANCH   3   4
HETATM    4  C   UNL     1      -7.779   8.277  66.929  1.00  0.00    -0.095 C  
BRANCH   4   5
HETATM    5  C   UNL     1      -8.967   8.905  67.624  1.00  0.00    -0.134 C  
HETATM    6  N   UNL     1      -8.820  10.171  68.189  1.00  0.00    -0.125 N  
HETATM    7  O   UNL     1     -10.038   8.294  67.700  1.00  0.00    -0.180 OA 
BRANCH   6   8
HETATM    8  C   UNL     1      -7.553  10.952  68.084  1.00  0.00    -0.094 C  
BRANCH   8   9
HETATM    9  C   UNL     1      -7.742  12.435  67.814  1.00  0.00    -0.139 A  
HETATM   10  C   UNL     1      -7.382  13.377  68.779  1.00  0.00    -0.076 A  
HETATM   11  C   UNL     1      -7.837  14.701  68.685  1.00  0.00    -0.138 A  
HETATM   12  C   UNL     1      -8.590  15.172  67.594  1.00  0.00    -0.180 A  
HETATM   13  C   UNL     1      -8.336  12.927  66.648  1.00  0.00     0.130 A  
HETATM   14  C   UNL     1      -8.725  14.273  66.525  1.00  0.00    -0.011 A  
BRANCH  12  15
HETATM   15  C   UNL     1      -9.201  16.545  67.613  1.00  0.00    -0.200 A  
HETATM   16  C   UNL     1      -8.614  17.522  66.757  1.00  0.00    -0.276 A  
HETATM   17  C   UNL     1      -8.979  18.869  66.765  1.00  0.00    -0.320 A  
HETATM   18  C   UNL     1      -9.992  19.296  67.602  1.00  0.00    -0.453 A  
HETATM   19  C   UNL     1     -10.630  18.367  68.421  1.00  0.00    -0.166 A  
HETATM   20  C   UNL     1     -10.256  16.996  68.453  1.00  0.00    -0.331 A  
BRANCH  20  21
HETATM   21  C   UNL     1     -11.016  16.190  69.406  1.00  0.00    -0.333 A  
HETATM   22  N   UNL     1     -12.365  16.186  69.469  1.00  0.00    -0.394 NA 
HETATM   23  N   UNL     1     -12.566  15.383  70.519  1.00  0.00    -0.419 NA 
HETATM   24  H   UNL     1     -13.044  16.666  68.878  1.00  0.00     0.000 HD 
HETATM   25  N   UNL     1     -11.464  14.874  71.085  1.00  0.00    -0.296 NA 
HETATM   26  N   UNL     1     -10.463  15.416  70.401  1.00  0.00    -0.261 NA 
ENDBRANCH  20  21
ENDBRANCH  12  15
ENDBRANCH   8   9
ENDBRANCH   6   8
BRANCH   6  27
HETATM   27  C   UNL     1     -10.030  10.902  68.722  1.00  0.00    -0.195 C  
HETATM   28  C   UNL     1     -10.862  10.326  69.911  1.00  0.00    -0.302 C  
HETATM   29  O   UNL     1     -11.399  11.059  70.740  1.00  0.00    -0.108 OA 
HETATM   30  C   UNL     1     -10.935  11.500  67.600  1.00  0.00    -0.296 C  
HETATM   31  O   UNL     1     -11.072   9.000  69.963  1.00  0.00    -0.239 OA 
HETATM   32  C   UNL     1     -11.383  10.515  66.527  1.00  0.00     0.426 C  
HETATM   33  C   UNL     1     -12.119  12.321  68.116  1.00  0.00    -0.076 C  
ENDBRANCH   6  27
ENDBRANCH   4   5
ENDBRANCH   3   4
ENDBRANCH   2   3
TORSDOF 8
ENDMDL
MODEL      305
REMARK 921   NORMALIZED FREE ENERGY PREDICTED BY IDOCK:   -2.94 KCAL/MOL
REMARK 922        TOTAL FREE ENERGY PREDICTED BY IDOCK:   -4.84 KCAL/MOL
REMARK 923 INTER-LIGAND FREE ENERGY PREDICTED BY IDOCK:   -4.96 KCAL/MOL
REMARK 924 INTRA-LIGAND FREE ENERGY PREDICTED BY IDOCK:    0.11 KCAL/MOL
REMARK 927      BINDING AFFINITY PREDICTED BY RF-SCORE:    0.00 PKD
ROOT
HETATM    1  C   UNL     1      -8.909  18.149  66.636  1.00  0.00    -0.287 C  
HETATM    2  C   UNL     1      -8.786  16.834  67.378  1.00  0.00    -0.202 C  
ENDROOT
BRANCH   2   3
HETATM    3  C   UNL     1      -9.027  15.623  66.473  1.00  0.00    -0.343 C  
BRANCH   3   4
HETATM    4  C   UNL     1      -8.909  14.345  67.303  1.00  0.00    -0.225 C  
BRANCH   4   5
HETATM    5  C   UNL     1      -9.366  13.092  66.587  1.00  0.00    -0.239 C  
HETATM    6  N   UNL     1      -8.499  12.002  66.525  1.00  0.00    -0.121 N  
HETATM    7  O   UNL     1     -10.480  13.050  66.056  1.00  0.00    -0.270 OA 
BRANCH   6   8
HETATM    8  C   UNL     1      -7.162  12.005  67.187  1.00  0.00    -0.131 C  
BRANCH   8   9
HETATM    9  C   UNL     1      -7.006  10.991  68.308  1.00  0.00    -0.069 A  
HETATM   10  C   UNL     1      -5.973  10.053  68.268  1.00  0.00    -0.042 A  
HETATM   11  C   UNL     1      -6.003   8.927  69.106  1.00  0.00    -0.042 A  
HETATM   12  C   UNL     1      -7.002   8.726  70.075  1.00  0.00    -0.043 A  
HETATM   13  C   UNL     1      -7.902  10.893  69.376  1.00  0.00    -0.048 A  
HETATM   14  C   UNL     1      -7.884   9.801  70.262  1.00  0.00    -0.190 A  
BRANCH  12  15
HETATM   15  C   UNL     1      -7.094   7.430  70.831  1.00  0.00    -0.063 A  
HETATM   16  C   UNL     1      -6.714   7.458  72.205  1.00  0.00    -0.058 A  
HETATM   17  C   UNL     1      -6.614   6.314  72.998  1.00  0.00    -0.069 A  
HETATM   18  C   UNL     1      -6.939   5.082  72.462  1.00  0.00    -0.076 A  
HETATM   19  C   UNL     1      -7.363   5.012  71.138  1.00  0.00    -0.073 A  
HETATM   20  C   UNL     1      -7.444   6.157  70.301  1.00  0.00    -0.090 A  
BRANCH  20  21
HETATM   21  C   UNL     1      -7.872   5.871  68.933  1.00  0.00    -0.095 A  
HETATM   22  N   UNL     1      -7.033   5.877  67.875  1.00  0.00    -0.064 NA 
HETATM   23  N   UNL     1      -7.889   5.648  66.873  1.00  0.00    -0.101 NA 
HETATM   24  H   UNL     1      -6.023   6.018  67.847  1.00  0.00     0.000 HD 
HETATM   25  N   UNL     1      -9.169   5.476  67.228  1.00  0.00    -0.110 NA 
HETATM   26  N   UNL     1      -9.174   5.654  68.543  1.00  0.00    -0.120 NA 
ENDBRANCH  20  21
ENDBRANCH  12  15
ENDBRANCH   8   9
ENDBRANCH   6   8
BRANCH   6  27
HETATM   27  C   UNL     1      -8.991  10.680  65.987  1.00  0.00    -0.172 C  
HETATM   28  C   UNL     1      -9.441  10.531  64.499  1.00  0.00    -0.276 C  
HETATM   29  O   UNL     1      -9.260   9.490  63.869  1.00  0.00    -0.213 OA 
HETATM   30  C   UNL     1      -9.938   9.924  66.970  1.00  0.00    -0.254 C  
HETATM   31  O   UNL     1     -10.131  11.537  63.935  1.00  0.00    -0.282 OA 
HETATM   32  C   UNL     1     -11.130  10.728  67.477  1.00  0.00    -0.374 C  
HETATM   33  C   UNL     1     -10.378   8.542  66.485  1.00  0.00    -0.215 C  
ENDBRANCH   6  27
ENDBRANCH   4   5
ENDBRANCH   3   4
ENDBRANCH   2   3
TORSDOF 8
ENDMDL
MODEL      306
REMARK 921   NORMALIZED FREE ENERGY PREDICTED BY IDOCK:   -2.93 KCAL/MOL
REMARK 922        TOTAL FREE ENERGY PREDICTED BY IDOCK:   -4.83 KCAL/MOL
REMARK 923 INTER-LIGAND FREE ENERGY PREDICTED BY IDOCK:   -6.05 KCAL/MOL
REMARK 924 INTRA-LIGAND FREE ENERGY PREDICTED BY IDOCK:    1.23 KCAL/MOL
REMARK 927      BINDING AFFINITY PREDICTED BY RF-SCORE:    0.00 PKD
ROOT
HETATM    1  C   UNL     1     -12.923  11.554  71.748  1.00  0.00    -0.500 C  
HETATM    2  C   UNL     1     -12.111  10.346  71.327  1.00  0.00    -0.461 C  
ENDROOT
BRANCH   2   3
HETATM    3  C   UNL     1     -11.465  10.523  69.951  1.00  0.00    -0.384 C  
BRANCH   3   4
HETATM    4  C   UNL     1     -10.717  11.856  69.915  1.00  0.00     0.565 C  
BRANCH   4   5
HETATM    5  C   UNL     1     -10.750  12.553  68.572  1.00  0.00    -0.239 C  
HETATM    6  N   UNL     1      -9.554  12.724  67.877  1.00  0.00    -0.205 N  
HETATM    7  O   UNL     1     -11.817  12.974  68.115  1.00  0.00    -0.334 OA 
BRANCH   6   8
HETATM    8  C   UNL     1      -8.253  12.195  68.381  1.00  0.00    -0.145 C  
BRANCH   8   9
HETATM    9  C   UNL     1      -8.208  10.688  68.567  1.00  0.00    -0.128 A  
HETATM   10  C   UNL     1      -8.823   9.847  67.639  1.00  0.00    -0.126 A  
HETATM   11  C   UNL     1      -9.069   8.501  67.953  1.00  0.00    -0.145 A  
HETATM   12  C   UNL     1      -8.642   7.909  69.155  1.00  0.00    -0.138 A  
HETATM   13  C   UNL     1      -7.629  10.076  69.682  1.00  0.00    -0.147 A  
HETATM   14  C   UNL     1      -7.814   8.709  69.958  1.00  0.00    -0.103 A  
BRANCH  12  15
HETATM   15  C   UNL     1      -9.073   6.518  69.526  1.00  0.00    -0.140 A  
HETATM   16  C   UNL     1      -9.191   6.231  70.918  1.00  0.00    -0.163 A  
HETATM   17  C   UNL     1      -9.446   4.955  71.421  1.00  0.00    -0.212 A  
HETATM   18  C   UNL     1      -9.646   3.905  70.544  1.00  0.00    -0.263 A  
HETATM   19  C   UNL     1      -9.590   4.147  69.174  1.00  0.00    -0.243 A  
HETATM   20  C   UNL     1      -9.302   5.431  68.638  1.00  0.00    -0.147 A  
BRANCH  20  21
HETATM   21  C   UNL     1      -9.248   5.473  67.178  1.00  0.00    -0.111 A  
HETATM   22  N   UNL     1      -9.978   4.663  66.382  1.00  0.00    -0.223 NA 
HETATM   23  N   UNL     1      -9.527   5.022  65.175  1.00  0.00    -0.067 NA 
HETATM   24  H   UNL     1     -10.681   3.969  66.633  1.00  0.00     0.000 HD 
HETATM   25  N   UNL     1      -8.607   5.996  65.162  1.00  0.00    -0.114 NA 
HETATM   26  N   UNL     1      -8.394   6.266  66.444  1.00  0.00    -0.114 NA 
ENDBRANCH  20  21
ENDBRANCH  12  15
ENDBRANCH   8   9
ENDBRANCH   6   8
BRANCH   6  27
HETATM   27  C   UNL     1      -9.575  13.242  66.459  1.00  0.00    -0.264 C  
HETATM   28  C   UNL     1     -10.143  14.658  66.125  1.00  0.00    -0.300 C  
HETATM   29  O   UNL     1      -9.671  15.348  65.223  1.00  0.00    -0.264 OA 
HETATM   30  C   UNL     1     -10.011  12.168  65.413  1.00  0.00    -0.269 C  
HETATM   31  O   UNL     1     -11.237  15.080  66.780  1.00  0.00    -0.339 OA 
HETATM   32  C   UNL     1     -11.334  11.469  65.707  1.00  0.00    -0.160 C  
HETATM   33  C   UNL     1      -9.956  12.644  63.960  1.00  0.00    -0.172 C  
ENDBRANCH   6  27
ENDBRANCH   4   5
ENDBRANCH   3   4
ENDBRANCH   2   3
TORSDOF 8
ENDMDL
MODEL      307
REMARK 921   NORMALIZED FREE ENERGY PREDICTED BY IDOCK:   -2.89 KCAL/MOL
REMARK 922        TOTAL FREE ENERGY PREDICTED BY IDOCK:   -4.76 KCAL/MOL
REMARK 923 INTER-LIGAND FREE ENERGY PREDICTED BY IDOCK:   -6.53 KCAL/MOL
REMARK 924 INTRA-LIGAND FREE ENERGY PREDICTED BY IDOCK:    1.77 KCAL/MOL
REMARK 927      BINDING AFFINITY PREDICTED BY RF-SCORE:    0.00 PKD
ROOT
HETATM    1  C   UNL     1      -9.035   4.053  71.399  1.00  0.00    -0.160 C  
HETATM    2  C   UNL     1      -9.463   3.933  69.951  1.00  0.00    -0.267 C  
ENDROOT
BRANCH   2   3
HETATM    3  C   UNL     1     -10.040   5.238  69.397  1.00  0.00    -0.311 C  
BRANCH   3   4
HETATM    4  C   UNL     1      -8.891   6.150  68.963  1.00  0.00    -0.123 C  
BRANCH   4   5
HETATM    5  C   UNL     1      -8.003   5.563  67.887  1.00  0.00    -0.097 C  
HETATM    6  N   UNL     1      -8.403   5.673  66.557  1.00  0.00    -0.109 N  
HETATM    7  O   UNL     1      -6.955   4.986  68.191  1.00  0.00    -0.058 OA 
BRANCH   6   8
HETATM    8  C   UNL     1      -9.644   6.395  66.150  1.00  0.00     0.006 C  
BRANCH   8   9
HETATM    9  C   UNL     1      -9.762   7.810  66.692  1.00  0.00    -0.292 A  
HETATM   10  C   UNL     1     -10.776   8.135  67.593  1.00  0.00    -0.203 A  
HETATM   11  C   UNL     1     -11.095   9.477  67.850  1.00  0.00    -0.053 A  
HETATM   12  C   UNL     1     -10.373  10.551  67.299  1.00  0.00    -0.275 A  
HETATM   13  C   UNL     1      -8.931   8.855  66.277  1.00  0.00    -0.207 A  
HETATM   14  C   UNL     1      -9.210  10.196  66.598  1.00  0.00    -0.181 A  
BRANCH  12  15
HETATM   15  C   UNL     1     -10.851  11.967  67.460  1.00  0.00    -0.283 A  
HETATM   16  C   UNL     1     -10.699  12.554  68.751  1.00  0.00    -0.235 A  
HETATM   17  C   UNL     1     -11.217  13.803  69.092  1.00  0.00    -0.307 A  
HETATM   18  C   UNL     1     -11.875  14.553  68.136  1.00  0.00    -0.348 A  
HETATM   19  C   UNL     1     -12.005  14.042  66.847  1.00  0.00    -0.479 A  
HETATM   20  C   UNL     1     -11.513  12.760  66.482  1.00  0.00    -0.409 A  
BRANCH  20  21
HETATM   21  C   UNL     1     -11.782  12.386  65.095  1.00  0.00    -0.382 A  
HETATM   22  N   UNL     1     -13.018  12.116  64.623  1.00  0.00    -0.609 NA 
HETATM   23  N   UNL     1     -12.735  11.758  63.366  1.00  0.00    -0.557 NA 
HETATM   24  H   UNL     1     -13.920  12.170  65.096  1.00  0.00     0.000 HD 
HETATM   25  N   UNL     1     -11.442  11.811  63.021  1.00  0.00    -0.061 NA 
HETATM   26  N   UNL     1     -10.818  12.177  64.134  1.00  0.00    -0.327 NA 
ENDBRANCH  20  21
ENDBRANCH  12  15
ENDBRANCH   8   9
ENDBRANCH   6   8
BRANCH   6  27
HETATM   27  C   UNL     1      -7.457   5.269  65.451  1.00  0.00    -0.077 C  
HETATM   28  C   UNL     1      -5.911   5.417  65.618  1.00  0.00    -0.025 C  
HETATM   29  O   UNL     1      -5.126   4.618  65.109  1.00  0.00    -0.008 OA 
HETATM   30  C   UNL     1      -7.942   5.701  64.032  1.00  0.00    -0.121 C  
HETATM   31  O   UNL     1      -5.436   6.503  66.250  1.00  0.00    -0.013 OA 
HETATM   32  C   UNL     1      -8.285   7.178  63.879  1.00  0.00     0.080 C  
HETATM   33  C   UNL     1      -7.045   5.226  62.887  1.00  0.00    -0.038 C  
ENDBRANCH   6  27
ENDBRANCH   4   5
ENDBRANCH   3   4
ENDBRANCH   2   3
TORSDOF 8
ENDMDL
MODEL      308
REMARK 921   NORMALIZED FREE ENERGY PREDICTED BY IDOCK:   -2.85 KCAL/MOL
REMARK 922        TOTAL FREE ENERGY PREDICTED BY IDOCK:   -4.71 KCAL/MOL
REMARK 923 INTER-LIGAND FREE ENERGY PREDICTED BY IDOCK:   -6.07 KCAL/MOL
REMARK 924 INTRA-LIGAND FREE ENERGY PREDICTED BY IDOCK:    1.36 KCAL/MOL
REMARK 927      BINDING AFFINITY PREDICTED BY RF-SCORE:    0.00 PKD
ROOT
HETATM    1  C   UNL     1      -9.050   3.519  64.892  1.00  0.00    -0.137 C  
HETATM    2  C   UNL     1      -9.204   4.932  65.416  1.00  0.00    -0.157 C  
ENDROOT
BRANCH   2   3
HETATM    3  C   UNL     1     -10.490   5.123  66.224  1.00  0.00    -0.341 C  
BRANCH   3   4
HETATM    4  C   UNL     1     -10.268   6.216  67.270  1.00  0.00    -0.236 C  
BRANCH   4   5
HETATM    5  C   UNL     1      -9.667   5.724  68.568  1.00  0.00    -0.131 C  
HETATM    6  N   UNL     1      -8.716   6.517  69.209  1.00  0.00    -0.130 N  
HETATM    7  O   UNL     1     -10.004   4.632  69.036  1.00  0.00    -0.175 OA 
BRANCH   6   8
HETATM    8  C   UNL     1      -8.312   7.857  68.692  1.00  0.00    -0.128 C  
BRANCH   8   9
HETATM    9  C   UNL     1      -9.384   8.929  68.800  1.00  0.00    -0.137 A  
HETATM   10  C   UNL     1      -9.613   9.803  67.738  1.00  0.00    -0.157 A  
HETATM   11  C   UNL     1     -10.354  10.979  67.931  1.00  0.00    -0.213 A  
HETATM   12  C   UNL     1     -10.972  11.297  69.154  1.00  0.00    -0.292 A  
HETATM   13  C   UNL     1     -10.131   9.143  69.962  1.00  0.00    -0.230 A  
HETATM   14  C   UNL     1     -10.934  10.287  70.127  1.00  0.00    -0.377 A  
BRANCH  12  15
HETATM   15  C   UNL     1     -11.609  12.641  69.370  1.00  0.00    -0.369 A  
HETATM   16  C   UNL     1     -11.976  12.971  70.708  1.00  0.00    -0.129 A  
HETATM   17  C   UNL     1     -12.697  14.116  71.047  1.00  0.00    -0.433 A  
HETATM   18  C   UNL     1     -13.046  15.019  70.060  1.00  0.00     0.094 A  
HETATM   19  C   UNL     1     -12.664  14.764  68.745  1.00  0.00     0.576 A  
HETATM   20  C   UNL     1     -11.957  13.591  68.370  1.00  0.00    -0.378 A  
BRANCH  20  21
HETATM   21  C   UNL     1     -11.684  13.486  66.938  1.00  0.00    -0.384 A  
HETATM   22  N   UNL     1     -12.591  13.051  66.038  1.00  0.00    -0.417 NA 
HETATM   23  N   UNL     1     -11.859  13.059  64.919  1.00  0.00    -0.342 NA 
HETATM   24  H   UNL     1     -13.567  12.787  66.174  1.00  0.00     0.000 HD 
HETATM   25  N   UNL     1     -10.596  13.486  65.050  1.00  0.00    -0.350 NA 
HETATM   26  N   UNL     1     -10.463  13.727  66.349  1.00  0.00    -0.281 NA 
ENDBRANCH  20  21
ENDBRANCH  12  15
ENDBRANCH   8   9
ENDBRANCH   6   8
BRANCH   6  27
HETATM   27  C   UNL     1      -8.238   6.148  70.594  1.00  0.00    -0.121 C  
HETATM   28  C   UNL     1      -7.646   4.734  70.892  1.00  0.00    -0.069 C  
HETATM   29  O   UNL     1      -6.744   4.571  71.713  1.00  0.00    -0.028 OA 
HETATM   30  C   UNL     1      -9.187   6.644  71.729  1.00  0.00    -0.148 C  
HETATM   31  O   UNL     1      -8.211   3.666  70.306  1.00  0.00    -0.055 OA 
HETATM   32  C   UNL     1     -10.649   6.239  71.584  1.00  0.00    -0.271 C  
HETATM   33  C   UNL     1      -8.679   6.360  73.144  1.00  0.00    -0.125 C  
ENDBRANCH   6  27
ENDBRANCH   4   5
ENDBRANCH   3   4
ENDBRANCH   2   3
TORSDOF 8
ENDMDL
MODEL      309
REMARK 921   NORMALIZED FREE ENERGY PREDICTED BY IDOCK:   -2.85 KCAL/MOL
REMARK 922        TOTAL FREE ENERGY PREDICTED BY IDOCK:   -4.71 KCAL/MOL
REMARK 923 INTER-LIGAND FREE ENERGY PREDICTED BY IDOCK:   -5.17 KCAL/MOL
REMARK 924 INTRA-LIGAND FREE ENERGY PREDICTED BY IDOCK:    0.47 KCAL/MOL
REMARK 927      BINDING AFFINITY PREDICTED BY RF-SCORE:    0.00 PKD
ROOT
HETATM    1  C   UNL     1      -9.017   2.723  72.702  1.00  0.00    -0.111 C  
HETATM    2  C   UNL     1      -9.220   2.308  71.259  1.00  0.00    -0.185 C  
ENDROOT
BRANCH   2   3
HETATM    3  C   UNL     1      -9.487   3.500  70.337  1.00  0.00    -0.254 C  
BRANCH   3   4
HETATM    4  C   UNL     1      -8.221   3.810  69.538  1.00  0.00    -0.067 C  
BRANCH   4   5
HETATM    5  C   UNL     1      -8.319   3.484  68.063  1.00  0.00    -0.084 C  
HETATM    6  N   UNL     1      -9.116   4.289  67.251  1.00  0.00    -0.128 N  
HETATM    7  O   UNL     1      -7.715   2.512  67.599  1.00  0.00    -0.060 OA 
BRANCH   6   8
HETATM    8  C   UNL     1      -9.829   5.493  67.771  1.00  0.00    -0.138 C  
BRANCH   8   9
HETATM    9  C   UNL     1      -9.156   6.817  67.453  1.00  0.00    -0.117 A  
HETATM   10  C   UNL     1      -7.936   7.146  68.044  1.00  0.00    -0.119 A  
HETATM   11  C   UNL     1      -7.467   8.469  68.018  1.00  0.00    -0.097 A  
HETATM   12  C   UNL     1      -8.135   9.500  67.335  1.00  0.00    -0.110 A  
HETATM   13  C   UNL     1      -9.736   7.786  66.629  1.00  0.00    -0.292 A  
HETATM   14  C   UNL     1      -9.221   9.093  66.545  1.00  0.00    -0.221 A  
BRANCH  12  15
HETATM   15  C   UNL     1      -7.694  10.930  67.474  1.00  0.00    -0.109 A  
HETATM   16  C   UNL     1      -6.309  11.199  67.271  1.00  0.00    -0.074 A  
HETATM   17  C   UNL     1      -5.726  12.446  67.499  1.00  0.00    -0.138 A  
HETATM   18  C   UNL     1      -6.518  13.505  67.899  1.00  0.00    -0.155 A  
HETATM   19  C   UNL     1      -7.886  13.303  68.062  1.00  0.00    -0.148 A  
HETATM   20  C   UNL     1      -8.498  12.036  67.865  1.00  0.00    -0.160 A  
BRANCH  20  21
HETATM   21  C   UNL     1      -9.936  12.018  68.125  1.00  0.00    -0.203 A  
HETATM   22  N   UNL     1     -10.468  11.963  69.365  1.00  0.00    -0.427 NA 
HETATM   23  N   UNL     1     -11.772  11.886  69.077  1.00  0.00    -0.309 NA 
HETATM   24  H   UNL     1     -10.003  11.976  70.272  1.00  0.00     0.000 HD 
HETATM   25  N   UNL     1     -12.085  11.917  67.775  1.00  0.00    -0.527 NA 
HETATM   26  N   UNL     1     -10.912  11.964  67.155  1.00  0.00    -0.254 NA 
ENDBRANCH  20  21
ENDBRANCH  12  15
ENDBRANCH   8   9
ENDBRANCH   6   8
BRANCH   6  27
HETATM   27  C   UNL     1      -9.087   4.109  65.752  1.00  0.00    -0.136 C  
HETATM   28  C   UNL     1      -9.419   2.730  65.099  1.00  0.00    -0.062 C  
HETATM   29  O   UNL     1      -9.990   2.649  64.013  1.00  0.00    -0.147 OA 
HETATM   30  C   UNL     1      -7.875   4.812  65.067  1.00  0.00    -0.094 C  
HETATM   31  O   UNL     1      -8.976   1.613  65.701  1.00  0.00    -0.123 OA 
HETATM   32  C   UNL     1      -6.505   4.458  65.636  1.00  0.00    -0.040 C  
HETATM   33  C   UNL     1      -7.872   4.719  63.540  1.00  0.00    -0.081 C  
ENDBRANCH   6  27
ENDBRANCH   4   5
ENDBRANCH   3   4
ENDBRANCH   2   3
TORSDOF 8
ENDMDL
MODEL      310
REMARK 921   NORMALIZED FREE ENERGY PREDICTED BY IDOCK:   -2.77 KCAL/MOL
REMARK 922        TOTAL FREE ENERGY PREDICTED BY IDOCK:   -4.59 KCAL/MOL
REMARK 923 INTER-LIGAND FREE ENERGY PREDICTED BY IDOCK:   -5.82 KCAL/MOL
REMARK 924 INTRA-LIGAND FREE ENERGY PREDICTED BY IDOCK:    1.23 KCAL/MOL
REMARK 927      BINDING AFFINITY PREDICTED BY RF-SCORE:    0.00 PKD
ROOT
HETATM    1  C   UNL     1      -6.783  17.442  67.916  1.00  0.00    -0.179 C  
HETATM    2  C   UNL     1      -7.465  17.959  66.666  1.00  0.00    -0.262 C  
ENDROOT
BRANCH   2   3
HETATM    3  C   UNL     1      -8.906  17.459  66.532  1.00  0.00    -0.290 C  
BRANCH   3   4
HETATM    4  C   UNL     1      -8.890  15.987  66.119  1.00  0.00    -0.366 C  
BRANCH   4   5
HETATM    5  C   UNL     1      -9.986  15.152  66.746  1.00  0.00    -0.239 C  
HETATM    6  N   UNL     1      -9.649  14.258  67.760  1.00  0.00    -0.216 N  
HETATM    7  O   UNL     1     -11.151  15.256  66.350  1.00  0.00    -0.329 OA 
BRANCH   6   8
HETATM    8  C   UNL     1      -8.260  14.133  68.289  1.00  0.00    -0.148 C  
BRANCH   8   9
HETATM    9  C   UNL     1      -7.805  12.707  68.552  1.00  0.00    -0.104 A  
HETATM   10  C   UNL     1      -8.741  11.677  68.646  1.00  0.00    -0.083 A  
HETATM   11  C   UNL     1      -8.382  10.438  69.197  1.00  0.00    -0.160 A  
HETATM   12  C   UNL     1      -7.068  10.134  69.597  1.00  0.00    -0.115 A  
HETATM   13  C   UNL     1      -6.469  12.365  68.781  1.00  0.00    -0.084 A  
HETATM   14  C   UNL     1      -6.101  11.095  69.263  1.00  0.00    -0.056 A  
BRANCH  12  15
HETATM   15  C   UNL     1      -6.761   8.863  70.338  1.00  0.00    -0.047 A  
HETATM   16  C   UNL     1      -6.529   8.977  71.740  1.00  0.00    -0.033 A  
HETATM   17  C   UNL     1      -6.100   7.915  72.537  1.00  0.00    -0.044 A  
HETATM   18  C   UNL     1      -5.927   6.665  71.971  1.00  0.00    -0.038 A  
HETATM   19  C   UNL     1      -6.190   6.495  70.615  1.00  0.00    -0.039 A  
HETATM   20  C   UNL     1      -6.599   7.567  69.777  1.00  0.00    -0.039 A  
BRANCH  20  21
HETATM   21  C   UNL     1      -6.785   7.195  68.375  1.00  0.00    -0.057 A  
HETATM   22  N   UNL     1      -6.010   7.660  67.373  1.00  0.00    -0.046 NA 
HETATM   23  N   UNL     1      -6.614   7.113  66.312  1.00  0.00    -0.051 NA 
HETATM   24  H   UNL     1      -5.189   8.264  67.413  1.00  0.00     0.000 HD 
HETATM   25  N   UNL     1      -7.671   6.335  66.580  1.00  0.00    -0.098 NA 
HETATM   26  N   UNL     1      -7.811   6.411  67.898  1.00  0.00    -0.103 NA 
ENDBRANCH  20  21
ENDBRANCH  12  15
ENDBRANCH   8   9
ENDBRANCH   6   8
BRANCH   6  27
HETATM   27  C   UNL     1     -10.738  13.551  68.533  1.00  0.00    -0.255 C  
HETATM   28  C   UNL     1     -11.724  12.570  67.824  1.00  0.00    -0.359 C  
HETATM   29  O   UNL     1     -12.168  11.575  68.395  1.00  0.00    -0.540 OA 
HETATM   30  C   UNL     1     -11.460  14.471  69.567  1.00  0.00    -0.330 C  
HETATM   31  O   UNL     1     -12.168  12.884  66.595  1.00  0.00    -0.434 OA 
HETATM   32  C   UNL     1     -12.015  15.776  69.006  1.00  0.00    -0.294 C  
HETATM   33  C   UNL     1     -12.507  13.756  70.424  1.00  0.00    -0.384 C  
ENDBRANCH   6  27
ENDBRANCH   4   5
ENDBRANCH   3   4
ENDBRANCH   2   3
TORSDOF 8
ENDMDL
MODEL      311
REMARK 921   NORMALIZED FREE ENERGY PREDICTED BY IDOCK:   -2.75 KCAL/MOL
REMARK 922        TOTAL FREE ENERGY PREDICTED BY IDOCK:   -4.57 KCAL/MOL
REMARK 923 INTER-LIGAND FREE ENERGY PREDICTED BY IDOCK:   -7.38 KCAL/MOL
REMARK 924 INTRA-LIGAND FREE ENERGY PREDICTED BY IDOCK:    2.82 KCAL/MOL
REMARK 927      BINDING AFFINITY PREDICTED BY RF-SCORE:    0.00 PKD
ROOT
HETATM    1  C   UNL     1      -8.675   8.253  66.929  1.00  0.00    -0.141 C  
HETATM    2  C   UNL     1      -9.966   7.539  66.586  1.00  0.00    -0.270 C  
ENDROOT
BRANCH   2   3
HETATM    3  C   UNL     1     -10.328   6.455  67.605  1.00  0.00    -0.243 C  
BRANCH   3   4
HETATM    4  C   UNL     1     -10.492   7.096  68.983  1.00  0.00    -0.221 C  
BRANCH   4   5
HETATM    5  C   UNL     1      -9.342   6.835  69.932  1.00  0.00    -0.157 C  
HETATM    6  N   UNL     1      -9.106   7.742  70.963  1.00  0.00    -0.146 N  
HETATM    7  O   UNL     1      -8.622   5.844  69.779  1.00  0.00    -0.125 OA 
BRANCH   6   8
HETATM    8  C   UNL     1      -9.978   8.930  71.200  1.00  0.00    -0.272 C  
BRANCH   8   9
HETATM    9  C   UNL     1     -10.169   9.829  69.989  1.00  0.00    -0.308 A  
HETATM   10  C   UNL     1      -9.074  10.468  69.408  1.00  0.00    -0.123 A  
HETATM   11  C   UNL     1      -9.264  11.532  68.514  1.00  0.00    -0.167 A  
HETATM   12  C   UNL     1     -10.537  11.952  68.089  1.00  0.00    -0.233 A  
HETATM   13  C   UNL     1     -11.425  10.117  69.447  1.00  0.00    -0.202 A  
HETATM   14  C   UNL     1     -11.605  11.136  68.493  1.00  0.00    -0.385 A  
BRANCH  12  15
HETATM   15  C   UNL     1     -10.705  13.200  67.268  1.00  0.00    -0.262 A  
HETATM   16  C   UNL     1     -10.325  13.123  65.896  1.00  0.00    -0.295 A  
HETATM   17  C   UNL     1     -10.291  14.228  65.045  1.00  0.00    -0.448 A  
HETATM   18  C   UNL     1     -10.688  15.465  65.518  1.00  0.00    -0.397 A  
HETATM   19  C   UNL     1     -11.115  15.579  66.839  1.00  0.00    -0.221 A  
HETATM   20  C   UNL     1     -11.129  14.475  67.733  1.00  0.00    -0.295 A  
BRANCH  20  21
HETATM   21  C   UNL     1     -11.572  14.805  69.086  1.00  0.00    -0.303 A  
HETATM   22  N   UNL     1     -11.487  16.044  69.616  1.00  0.00    -0.334 NA 
HETATM   23  N   UNL     1     -11.927  15.818  70.859  1.00  0.00    -0.384 NA 
HETATM   24  H   UNL     1     -11.174  16.914  69.186  1.00  0.00     0.000 HD 
HETATM   25  N   UNL     1     -12.297  14.559  71.127  1.00  0.00    -0.323 NA 
HETATM   26  N   UNL     1     -12.038  13.894  70.007  1.00  0.00    -0.327 NA 
ENDBRANCH  20  21
ENDBRANCH  12  15
ENDBRANCH   8   9
ENDBRANCH   6   8
BRANCH   6  27
HETATM   27  C   UNL     1      -8.093   7.417  72.035  1.00  0.00    -0.094 C  
HETATM   28  C   UNL     1      -7.236   8.539  72.702  1.00  0.00    -0.025 C  
HETATM   29  O   UNL     1      -6.899   8.479  73.884  1.00  0.00    -0.195 OA 
HETATM   30  C   UNL     1      -7.255   6.137  71.727  1.00  0.00    -0.087 C  
HETATM   31  O   UNL     1      -6.778   9.540  71.931  1.00  0.00    -0.298 OA 
HETATM   32  C   UNL     1      -6.565   6.118  70.368  1.00  0.00    -0.048 C  
HETATM   33  C   UNL     1      -6.283   5.737  72.839  1.00  0.00    -0.056 C  
ENDBRANCH   6  27
ENDBRANCH   4   5
ENDBRANCH   3   4
ENDBRANCH   2   3
TORSDOF 8
ENDMDL
MODEL      312
REMARK 921   NORMALIZED FREE ENERGY PREDICTED BY IDOCK:   -2.74 KCAL/MOL
REMARK 922        TOTAL FREE ENERGY PREDICTED BY IDOCK:   -4.55 KCAL/MOL
REMARK 923 INTER-LIGAND FREE ENERGY PREDICTED BY IDOCK:   -5.69 KCAL/MOL
REMARK 924 INTRA-LIGAND FREE ENERGY PREDICTED BY IDOCK:    1.14 KCAL/MOL
REMARK 927      BINDING AFFINITY PREDICTED BY RF-SCORE:    0.00 PKD
ROOT
HETATM    1  C   UNL     1      -5.905  16.715  67.559  1.00  0.00    -0.178 C  
HETATM    2  C   UNL     1      -6.444  15.840  68.673  1.00  0.00    -0.111 C  
ENDROOT
BRANCH   2   3
HETATM    3  C   UNL     1      -6.673  14.394  68.226  1.00  0.00    -0.114 C  
BRANCH   3   4
HETATM    4  C   UNL     1      -7.677  14.378  67.072  1.00  0.00     0.080 C  
BRANCH   4   5
HETATM    5  C   UNL     1      -9.066  13.923  67.462  1.00  0.00    -0.201 C  
HETATM    6  N   UNL     1      -9.199  12.792  68.266  1.00  0.00    -0.204 N  
HETATM    7  O   UNL     1     -10.059  14.537  67.058  1.00  0.00    -0.250 OA 
BRANCH   6   8
HETATM    8  C   UNL     1      -8.022  12.049  68.802  1.00  0.00    -0.014 C  
BRANCH   8   9
HETATM    9  C   UNL     1      -7.898  10.616  68.312  1.00  0.00    -0.113 A  
HETATM   10  C   UNL     1      -8.442  10.245  67.082  1.00  0.00    -0.125 A  
HETATM   11  C   UNL     1      -8.621   8.889  66.764  1.00  0.00    -0.122 A  
HETATM   12  C   UNL     1      -8.192   7.847  67.604  1.00  0.00    -0.124 A  
HETATM   13  C   UNL     1      -7.314   9.599  69.073  1.00  0.00    -0.073 A  
HETATM   14  C   UNL     1      -7.430   8.244  68.713  1.00  0.00    -0.096 A  
BRANCH  12  15
HETATM   15  C   UNL     1      -8.555   6.418  67.309  1.00  0.00    -0.110 A  
HETATM   16  C   UNL     1      -8.046   5.863  66.098  1.00  0.00    -0.109 A  
HETATM   17  C   UNL     1      -8.407   4.603  65.620  1.00  0.00    -0.116 A  
HETATM   18  C   UNL     1      -9.263   3.811  66.363  1.00  0.00    -0.178 A  
HETATM   19  C   UNL     1      -9.746   4.292  67.577  1.00  0.00    -0.198 A  
HETATM   20  C   UNL     1      -9.418   5.583  68.071  1.00  0.00    -0.129 A  
BRANCH  20  21
HETATM   21  C   UNL     1     -10.056   5.919  69.342  1.00  0.00    -0.202 A  
HETATM   22  N   UNL     1      -9.446   5.786  70.539  1.00  0.00    -0.164 NA 
HETATM   23  N   UNL     1     -10.437   6.131  71.367  1.00  0.00    -0.218 NA 
HETATM   24  H   UNL     1      -8.490   5.500  70.752  1.00  0.00     0.000 HD 
HETATM   25  N   UNL     1     -11.588   6.488  70.783  1.00  0.00    -0.364 NA 
HETATM   26  N   UNL     1     -11.365   6.320  69.485  1.00  0.00    -0.430 NA 
ENDBRANCH  20  21
ENDBRANCH  12  15
ENDBRANCH   8   9
ENDBRANCH   6   8
BRANCH   6  27
HETATM   27  C   UNL     1     -10.552  12.422  68.827  1.00  0.00    -0.183 C  
HETATM   28  C   UNL     1     -11.667  11.821  67.913  1.00  0.00    -0.276 C  
HETATM   29  O   UNL     1     -12.467  10.987  68.334  1.00  0.00    -0.352 OA 
HETATM   30  C   UNL     1     -11.114  13.474  69.833  1.00  0.00     0.127 C  
HETATM   31  O   UNL     1     -11.807  12.308  66.669  1.00  0.00    -0.536 OA 
HETATM   32  C   UNL     1     -11.165  14.909  69.319  1.00  0.00    -0.300 C  
HETATM   33  C   UNL     1     -12.442  13.079  70.481  1.00  0.00    -0.306 C  
ENDBRANCH   6  27
ENDBRANCH   4   5
ENDBRANCH   3   4
ENDBRANCH   2   3
TORSDOF 8
ENDMDL
MODEL      313
REMARK 921   NORMALIZED FREE ENERGY PREDICTED BY IDOCK:   -2.62 KCAL/MOL
REMARK 922        TOTAL FREE ENERGY PREDICTED BY IDOCK:   -4.36 KCAL/MOL
REMARK 923 INTER-LIGAND FREE ENERGY PREDICTED BY IDOCK:   -5.15 KCAL/MOL
REMARK 924 INTRA-LIGAND FREE ENERGY PREDICTED BY IDOCK:    0.78 KCAL/MOL
REMARK 927      BINDING AFFINITY PREDICTED BY RF-SCORE:    0.00 PKD
ROOT
HETATM    1  C   UNL     1     -11.232  12.235  69.291  1.00  0.00    -0.275 C  
HETATM    2  C   UNL     1     -10.111  11.307  69.714  1.00  0.00     0.544 C  
ENDROOT
BRANCH   2   3
HETATM    3  C   UNL     1      -9.855  10.193  68.697  1.00  0.00    -0.170 C  
BRANCH   3   4
HETATM    4  C   UNL     1      -8.647   9.370  69.147  1.00  0.00    -0.140 C  
BRANCH   4   5
HETATM    5  C   UNL     1      -8.763   7.888  68.865  1.00  0.00    -0.135 C  
HETATM    6  N   UNL     1      -8.067   7.357  67.781  1.00  0.00    -0.118 N  
HETATM    7  O   UNL     1      -9.475   7.173  69.576  1.00  0.00    -0.152 OA 
BRANCH   6   8
HETATM    8  C   UNL     1      -7.168   8.184  66.923  1.00  0.00    -0.083 C  
BRANCH   8   9
HETATM    9  C   UNL     1      -7.853   9.342  66.217  1.00  0.00    -0.103 A  
HETATM   10  C   UNL     1      -7.471  10.656  66.488  1.00  0.00    -0.134 A  
HETATM   11  C   UNL     1      -8.289  11.729  66.101  1.00  0.00     0.102 A  
HETATM   12  C   UNL     1      -9.469  11.556  65.357  1.00  0.00    -0.220 A  
HETATM   13  C   UNL     1      -8.924   9.169  65.335  1.00  0.00    -0.255 A  
HETATM   14  C   UNL     1      -9.699  10.254  64.887  1.00  0.00    -0.385 A  
BRANCH  12  15
HETATM   15  C   UNL     1     -10.403  12.709  65.112  1.00  0.00    -0.312 A  
HETATM   16  C   UNL     1     -11.490  12.477  64.220  1.00  0.00    -0.423 A  
HETATM   17  C   UNL     1     -12.357  13.481  63.787  1.00  0.00    -0.392 A  
HETATM   18  C   UNL     1     -12.204  14.768  64.270  1.00  0.00    -0.402 A  
HETATM   19  C   UNL     1     -11.186  15.031  65.183  1.00  0.00    -0.391 A  
HETATM   20  C   UNL     1     -10.273  14.033  65.615  1.00  0.00    -0.351 A  
BRANCH  20  21
HETATM   21  C   UNL     1      -9.252  14.515  66.543  1.00  0.00    -0.255 A  
HETATM   22  N   UNL     1      -9.174  14.125  67.833  1.00  0.00    -0.189 NA 
HETATM   23  N   UNL     1      -8.161  14.883  68.266  1.00  0.00    -0.139 NA 
HETATM   24  H   UNL     1      -9.735  13.440  68.339  1.00  0.00     0.000 HD 
HETATM   25  N   UNL     1      -7.596  15.680  67.350  1.00  0.00    -0.178 NA 
HETATM   26  N   UNL     1      -8.313  15.479  66.251  1.00  0.00    -0.124 NA 
ENDBRANCH  20  21
ENDBRANCH  12  15
ENDBRANCH   8   9
ENDBRANCH   6   8
BRANCH   6  27
HETATM   27  C   UNL     1      -8.008   5.860  67.584  1.00  0.00    -0.102 C  
HETATM   28  C   UNL     1      -7.303   4.937  68.627  1.00  0.00    -0.062 C  
HETATM   29  O   UNL     1      -7.712   3.801  68.866  1.00  0.00    -0.053 OA 
HETATM   30  C   UNL     1      -7.696   5.441  66.114  1.00  0.00    -0.092 C  
HETATM   31  O   UNL     1      -6.164   5.366  69.195  1.00  0.00    -0.027 OA 
HETATM   32  C   UNL     1      -6.448   6.071  65.505  1.00  0.00    -0.043 C  
HETATM   33  C   UNL     1      -7.718   3.931  65.871  1.00  0.00    -0.089 C  
ENDBRANCH   6  27
ENDBRANCH   4   5
ENDBRANCH   3   4
ENDBRANCH   2   3
TORSDOF 8
ENDMDL
MODEL      314
REMARK 921   NORMALIZED FREE ENERGY PREDICTED BY IDOCK:   -2.61 KCAL/MOL
REMARK 922        TOTAL FREE ENERGY PREDICTED BY IDOCK:   -4.36 KCAL/MOL
REMARK 923 INTER-LIGAND FREE ENERGY PREDICTED BY IDOCK:   -5.47 KCAL/MOL
REMARK 924 INTRA-LIGAND FREE ENERGY PREDICTED BY IDOCK:    1.11 KCAL/MOL
REMARK 927      BINDING AFFINITY PREDICTED BY RF-SCORE:    0.00 PKD
ROOT
HETATM    1  C   UNL     1      -5.355  10.874  69.168  1.00  0.00    -0.041 C  
HETATM    2  C   UNL     1      -5.996  11.835  70.149  1.00  0.00    -0.162 C  
ENDROOT
BRANCH   2   3
HETATM    3  C   UNL     1      -6.319  13.191  69.517  1.00  0.00    -0.103 C  
BRANCH   3   4
HETATM    4  C   UNL     1      -6.530  13.007  68.014  1.00  0.00    -0.120 C  
BRANCH   4   5
HETATM    5  C   UNL     1      -7.939  13.292  67.542  1.00  0.00    -0.184 C  
HETATM    6  N   UNL     1      -8.578  12.352  66.736  1.00  0.00    -0.168 N  
HETATM    7  O   UNL     1      -8.500  14.346  67.857  1.00  0.00    -0.147 OA 
BRANCH   6   8
HETATM    8  C   UNL     1      -7.945  11.052  66.366  1.00  0.00    -0.161 C  
BRANCH   8   9
HETATM    9  C   UNL     1      -8.378   9.870  67.218  1.00  0.00    -0.121 A  
HETATM   10  C   UNL     1      -9.493   9.114  66.855  1.00  0.00    -0.222 A  
HETATM   11  C   UNL     1     -10.090   8.241  67.777  1.00  0.00    -0.262 A  
HETATM   12  C   UNL     1      -9.562   8.011  69.060  1.00  0.00    -0.156 A  
HETATM   13  C   UNL     1      -7.748   9.525  68.416  1.00  0.00    -0.085 A  
HETATM   14  C   UNL     1      -8.310   8.592  69.308  1.00  0.00    -0.118 A  
BRANCH  12  15
HETATM   15  C   UNL     1     -10.323   7.204  70.074  1.00  0.00    -0.219 A  
HETATM   16  C   UNL     1     -11.043   7.932  71.067  1.00  0.00    -0.268 A  
HETATM   17  C   UNL     1     -11.681   7.329  72.151  1.00  0.00    -0.323 A  
HETATM   18  C   UNL     1     -11.670   5.951  72.268  1.00  0.00    -0.309 A  
HETATM   19  C   UNL     1     -11.021   5.195  71.295  1.00  0.00     0.016 A  
HETATM   20  C   UNL     1     -10.339   5.787  70.198  1.00  0.00    -0.324 A  
BRANCH  20  21
HETATM   21  C   UNL     1      -9.688   4.828  69.308  1.00  0.00    -0.196 A  
HETATM   22  N   UNL     1     -10.135   4.541  68.067  1.00  0.00    -0.033 NA 
HETATM   23  N   UNL     1      -9.278   3.580  67.706  1.00  0.00    -0.167 NA 
HETATM   24  H   UNL     1     -10.914   4.947  67.548  1.00  0.00     0.000 HD 
HETATM   25  N   UNL     1      -8.332   3.274  68.603  1.00  0.00    -0.071 NA 
HETATM   26  N   UNL     1      -8.609   4.043  69.649  1.00  0.00    -0.066 NA 
ENDBRANCH  20  21
ENDBRANCH  12  15
ENDBRANCH   8   9
ENDBRANCH   6   8
BRANCH   6  27
HETATM   27  C   UNL     1     -10.043  12.515  66.405  1.00  0.00    -0.243 C  
HETATM   28  C   UNL     1     -10.740  11.593  65.356  1.00  0.00    -0.287 C  
HETATM   29  O   UNL     1     -11.916  11.252  65.474  1.00  0.00     0.168 OA 
HETATM   30  C   UNL     1     -10.486  14.005  66.272  1.00  0.00    -0.286 C  
HETATM   31  O   UNL     1     -10.059  11.254  64.249  1.00  0.00    -0.262 OA 
HETATM   32  C   UNL     1      -9.662  14.848  65.305  1.00  0.00    -0.126 C  
HETATM   33  C   UNL     1     -11.983  14.199  66.025  1.00  0.00    -0.427 C  
ENDBRANCH   6  27
ENDBRANCH   4   5
ENDBRANCH   3   4
ENDBRANCH   2   3
TORSDOF 8
ENDMDL
MODEL      315
REMARK 921   NORMALIZED FREE ENERGY PREDICTED BY IDOCK:   -2.60 KCAL/MOL
REMARK 922        TOTAL FREE ENERGY PREDICTED BY IDOCK:   -4.34 KCAL/MOL
REMARK 923 INTER-LIGAND FREE ENERGY PREDICTED BY IDOCK:   -6.07 KCAL/MOL
REMARK 924 INTRA-LIGAND FREE ENERGY PREDICTED BY IDOCK:    1.73 KCAL/MOL
REMARK 927      BINDING AFFINITY PREDICTED BY RF-SCORE:    0.00 PKD
ROOT
HETATM    1  C   UNL     1     -13.398  12.716  64.887  1.00  0.00     0.747 C  
HETATM    2  C   UNL     1     -12.756  12.131  63.645  1.00  0.00    -0.549 C  
ENDROOT
BRANCH   2   3
HETATM    3  C   UNL     1     -11.271  11.817  63.843  1.00  0.00    -0.493 C  
BRANCH   3   4
HETATM    4  C   UNL     1     -10.471  13.119  63.792  1.00  0.00     0.051 C  
BRANCH   4   5
HETATM    5  C   UNL     1     -10.710  14.043  64.967  1.00  0.00    -0.396 C  
HETATM    6  N   UNL     1     -10.006  13.818  66.149  1.00  0.00    -0.301 N  
HETATM    7  O   UNL     1     -11.526  14.965  64.878  1.00  0.00    -0.380 OA 
BRANCH   6   8
HETATM    8  C   UNL     1      -8.986  12.737  66.279  1.00  0.00     0.054 C  
BRANCH   8   9
HETATM    9  C   UNL     1      -9.493  11.459  66.927  1.00  0.00    -0.193 A  
HETATM   10  C   UNL     1      -9.424  11.297  68.310  1.00  0.00    -0.190 A  
HETATM   11  C   UNL     1      -9.583  10.027  68.886  1.00  0.00    -0.181 A  
HETATM   12  C   UNL     1      -9.901   8.884  68.132  1.00  0.00    -0.193 A  
HETATM   13  C   UNL     1      -9.977  10.374  66.190  1.00  0.00    -0.290 A  
HETATM   14  C   UNL     1     -10.208   9.119  66.784  1.00  0.00    -0.331 A  
BRANCH  12  15
HETATM   15  C   UNL     1      -9.893   7.518  68.760  1.00  0.00    -0.166 A  
HETATM   16  C   UNL     1     -11.122   7.058  69.316  1.00  0.00    -0.166 A  
HETATM   17  C   UNL     1     -11.240   5.878  70.051  1.00  0.00    -0.341 A  
HETATM   18  C   UNL     1     -10.132   5.070  70.224  1.00  0.00    -0.339 A  
HETATM   19  C   UNL     1      -8.919   5.454  69.657  1.00  0.00    -0.130 A  
HETATM   20  C   UNL     1      -8.767   6.665  68.931  1.00  0.00    -0.128 A  
BRANCH  20  21
HETATM   21  C   UNL     1      -7.409   6.910  68.449  1.00  0.00    -0.093 A  
HETATM   22  N   UNL     1      -6.797   8.111  68.526  1.00  0.00    -0.066 NA 
HETATM   23  N   UNL     1      -5.645   7.847  67.899  1.00  0.00    -0.032 NA 
HETATM   24  H   UNL     1      -7.124   8.980  68.947  1.00  0.00     0.000 HD 
HETATM   25  N   UNL     1      -5.488   6.588  67.471  1.00  0.00    -0.008 NA 
HETATM   26  N   UNL     1      -6.630   5.988  67.786  1.00  0.00    -0.054 NA 
ENDBRANCH  20  21
ENDBRANCH  12  15
ENDBRANCH   8   9
ENDBRANCH   6   8
BRANCH   6  27
HETATM   27  C   UNL     1     -10.077  14.826  67.271  1.00  0.00    -0.236 C  
HETATM   28  C   UNL     1     -10.327  16.340  66.981  1.00  0.00    -0.292 C  
HETATM   29  O   UNL     1     -10.970  17.049  67.753  1.00  0.00    -0.316 OA 
HETATM   30  C   UNL     1      -8.994  14.605  68.372  1.00  0.00    -0.180 C  
HETATM   31  O   UNL     1      -9.734  16.893  65.909  1.00  0.00    -0.467 OA 
HETATM   32  C   UNL     1      -7.557  14.523  67.869  1.00  0.00    -0.153 C  
HETATM   33  C   UNL     1      -9.102  15.559  69.563  1.00  0.00    -0.260 C  
ENDBRANCH   6  27
ENDBRANCH   4   5
ENDBRANCH   3   4
ENDBRANCH   2   3
TORSDOF 8
ENDMDL
MODEL      316
REMARK 921   NORMALIZED FREE ENERGY PREDICTED BY IDOCK:   -2.56 KCAL/MOL
REMARK 922        TOTAL FREE ENERGY PREDICTED BY IDOCK:   -4.28 KCAL/MOL
REMARK 923 INTER-LIGAND FREE ENERGY PREDICTED BY IDOCK:   -4.29 KCAL/MOL
REMARK 924 INTRA-LIGAND FREE ENERGY PREDICTED BY IDOCK:    0.01 KCAL/MOL
REMARK 927      BINDING AFFINITY PREDICTED BY RF-SCORE:    0.00 PKD
ROOT
HETATM    1  C   UNL     1     -12.930  12.067  63.442  1.00  0.00    -0.282 C  
HETATM    2  C   UNL     1     -11.547  11.855  62.862  1.00  0.00     0.218 C  
ENDROOT
BRANCH   2   3
HETATM    3  C   UNL     1     -10.553  11.316  63.894  1.00  0.00    -0.455 C  
BRANCH   3   4
HETATM    4  C   UNL     1      -9.649  12.456  64.364  1.00  0.00     0.135 C  
BRANCH   4   5
HETATM    5  C   UNL     1     -10.053  13.065  65.689  1.00  0.00    -0.268 C  
HETATM    6  N   UNL     1      -9.297  12.765  66.821  1.00  0.00    -0.236 N  
HETATM    7  O   UNL     1     -11.043  13.799  65.761  1.00  0.00    -0.288 OA 
BRANCH   6   8
HETATM    8  C   UNL     1      -8.073  11.913  66.764  1.00  0.00    -0.108 C  
BRANCH   8   9
HETATM    9  C   UNL     1      -8.296  10.456  67.132  1.00  0.00    -0.126 A  
HETATM   10  C   UNL     1      -9.589   9.938  67.199  1.00  0.00    -0.201 A  
HETATM   11  C   UNL     1      -9.832   8.712  67.837  1.00  0.00    -0.211 A  
HETATM   12  C   UNL     1      -8.803   7.907  68.357  1.00  0.00    -0.130 A  
HETATM   13  C   UNL     1      -7.255   9.593  67.485  1.00  0.00    -0.090 A  
HETATM   14  C   UNL     1      -7.499   8.331  68.058  1.00  0.00    -0.097 A  
BRANCH  12  15
HETATM   15  C   UNL     1      -9.116   6.690  69.182  1.00  0.00    -0.137 A  
HETATM   16  C   UNL     1      -8.796   5.424  68.608  1.00  0.00    -0.107 A  
HETATM   17  C   UNL     1      -9.150   4.206  69.188  1.00  0.00    -0.191 A  
HETATM   18  C   UNL     1      -9.806   4.196  70.405  1.00  0.00    -0.237 A  
HETATM   19  C   UNL     1     -10.096   5.407  71.028  1.00  0.00    -0.281 A  
HETATM   20  C   UNL     1      -9.772   6.661  70.443  1.00  0.00    -0.186 A  
BRANCH  20  21
HETATM   21  C   UNL     1     -10.195   7.817  71.231  1.00  0.00    -0.193 A  
HETATM   22  N   UNL     1     -11.460   8.288  71.243  1.00  0.00    -0.267 NA 
HETATM   23  N   UNL     1     -11.321   9.367  72.022  1.00  0.00    -0.209 NA 
HETATM   24  H   UNL     1     -12.293   7.922  70.783  1.00  0.00     0.000 HD 
HETATM   25  N   UNL     1     -10.091   9.580  72.508  1.00  0.00     1.331 NA 
HETATM   26  N   UNL     1      -9.354   8.613  71.977  1.00  0.00    -0.280 NA 
ENDBRANCH  20  21
ENDBRANCH  12  15
ENDBRANCH   8   9
ENDBRANCH   6   8
BRANCH   6  27
HETATM   27  C   UNL     1      -9.555  13.500  68.115  1.00  0.00    -0.215 C  
HETATM   28  C   UNL     1     -10.946  13.425  68.821  1.00  0.00    -0.257 C  
HETATM   29  O   UNL     1     -11.051  13.445  70.047  1.00  0.00     0.073 OA 
HETATM   30  C   UNL     1      -8.955  14.940  68.140  1.00  0.00    -0.176 C  
HETATM   31  O   UNL     1     -12.053  13.441  68.060  1.00  0.00    -0.342 OA 
HETATM   32  C   UNL     1      -9.354  15.836  66.973  1.00  0.00    -0.235 C  
HETATM   33  C   UNL     1      -9.128  15.672  69.473  1.00  0.00    -0.240 C  
ENDBRANCH   6  27
ENDBRANCH   4   5
ENDBRANCH   3   4
ENDBRANCH   2   3
TORSDOF 8
ENDMDL
MODEL      317
REMARK 921   NORMALIZED FREE ENERGY PREDICTED BY IDOCK:   -2.50 KCAL/MOL
REMARK 922        TOTAL FREE ENERGY PREDICTED BY IDOCK:   -4.20 KCAL/MOL
REMARK 923 INTER-LIGAND FREE ENERGY PREDICTED BY IDOCK:   -5.01 KCAL/MOL
REMARK 924 INTRA-LIGAND FREE ENERGY PREDICTED BY IDOCK:    0.81 KCAL/MOL
REMARK 927      BINDING AFFINITY PREDICTED BY RF-SCORE:    0.00 PKD
ROOT
HETATM    1  C   UNL     1      -5.144  12.732  69.976  1.00  0.00    -0.086 C  
HETATM    2  C   UNL     1      -5.761  13.770  70.892  1.00  0.00    -0.206 C  
ENDROOT
BRANCH   2   3
HETATM    3  C   UNL     1      -6.155  15.049  70.150  1.00  0.00    -0.156 C  
BRANCH   3   4
HETATM    4  C   UNL     1      -7.386  14.770  69.287  1.00  0.00    -0.168 C  
BRANCH   4   5
HETATM    5  C   UNL     1      -8.126  16.012  68.838  1.00  0.00    -0.218 C  
HETATM    6  N   UNL     1      -8.620  16.062  67.536  1.00  0.00    -0.174 N  
HETATM    7  O   UNL     1      -8.270  16.964  69.610  1.00  0.00     0.283 OA 
BRANCH   6   8
HETATM    8  C   UNL     1      -8.497  14.916  66.588  1.00  0.00    -0.103 C  
BRANCH   8   9
HETATM    9  C   UNL     1      -8.734  13.549  67.209  1.00  0.00    -0.228 A  
HETATM   10  C   UNL     1      -7.689  12.630  67.306  1.00  0.00    -0.140 A  
HETATM   11  C   UNL     1      -7.954  11.278  67.572  1.00  0.00    -0.124 A  
HETATM   12  C   UNL     1      -9.247  10.794  67.840  1.00  0.00    -0.151 A  
HETATM   13  C   UNL     1      -9.991  13.119  67.642  1.00  0.00    -0.219 A  
HETATM   14  C   UNL     1     -10.239  11.776  67.981  1.00  0.00    -0.202 A  
BRANCH  12  15
HETATM   15  C   UNL     1      -9.511   9.318  67.949  1.00  0.00    -0.154 A  
HETATM   16  C   UNL     1     -10.310   8.730  66.925  1.00  0.00    -0.344 A  
HETATM   17  C   UNL     1     -10.754   7.408  66.960  1.00  0.00    -0.389 A  
HETATM   18  C   UNL     1     -10.377   6.590  68.009  1.00  0.00    -0.226 A  
HETATM   19  C   UNL     1      -9.556   7.107  69.008  1.00  0.00    -0.146 A  
HETATM   20  C   UNL     1      -9.115   8.457  69.010  1.00  0.00    -0.147 A  
BRANCH  20  21
HETATM   21  C   UNL     1      -8.295   8.819  70.164  1.00  0.00    -0.131 A  
HETATM   22  N   UNL     1      -8.401   8.220  71.370  1.00  0.00    -0.120 NA 
HETATM   23  N   UNL     1      -7.528   8.937  72.085  1.00  0.00    -0.341 NA 
HETATM   24  H   UNL     1      -8.987   7.436  71.656  1.00  0.00     0.000 HD 
HETATM   25  N   UNL     1      -6.879   9.900  71.419  1.00  0.00    -0.237 NA 
HETATM   26  N   UNL     1      -7.391   9.857  70.195  1.00  0.00    -0.148 NA 
ENDBRANCH  20  21
ENDBRANCH  12  15
ENDBRANCH   8   9
ENDBRANCH   6   8
BRANCH   6  27
HETATM   27  C   UNL     1      -9.521  17.199  67.116  1.00  0.00    -0.248 C  
HETATM   28  C   UNL     1     -10.563  17.020  65.966  1.00  0.00    -0.206 C  
HETATM   29  O   UNL     1     -11.649  17.597  65.982  1.00  0.00     1.303 OA 
HETATM   30  C   UNL     1      -8.789  18.575  67.043  1.00  0.00    -0.278 C  
HETATM   31  O   UNL     1     -10.211  16.297  64.890  1.00  0.00    -0.507 OA 
HETATM   32  C   UNL     1      -7.526  18.599  66.189  1.00  0.00    -0.287 C  
HETATM   33  C   UNL     1      -9.699  19.757  66.705  1.00  0.00    -0.512 C  
ENDBRANCH   6  27
ENDBRANCH   4   5
ENDBRANCH   3   4
ENDBRANCH   2   3
TORSDOF 8
ENDMDL
MODEL      318
REMARK 921   NORMALIZED FREE ENERGY PREDICTED BY IDOCK:   -2.49 KCAL/MOL
REMARK 922        TOTAL FREE ENERGY PREDICTED BY IDOCK:   -4.19 KCAL/MOL
REMARK 923 INTER-LIGAND FREE ENERGY PREDICTED BY IDOCK:   -4.84 KCAL/MOL
REMARK 924 INTRA-LIGAND FREE ENERGY PREDICTED BY IDOCK:    0.66 KCAL/MOL
REMARK 927      BINDING AFFINITY PREDICTED BY RF-SCORE:    0.00 PKD
ROOT
HETATM    1  C   UNL     1      -8.287   4.580  72.813  1.00  0.00    -0.107 C  
HETATM    2  C   UNL     1      -8.162   4.417  71.312  1.00  0.00    -0.084 C  
ENDROOT
BRANCH   2   3
HETATM    3  C   UNL     1      -8.266   5.749  70.565  1.00  0.00    -0.118 C  
BRANCH   3   4
HETATM    4  C   UNL     1      -6.947   6.023  69.841  1.00  0.00    -0.070 C  
BRANCH   4   5
HETATM    5  C   UNL     1      -6.716   5.158  68.621  1.00  0.00    -0.050 C  
HETATM    6  N   UNL     1      -7.599   5.265  67.548  1.00  0.00    -0.087 N  
HETATM    7  O   UNL     1      -5.770   4.365  68.590  1.00  0.00    -0.018 OA 
BRANCH   6   8
HETATM    8  C   UNL     1      -8.730   6.238  67.536  1.00  0.00    -0.105 C  
BRANCH   8   9
HETATM    9  C   UNL     1      -8.334   7.668  67.206  1.00  0.00    -0.115 A  
HETATM   10  C   UNL     1      -7.203   8.237  67.792  1.00  0.00    -0.088 A  
HETATM   11  C   UNL     1      -7.006   9.626  67.756  1.00  0.00    -0.079 A  
HETATM   12  C   UNL     1      -7.866  10.499  67.068  1.00  0.00    -0.114 A  
HETATM   13  C   UNL     1      -9.096   8.497  66.378  1.00  0.00    -0.229 A  
HETATM   14  C   UNL     1      -8.851   9.879  66.284  1.00  0.00    -0.160 A  
BRANCH  12  15
HETATM   15  C   UNL     1      -7.717  11.989  67.197  1.00  0.00    -0.161 A  
HETATM   16  C   UNL     1      -6.390  12.494  67.330  1.00  0.00    -0.157 A  
HETATM   17  C   UNL     1      -6.100  13.833  67.596  1.00  0.00    -0.096 A  
HETATM   18  C   UNL     1      -7.132  14.747  67.693  1.00  0.00    -0.206 A  
HETATM   19  C   UNL     1      -8.443  14.309  67.520  1.00  0.00    -0.195 A  
HETATM   20  C   UNL     1      -8.766  12.947  67.278  1.00  0.00    -0.204 A  
BRANCH  20  21
HETATM   21  C   UNL     1     -10.198  12.681  67.165  1.00  0.00    -0.225 A  
HETATM   22  N   UNL     1     -10.944  12.177  68.172  1.00  0.00    -0.217 NA 
HETATM   23  N   UNL     1     -12.129  12.044  67.566  1.00  0.00    -0.515 NA 
HETATM   24  H   UNL     1     -10.676  11.958  69.131  1.00  0.00     0.000 HD 
HETATM   25  N   UNL     1     -12.180  12.446  66.290  1.00  0.00    -0.583 NA 
HETATM   26  N   UNL     1     -10.938  12.821  66.012  1.00  0.00    -0.274 NA 
ENDBRANCH  20  21
ENDBRANCH  12  15
ENDBRANCH   8   9
ENDBRANCH   6   8
BRANCH   6  27
HETATM   27  C   UNL     1      -7.293   4.561  66.248  1.00  0.00    -0.081 C  
HETATM   28  C   UNL     1      -6.494   5.275  65.112  1.00  0.00    -0.039 C  
HETATM   29  O   UNL     1      -5.725   4.659  64.375  1.00  0.00    -0.013 OA 
HETATM   30  C   UNL     1      -8.493   3.730  65.695  1.00  0.00    -0.110 C  
HETATM   31  O   UNL     1      -6.737   6.576  64.879  1.00  0.00    -0.041 OA 
HETATM   32  C   UNL     1      -9.805   4.493  65.550  1.00  0.00    -0.219 C  
HETATM   33  C   UNL     1      -8.179   2.937  64.425  1.00  0.00    -0.083 C  
ENDBRANCH   6  27
ENDBRANCH   4   5
ENDBRANCH   3   4
ENDBRANCH   2   3
TORSDOF 8
ENDMDL
MODEL      319
REMARK 921   NORMALIZED FREE ENERGY PREDICTED BY IDOCK:   -2.47 KCAL/MOL
REMARK 922        TOTAL FREE ENERGY PREDICTED BY IDOCK:   -4.15 KCAL/MOL
REMARK 923 INTER-LIGAND FREE ENERGY PREDICTED BY IDOCK:   -5.64 KCAL/MOL
REMARK 924 INTRA-LIGAND FREE ENERGY PREDICTED BY IDOCK:    1.49 KCAL/MOL
REMARK 927      BINDING AFFINITY PREDICTED BY RF-SCORE:    0.00 PKD
ROOT
HETATM    1  C   UNL     1     -11.341   6.321  68.687  1.00  0.00    -0.181 C  
HETATM    2  C   UNL     1     -11.012   6.666  67.248  1.00  0.00    -0.456 C  
ENDROOT
BRANCH   2   3
HETATM    3  C   UNL     1     -10.752   8.161  67.047  1.00  0.00    -0.247 C  
BRANCH   3   4
HETATM    4  C   UNL     1     -10.535   8.820  68.409  1.00  0.00    -0.220 C  
BRANCH   4   5
HETATM    5  C   UNL     1     -10.923  10.282  68.463  1.00  0.00    -0.247 C  
HETATM    6  N   UNL     1      -9.925  11.245  68.321  1.00  0.00    -0.188 N  
HETATM    7  O   UNL     1     -12.100  10.608  68.644  1.00  0.00    -0.410 OA 
BRANCH   6   8
HETATM    8  C   UNL     1      -8.499  10.888  68.063  1.00  0.00    -0.130 C  
BRANCH   8   9
HETATM    9  C   UNL     1      -7.898   9.912  69.061  1.00  0.00    -0.095 A  
HETATM   10  C   UNL     1      -6.840   9.085  68.684  1.00  0.00    -0.063 A  
HETATM   11  C   UNL     1      -6.491   7.975  69.469  1.00  0.00    -0.034 A  
HETATM   12  C   UNL     1      -7.111   7.687  70.699  1.00  0.00    -0.054 A  
HETATM   13  C   UNL     1      -8.400   9.740  70.354  1.00  0.00    -0.106 A  
HETATM   14  C   UNL     1      -7.995   8.669  71.171  1.00  0.00    -0.164 A  
BRANCH  12  15
HETATM   15  C   UNL     1      -6.829   6.400  71.422  1.00  0.00    -0.067 A  
HETATM   16  C   UNL     1      -5.612   5.732  71.096  1.00  0.00    -0.017 A  
HETATM   17  C   UNL     1      -5.277   4.466  71.578  1.00  0.00     0.000 A  
HETATM   18  C   UNL     1      -6.131   3.824  72.456  1.00  0.00    -0.009 A  
HETATM   19  C   UNL     1      -7.308   4.459  72.842  1.00  0.00    -0.079 A  
HETATM   20  C   UNL     1      -7.686   5.734  72.342  1.00  0.00    -0.102 A  
BRANCH  20  21
HETATM   21  C   UNL     1      -8.975   6.214  72.835  1.00  0.00    -0.125 A  
HETATM   22  N   UNL     1      -9.376   6.086  74.118  1.00  0.00    -0.132 NA 
HETATM   23  N   UNL     1     -10.614   6.587  74.047  1.00  0.00    -0.266 NA 
HETATM   24  H   UNL     1      -8.872   5.710  74.921  1.00  0.00     0.000 HD 
HETATM   25  N   UNL     1     -10.994   7.034  72.843  1.00  0.00    -0.294 NA 
HETATM   26  N   UNL     1      -9.964   6.765  72.050  1.00  0.00    -0.172 NA 
ENDBRANCH  20  21
ENDBRANCH  12  15
ENDBRANCH   8   9
ENDBRANCH   6   8
BRANCH   6  27
HETATM   27  C   UNL     1     -10.299  12.701  68.180  1.00  0.00    -0.234 C  
HETATM   28  C   UNL     1     -11.369  13.163  67.140  1.00  0.00    -0.316 C  
HETATM   29  O   UNL     1     -12.123  14.108  67.364  1.00  0.00    -0.402 OA 
HETATM   30  C   UNL     1      -9.071  13.664  68.233  1.00  0.00    -0.193 C  
HETATM   31  O   UNL     1     -11.388  12.569  65.935  1.00  0.00    -0.308 OA 
HETATM   32  C   UNL     1      -7.946  13.343  67.257  1.00  0.00    -0.130 C  
HETATM   33  C   UNL     1      -9.433  15.149  68.181  1.00  0.00    -0.201 C  
ENDBRANCH   6  27
ENDBRANCH   4   5
ENDBRANCH   3   4
ENDBRANCH   2   3
TORSDOF 8
ENDMDL
MODEL      320
REMARK 921   NORMALIZED FREE ENERGY PREDICTED BY IDOCK:   -2.26 KCAL/MOL
REMARK 922        TOTAL FREE ENERGY PREDICTED BY IDOCK:   -3.84 KCAL/MOL
REMARK 923 INTER-LIGAND FREE ENERGY PREDICTED BY IDOCK:   -4.32 KCAL/MOL
REMARK 924 INTRA-LIGAND FREE ENERGY PREDICTED BY IDOCK:    0.48 KCAL/MOL
REMARK 927      BINDING AFFINITY PREDICTED BY RF-SCORE:    0.00 PKD
ROOT
HETATM    1  C   UNL     1      -7.429  14.060  70.099  1.00  0.00     0.836 C  
HETATM    2  C   UNL     1      -6.068  13.399  70.022  1.00  0.00    -0.125 C  
ENDROOT
BRANCH   2   3
HETATM    3  C   UNL     1      -6.018  12.276  68.984  1.00  0.00    -0.070 C  
BRANCH   3   4
HETATM    4  C   UNL     1      -5.340  11.052  69.601  1.00  0.00    -0.042 C  
BRANCH   4   5
HETATM    5  C   UNL     1      -6.300  10.036  70.182  1.00  0.00    -0.093 C  
HETATM    6  N   UNL     1      -6.883   9.101  69.329  1.00  0.00    -0.049 N  
HETATM    7  O   UNL     1      -6.568  10.052  71.388  1.00  0.00    -0.317 OA 
BRANCH   6   8
HETATM    8  C   UNL     1      -6.554   9.029  67.875  1.00  0.00    -0.060 C  
BRANCH   8   9
HETATM    9  C   UNL     1      -7.650   9.531  66.950  1.00  0.00    -0.095 A  
HETATM   10  C   UNL     1      -7.356  10.453  65.946  1.00  0.00    -0.135 A  
HETATM   11  C   UNL     1      -8.385  11.160  65.305  1.00  0.00     0.147 A  
HETATM   12  C   UNL     1      -9.747  10.922  65.564  1.00  0.00    -0.282 A  
HETATM   13  C   UNL     1      -8.992   9.163  67.091  1.00  0.00    -0.137 A  
HETATM   14  C   UNL     1     -10.019   9.822  66.391  1.00  0.00    -0.314 A  
BRANCH  12  15
HETATM   15  C   UNL     1     -10.809  11.815  64.985  1.00  0.00    -0.350 A  
HETATM   16  C   UNL     1     -11.704  11.224  64.046  1.00  0.00     0.176 A  
HETATM   17  C   UNL     1     -12.650  11.951  63.323  1.00  0.00    -0.473 A  
HETATM   18  C   UNL     1     -12.779  13.310  63.544  1.00  0.00     0.020 A  
HETATM   19  C   UNL     1     -11.960  13.922  64.489  1.00  0.00    -0.464 A  
HETATM   20  C   UNL     1     -10.969  13.209  65.216  1.00  0.00    -0.304 A  
BRANCH  20  21
HETATM   21  C   UNL     1     -10.185  14.036  66.131  1.00  0.00    -0.302 A  
HETATM   22  N   UNL     1     -10.221  13.900  67.474  1.00  0.00    -0.243 NA 
HETATM   23  N   UNL     1      -9.423  14.905  67.850  1.00  0.00    -0.198 NA 
HETATM   24  H   UNL     1     -10.720  13.218  68.044  1.00  0.00     0.000 HD 
HETATM   25  N   UNL     1      -8.883  15.625  66.858  1.00  0.00    -0.229 NA 
HETATM   26  N   UNL     1      -9.395  15.098  65.752  1.00  0.00    -0.262 NA 
ENDBRANCH  20  21
ENDBRANCH  12  15
ENDBRANCH   8   9
ENDBRANCH   6   8
BRANCH   6  27
HETATM   27  C   UNL     1      -7.693   7.962  69.901  1.00  0.00    -0.098 C  
HETATM   28  C   UNL     1      -8.863   8.226  70.901  1.00  0.00    -0.150 C  
HETATM   29  O   UNL     1      -9.872   7.522  70.916  1.00  0.00    -0.177 OA 
HETATM   30  C   UNL     1      -6.825   6.733  70.317  1.00  0.00    -0.061 C  
HETATM   31  O   UNL     1      -8.709   9.186  71.828  1.00  0.00    -0.342 OA 
HETATM   32  C   UNL     1      -5.665   7.040  71.257  1.00  0.00    -0.035 C  
HETATM   33  C   UNL     1      -7.631   5.532  70.817  1.00  0.00    -0.090 C  
ENDBRANCH   6  27
ENDBRANCH   4   5
ENDBRANCH   3   4
ENDBRANCH   2   3
TORSDOF 8
ENDMDL
MODEL      321
REMARK 921   NORMALIZED FREE ENERGY PREDICTED BY IDOCK:   -1.91 KCAL/MOL
REMARK 922        TOTAL FREE ENERGY PREDICTED BY IDOCK:   -3.33 KCAL/MOL
REMARK 923 INTER-LIGAND FREE ENERGY PREDICTED BY IDOCK:   -4.48 KCAL/MOL
REMARK 924 INTRA-LIGAND FREE ENERGY PREDICTED BY IDOCK:    1.15 KCAL/MOL
REMARK 927      BINDING AFFINITY PREDICTED BY RF-SCORE:    0.00 PKD
ROOT
HETATM    1  C   UNL     1     -11.016   5.631  68.225  1.00  0.00    -0.030 C  
HETATM    2  C   UNL     1     -11.071   6.953  68.963  1.00  0.00    -0.188 C  
ENDROOT
BRANCH   2   3
HETATM    3  C   UNL     1      -9.706   7.642  69.038  1.00  0.00    -0.160 C  
BRANCH   3   4
HETATM    4  C   UNL     1      -8.651   6.734  68.405  1.00  0.00    -0.125 C  
BRANCH   4   5
HETATM    5  C   UNL     1      -8.412   6.990  66.932  1.00  0.00    -0.119 C  
HETATM    6  N   UNL     1      -7.876   8.217  66.545  1.00  0.00    -0.092 N  
HETATM    7  O   UNL     1      -8.703   6.130  66.096  1.00  0.00    -0.138 OA 
BRANCH   6   8
HETATM    8  C   UNL     1      -7.477   9.264  67.530  1.00  0.00    -0.088 C  
BRANCH   8   9
HETATM    9  C   UNL     1      -8.381  10.485  67.561  1.00  0.00    -0.118 A  
HETATM   10  C   UNL     1      -7.839  11.764  67.441  1.00  0.00    -0.155 A  
HETATM   11  C   UNL     1      -8.598  12.893  67.784  1.00  0.00    -0.185 A  
HETATM   12  C   UNL     1      -9.947  12.814  68.175  1.00  0.00    -0.229 A  
HETATM   13  C   UNL     1      -9.760  10.405  67.778  1.00  0.00    -0.181 A  
HETATM   14  C   UNL     1     -10.535  11.547  68.049  1.00  0.00    -0.214 A  
BRANCH  12  15
HETATM   15  C   UNL     1     -10.671  14.023  68.698  1.00  0.00    -0.269 A  
HETATM   16  C   UNL     1     -12.008  13.825  69.152  1.00  0.00    -0.403 A  
HETATM   17  C   UNL     1     -12.852  14.868  69.534  1.00  0.00     0.249 A  
HETATM   18  C   UNL     1     -12.378  16.166  69.527  1.00  0.00     0.344 A  
HETATM   19  C   UNL     1     -11.061  16.403  69.138  1.00  0.00    -0.303 A  
HETATM   20  C   UNL     1     -10.192  15.362  68.716  1.00  0.00    -0.217 A  
BRANCH  20  21
HETATM   21  C   UNL     1      -8.864  15.817  68.309  1.00  0.00    -0.180 A  
HETATM   22  N   UNL     1      -7.903  16.184  69.184  1.00  0.00    -0.231 NA 
HETATM   23  N   UNL     1      -6.940  16.584  68.347  1.00  0.00    -0.145 NA 
HETATM   24  H   UNL     1      -7.910  16.162  70.203  1.00  0.00     0.000 HD 
HETATM   25  N   UNL     1      -7.216  16.469  67.042  1.00  0.00    -0.190 NA 
HETATM   26  N   UNL     1      -8.462  16.013  67.007  1.00  0.00    -0.195 NA 
ENDBRANCH  20  21
ENDBRANCH  12  15
ENDBRANCH   8   9
ENDBRANCH   6   8
BRANCH   6  27
HETATM   27  C   UNL     1      -7.450   8.433  65.112  1.00  0.00    -0.084 C  
HETATM   28  C   UNL     1      -6.098   9.135  64.769  1.00  0.00    -0.066 C  
HETATM   29  O   UNL     1      -5.437   8.818  63.781  1.00  0.00    -0.061 OA 
HETATM   30  C   UNL     1      -8.614   8.904  64.185  1.00  0.00    -0.128 C  
HETATM   31  O   UNL     1      -5.709  10.178  65.522  1.00  0.00    -0.063 OA 
HETATM   32  C   UNL     1      -9.379  10.132  64.667  1.00  0.00    -0.334 C  
HETATM   33  C   UNL     1      -8.228   9.045  62.711  1.00  0.00    -0.184 C  
ENDBRANCH   6  27
ENDBRANCH   4   5
ENDBRANCH   3   4
ENDBRANCH   2   3
TORSDOF 8
ENDMDL
MODEL      322
REMARK 921   NORMALIZED FREE ENERGY PREDICTED BY IDOCK:   -1.89 KCAL/MOL
REMARK 922        TOTAL FREE ENERGY PREDICTED BY IDOCK:   -3.29 KCAL/MOL
REMARK 923 INTER-LIGAND FREE ENERGY PREDICTED BY IDOCK:   -5.33 KCAL/MOL
REMARK 924 INTRA-LIGAND FREE ENERGY PREDICTED BY IDOCK:    2.04 KCAL/MOL
REMARK 927      BINDING AFFINITY PREDICTED BY RF-SCORE:    0.00 PKD
ROOT
HETATM    1  C   UNL     1      -8.984   4.092  65.933  1.00  0.00    -0.126 C  
HETATM    2  C   UNL     1      -8.072   3.813  67.110  1.00  0.00    -0.091 C  
ENDROOT
BRANCH   2   3
HETATM    3  C   UNL     1      -8.614   4.386  68.422  1.00  0.00    -0.106 C  
BRANCH   3   4
HETATM    4  C   UNL     1      -8.954   5.863  68.222  1.00  0.00    -0.112 C  
BRANCH   4   5
HETATM    5  C   UNL     1      -7.825   6.813  68.561  1.00  0.00    -0.118 C  
HETATM    6  N   UNL     1      -8.121   7.978  69.267  1.00  0.00    -0.117 N  
HETATM    7  O   UNL     1      -6.671   6.562  68.202  1.00  0.00    -0.063 OA 
BRANCH   6   8
HETATM    8  C   UNL     1      -9.497   8.295  69.748  1.00  0.00    -0.163 C  
BRANCH   8   9
HETATM    9  C   UNL     1     -10.286   9.231  68.847  1.00  0.00    -0.231 A  
HETATM   10  C   UNL     1     -10.601   8.850  67.543  1.00  0.00    -0.307 A  
HETATM   11  C   UNL     1     -11.035   9.804  66.609  1.00  0.00     0.114 A  
HETATM   12  C   UNL     1     -11.261  11.151  66.946  1.00  0.00    -0.258 A  
HETATM   13  C   UNL     1     -10.669  10.517  69.236  1.00  0.00    -0.269 A  
HETATM   14  C   UNL     1     -11.176  11.451  68.314  1.00  0.00    -0.326 A  
BRANCH  12  15
HETATM   15  C   UNL     1     -11.558  12.172  65.884  1.00  0.00    -0.425 A  
HETATM   16  C   UNL     1     -12.330  11.733  64.768  1.00  0.00     0.151 A  
HETATM   17  C   UNL     1     -12.571  12.522  63.642  1.00  0.00    -0.495 A  
HETATM   18  C   UNL     1     -12.086  13.816  63.600  1.00  0.00    -0.330 A  
HETATM   19  C   UNL     1     -11.369  14.305  64.689  1.00  0.00    -0.375 A  
HETATM   20  C   UNL     1     -11.085  13.512  65.833  1.00  0.00    -0.292 A  
BRANCH  20  21
HETATM   21  C   UNL     1     -10.286  14.192  66.851  1.00  0.00    -0.267 A  
HETATM   22  N   UNL     1      -9.862  15.469  66.734  1.00  0.00    -0.235 NA 
HETATM   23  N   UNL     1      -9.126  15.592  67.844  1.00  0.00    -0.184 NA 
HETATM   24  H   UNL     1     -10.051  16.151  66.000  1.00  0.00     0.000 HD 
HETATM   25  N   UNL     1      -9.085  14.516  68.640  1.00  0.00    -0.192 NA 
HETATM   26  N   UNL     1      -9.795  13.600  67.993  1.00  0.00    -0.236 NA 
ENDBRANCH  20  21
ENDBRANCH  12  15
ENDBRANCH   8   9
ENDBRANCH   6   8
BRANCH   6  27
HETATM   27  C   UNL     1      -7.001   8.850  69.784  1.00  0.00    -0.050 C  
HETATM   28  C   UNL     1      -6.015   9.562  68.804  1.00  0.00    -0.043 C  
HETATM   29  O   UNL     1      -5.539  10.668  69.056  1.00  0.00    -0.041 OA 
HETATM   30  C   UNL     1      -6.271   8.249  71.025  1.00  0.00    -0.034 C  
HETATM   31  O   UNL     1      -5.607   8.897  67.710  1.00  0.00    -0.035 OA 
HETATM   32  C   UNL     1      -5.754   6.825  70.854  1.00  0.00    -0.027 C  
HETATM   33  C   UNL     1      -5.191   9.154  71.621  1.00  0.00    -0.049 C  
ENDBRANCH   6  27
ENDBRANCH   4   5
ENDBRANCH   3   4
ENDBRANCH   2   3
TORSDOF 8
ENDMDL
MODEL      323
REMARK 921   NORMALIZED FREE ENERGY PREDICTED BY IDOCK:   -1.58 KCAL/MOL
REMARK 922        TOTAL FREE ENERGY PREDICTED BY IDOCK:   -2.85 KCAL/MOL
REMARK 923 INTER-LIGAND FREE ENERGY PREDICTED BY IDOCK:   -4.23 KCAL/MOL
REMARK 924 INTRA-LIGAND FREE ENERGY PREDICTED BY IDOCK:    1.38 KCAL/MOL
REMARK 927      BINDING AFFINITY PREDICTED BY RF-SCORE:    0.00 PKD
ROOT
HETATM    1  C   UNL     1      -9.348   8.708  71.124  1.00  0.00    -0.274 C  
HETATM    2  C   UNL     1      -8.027   8.292  70.508  1.00  0.00    -0.099 C  
ENDROOT
BRANCH   2   3
HETATM    3  C   UNL     1      -6.984   9.411  70.541  1.00  0.00    -0.105 C  
BRANCH   3   4
HETATM    4  C   UNL     1      -7.182  10.318  69.326  1.00  0.00    -0.093 C  
BRANCH   4   5
HETATM    5  C   UNL     1      -7.059   9.610  67.994  1.00  0.00    -0.080 C  
HETATM    6  N   UNL     1      -7.994   9.890  66.999  1.00  0.00    -0.109 N  
HETATM    7  O   UNL     1      -6.155   8.790  67.806  1.00  0.00    -0.046 OA 
BRANCH   6   8
HETATM    8  C   UNL     1      -9.076  10.901  67.178  1.00  0.00    -0.145 C  
BRANCH   8   9
HETATM    9  C   UNL     1      -8.631  12.345  67.013  1.00  0.00    -0.191 A  
HETATM   10  C   UNL     1      -7.472  12.799  67.642  1.00  0.00    -0.144 A  
HETATM   11  C   UNL     1      -7.224  14.175  67.766  1.00  0.00    -0.187 A  
HETATM   12  C   UNL     1      -8.059  15.154  67.199  1.00  0.00    -0.245 A  
HETATM   13  C   UNL     1      -9.372  13.292  66.300  1.00  0.00    -0.134 A  
HETATM   14  C   UNL     1      -9.076  14.666  66.365  1.00  0.00    -0.242 A  
BRANCH  12  15
HETATM   15  C   UNL     1      -7.853  16.612  67.499  1.00  0.00    -0.191 A  
HETATM   16  C   UNL     1      -6.873  17.297  66.722  1.00  0.00    -0.251 A  
HETATM   17  C   UNL     1      -6.473  18.609  66.973  1.00  0.00    -0.199 A  
HETATM   18  C   UNL     1      -7.074  19.322  67.993  1.00  0.00    -0.287 A  
HETATM   19  C   UNL     1      -8.072  18.711  68.748  1.00  0.00    -0.307 A  
HETATM   20  C   UNL     1      -8.477  17.367  68.531  1.00  0.00    -0.274 A  
BRANCH  20  21
HETATM   21  C   UNL     1      -9.509  16.895  69.452  1.00  0.00     0.068 A  
HETATM   22  N   UNL     1     -10.626  17.596  69.740  1.00  0.00    -0.110 NA 
HETATM   23  N   UNL     1     -11.189  16.806  70.661  1.00  0.00     0.045 NA 
HETATM   24  H   UNL     1     -10.952  18.484  69.359  1.00  0.00     0.000 HD 
HETATM   25  N   UNL     1     -10.530  15.675  70.942  1.00  0.00     0.048 NA 
HETATM   26  N   UNL     1      -9.432  15.740  70.198  1.00  0.00     0.187 NA 
ENDBRANCH  20  21
ENDBRANCH  12  15
ENDBRANCH   8   9
ENDBRANCH   6   8
BRANCH   6  27
HETATM   27  C   UNL     1      -7.792   9.348  65.603  1.00  0.00    -0.099 C  
HETATM   28  C   UNL     1      -6.472   9.620  64.815  1.00  0.00    -0.090 C  
HETATM   29  O   UNL     1      -6.000   8.791  64.039  1.00  0.00    -0.070 OA 
HETATM   30  C   UNL     1      -9.058   9.477  64.700  1.00  0.00    -0.263 C  
HETATM   31  O   UNL     1      -5.902  10.832  64.920  1.00  0.00    -0.095 OA 
HETATM   32  C   UNL     1      -9.657  10.877  64.609  1.00  0.00    -0.305 C  
HETATM   33  C   UNL     1      -8.908   8.856  63.310  1.00  0.00     0.056 C  
ENDBRANCH   6  27
ENDBRANCH   4   5
ENDBRANCH   3   4
ENDBRANCH   2   3
TORSDOF 8
ENDMDL
MODEL      324
REMARK 921   NORMALIZED FREE ENERGY PREDICTED BY IDOCK:   -1.45 KCAL/MOL
REMARK 922        TOTAL FREE ENERGY PREDICTED BY IDOCK:   -2.66 KCAL/MOL
REMARK 923 INTER-LIGAND FREE ENERGY PREDICTED BY IDOCK:   -3.01 KCAL/MOL
REMARK 924 INTRA-LIGAND FREE ENERGY PREDICTED BY IDOCK:    0.36 KCAL/MOL
REMARK 927      BINDING AFFINITY PREDICTED BY RF-SCORE:    0.00 PKD
ROOT
HETATM    1  C   UNL     1     -10.030  10.853  65.753  1.00  0.00    -0.299 C  
HETATM    2  C   UNL     1     -10.882  11.367  66.896  1.00  0.00    -0.335 C  
ENDROOT
BRANCH   2   3
HETATM    3  C   UNL     1     -10.669  12.859  67.163  1.00  0.00    -0.268 C  
BRANCH   3   4
HETATM    4  C   UNL     1     -10.236  13.052  68.616  1.00  0.00    -0.173 C  
BRANCH   4   5
HETATM    5  C   UNL     1      -9.290  14.213  68.835  1.00  0.00    -0.012 C  
HETATM    6  N   UNL     1      -7.995  14.126  68.326  1.00  0.00    -0.131 N  
HETATM    7  O   UNL     1      -9.660  15.208  69.466  1.00  0.00    -0.212 OA 
BRANCH   6   8
HETATM    8  C   UNL     1      -7.526  12.956  67.528  1.00  0.00    -0.155 C  
BRANCH   8   9
HETATM    9  C   UNL     1      -7.220  11.711  68.343  1.00  0.00    -0.088 A  
HETATM   10  C   UNL     1      -8.258  10.921  68.836  1.00  0.00    -0.141 A  
HETATM   11  C   UNL     1      -8.014   9.972  69.841  1.00  0.00    -0.184 A  
HETATM   12  C   UNL     1      -6.726   9.702  70.337  1.00  0.00    -0.104 A  
HETATM   13  C   UNL     1      -5.921  11.335  68.699  1.00  0.00    -0.042 A  
HETATM   14  C   UNL     1      -5.675  10.331  69.652  1.00  0.00    -0.039 A  
BRANCH  12  15
HETATM   15  C   UNL     1      -6.530   8.806  71.528  1.00  0.00    -0.074 A  
HETATM   16  C   UNL     1      -6.434   9.441  72.801  1.00  0.00     0.524 A  
HETATM   17  C   UNL     1      -6.115   8.761  73.977  1.00  0.00    -0.117 A  
HETATM   18  C   UNL     1      -5.924   7.392  73.942  1.00  0.00    -0.064 A  
HETATM   19  C   UNL     1      -6.056   6.721  72.728  1.00  0.00    -0.053 A  
HETATM   20  C   UNL     1      -6.350   7.395  71.513  1.00  0.00    -0.036 A  
BRANCH  20  21
HETATM   21  C   UNL     1      -6.408   6.523  70.342  1.00  0.00    -0.043 A  
HETATM   22  N   UNL     1      -5.720   5.366  70.241  1.00  0.00    -0.015 NA 
HETATM   23  N   UNL     1      -6.032   4.994  68.995  1.00  0.00    -0.020 NA 
HETATM   24  H   UNL     1      -5.124   4.902  70.927  1.00  0.00     0.000 HD 
HETATM   25  N   UNL     1      -6.870   5.806  68.337  1.00  0.00    -0.061 NA 
HETATM   26  N   UNL     1      -7.087   6.808  69.179  1.00  0.00    -0.085 NA 
ENDBRANCH  20  21
ENDBRANCH  12  15
ENDBRANCH   8   9
ENDBRANCH   6   8
BRANCH   6  27
HETATM   27  C   UNL     1      -7.090  15.334  68.361  1.00  0.00    -0.111 C  
HETATM   28  C   UNL     1      -5.874  15.460  67.389  1.00  0.00     0.096 C  
HETATM   29  O   UNL     1      -5.512  16.548  66.943  1.00  0.00    -0.300 OA 
HETATM   30  C   UNL     1      -6.743  15.807  69.807  1.00  0.00    -0.140 C  
HETATM   31  O   UNL     1      -5.154  14.359  67.119  1.00  0.00    -0.079 OA 
HETATM   32  C   UNL     1      -6.173  14.733  70.727  1.00  0.00    -0.025 C  
HETATM   33  C   UNL     1      -5.899  17.082  69.868  1.00  0.00    -0.228 C  
ENDBRANCH   6  27
ENDBRANCH   4   5
ENDBRANCH   3   4
ENDBRANCH   2   3
TORSDOF 8
ENDMDL
MODEL      325
REMARK 921   NORMALIZED FREE ENERGY PREDICTED BY IDOCK:   -1.31 KCAL/MOL
REMARK 922        TOTAL FREE ENERGY PREDICTED BY IDOCK:   -2.45 KCAL/MOL
REMARK 923 INTER-LIGAND FREE ENERGY PREDICTED BY IDOCK:   -3.58 KCAL/MOL
REMARK 924 INTRA-LIGAND FREE ENERGY PREDICTED BY IDOCK:    1.12 KCAL/MOL
REMARK 927      BINDING AFFINITY PREDICTED BY RF-SCORE:    0.00 PKD
ROOT
HETATM    1  C   UNL     1     -11.237  10.592  68.204  1.00  0.00    -0.357 C  
HETATM    2  C   UNL     1     -10.206   9.486  68.306  1.00  0.00    -0.225 C  
ENDROOT
BRANCH   2   3
HETATM    3  C   UNL     1     -10.793   8.105  68.004  1.00  0.00    -0.009 C  
BRANCH   3   4
HETATM    4  C   UNL     1     -10.744   7.857  66.496  1.00  0.00     0.342 C  
BRANCH   4   5
HETATM    5  C   UNL     1      -9.635   8.595  65.779  1.00  0.00    -0.064 C  
HETATM    6  N   UNL     1      -8.423   7.940  65.567  1.00  0.00    -0.146 N  
HETATM    7  O   UNL     1      -9.802   9.760  65.407  1.00  0.00    -0.306 OA 
BRANCH   6   8
HETATM    8  C   UNL     1      -8.199   6.521  65.971  1.00  0.00    -0.127 C  
BRANCH   8   9
HETATM    9  C   UNL     1      -7.669   6.338  67.383  1.00  0.00    -0.097 A  
HETATM   10  C   UNL     1      -7.754   5.095  68.011  1.00  0.00    -0.084 A  
HETATM   11  C   UNL     1      -7.572   4.985  69.398  1.00  0.00    -0.061 A  
HETATM   12  C   UNL     1      -7.213   6.077  70.208  1.00  0.00    -0.076 A  
HETATM   13  C   UNL     1      -7.146   7.390  68.142  1.00  0.00    -0.085 A  
HETATM   14  C   UNL     1      -6.893   7.256  69.519  1.00  0.00    -0.050 A  
BRANCH  12  15
HETATM   15  C   UNL     1      -7.197   5.954  71.706  1.00  0.00    -0.091 A  
HETATM   16  C   UNL     1      -5.922   5.786  72.323  1.00  0.00    -0.039 A  
HETATM   17  C   UNL     1      -5.756   5.522  73.683  1.00  0.00    -0.028 A  
HETATM   18  C   UNL     1      -6.865   5.460  74.506  1.00  0.00    -0.077 A  
HETATM   19  C   UNL     1      -8.128   5.666  73.956  1.00  0.00    -0.109 A  
HETATM   20  C   UNL     1      -8.325   5.907  72.570  1.00  0.00    -0.116 A  
BRANCH  20  21
HETATM   21  C   UNL     1      -9.726   6.059  72.181  1.00  0.00    -0.154 A  
HETATM   22  N   UNL     1     -10.120   6.418  70.941  1.00  0.00    -0.185 NA 
HETATM   23  N   UNL     1     -11.444   6.497  71.109  1.00  0.00    -0.311 NA 
HETATM   24  H   UNL     1      -9.560   6.584  70.105  1.00  0.00     0.000 HD 
HETATM   25  N   UNL     1     -11.896   6.191  72.332  1.00  0.00    -0.283 NA 
HETATM   26  N   UNL     1     -10.799   5.945  73.037  1.00  0.00    -0.253 NA 
ENDBRANCH  20  21
ENDBRANCH  12  15
ENDBRANCH   8   9
ENDBRANCH   6   8
BRANCH   6  27
HETATM   27  C   UNL     1      -7.367   8.575  64.694  1.00  0.00    -0.092 C  
HETATM   28  C   UNL     1      -7.709   9.779  63.760  1.00  0.00    -0.135 C  
HETATM   29  O   UNL     1      -6.894  10.671  63.531  1.00  0.00     0.011 OA 
HETATM   30  C   UNL     1      -6.429   7.537  64.003  1.00  0.00    -0.049 C  
HETATM   31  O   UNL     1      -8.889   9.776  63.118  1.00  0.00    -0.213 OA 
HETATM   32  C   UNL     1      -7.135   6.442  63.212  1.00  0.00    -0.050 C  
HETATM   33  C   UNL     1      -5.296   8.158  63.184  1.00  0.00    -0.058 C  
ENDBRANCH   6  27
ENDBRANCH   4   5
ENDBRANCH   3   4
ENDBRANCH   2   3
TORSDOF 8
ENDMDL
MODEL      326
REMARK 921   NORMALIZED FREE ENERGY PREDICTED BY IDOCK:   -1.11 KCAL/MOL
REMARK 922        TOTAL FREE ENERGY PREDICTED BY IDOCK:   -2.15 KCAL/MOL
REMARK 923 INTER-LIGAND FREE ENERGY PREDICTED BY IDOCK:   -3.81 KCAL/MOL
REMARK 924 INTRA-LIGAND FREE ENERGY PREDICTED BY IDOCK:    1.65 KCAL/MOL
REMARK 927      BINDING AFFINITY PREDICTED BY RF-SCORE:    0.00 PKD
ROOT
HETATM    1  C   UNL     1     -11.325   6.428  68.777  1.00  0.00    -0.252 C  
HETATM    2  C   UNL     1     -10.776   6.766  67.406  1.00  0.00    -0.405 C  
ENDROOT
BRANCH   2   3
HETATM    3  C   UNL     1     -10.303   8.218  67.304  1.00  0.00    -0.372 C  
BRANCH   3   4
HETATM    4  C   UNL     1     -10.060   8.767  68.710  1.00  0.00    -0.213 C  
BRANCH   4   5
HETATM    5  C   UNL     1     -10.286  10.258  68.844  1.00  0.00    -0.205 C  
HETATM    6  N   UNL     1      -9.191  11.113  68.725  1.00  0.00    -0.172 N  
HETATM    7  O   UNL     1     -11.416  10.699  69.070  1.00  0.00    -0.261 OA 
BRANCH   6   8
HETATM    8  C   UNL     1      -7.818  10.618  68.416  1.00  0.00    -0.113 C  
BRANCH   8   9
HETATM    9  C   UNL     1      -7.295   9.557  69.370  1.00  0.00    -0.084 A  
HETATM   10  C   UNL     1      -6.247   8.721  68.985  1.00  0.00    -0.044 A  
HETATM   11  C   UNL     1      -5.970   7.549  69.706  1.00  0.00    -0.024 A  
HETATM   12  C   UNL     1      -6.656   7.200  70.884  1.00  0.00    -0.048 A  
HETATM   13  C   UNL     1      -7.863   9.315  70.624  1.00  0.00    -0.181 A  
HETATM   14  C   UNL     1      -7.530   8.178  71.382  1.00  0.00    -0.079 A  
BRANCH  12  15
HETATM   15  C   UNL     1      -6.449   5.859  71.528  1.00  0.00    -0.049 A  
HETATM   16  C   UNL     1      -5.931   5.856  72.857  1.00  0.00    -0.037 A  
HETATM   17  C   UNL     1      -5.557   4.695  73.534  1.00  0.00    -0.009 A  
HETATM   18  C   UNL     1      -5.731   3.466  72.926  1.00  0.00    -0.004 A  
HETATM   19  C   UNL     1      -6.280   3.415  71.648  1.00  0.00    -0.014 A  
HETATM   20  C   UNL     1      -6.641   4.584  70.926  1.00  0.00    -0.031 A  
BRANCH  20  21
HETATM   21  C   UNL     1      -7.163   4.325  69.586  1.00  0.00    -0.050 A  
HETATM   22  N   UNL     1      -6.888   3.205  68.884  1.00  0.00    -0.044 NA 
HETATM   23  N   UNL     1      -7.508   3.473  67.729  1.00  0.00    -0.061 NA 
HETATM   24  H   UNL     1      -6.354   2.381  69.159  1.00  0.00     0.000 HD 
HETATM   25  N   UNL     1      -8.158   4.642  67.673  1.00  0.00    -0.100 NA 
HETATM   26  N   UNL     1      -7.911   5.213  68.846  1.00  0.00    -0.085 NA 
ENDBRANCH  20  21
ENDBRANCH  12  15
ENDBRANCH   8   9
ENDBRANCH   6   8
BRANCH   6  27
HETATM   27  C   UNL     1      -9.407  12.607  68.665  1.00  0.00     0.023 C  
HETATM   28  C   UNL     1     -10.669  13.212  67.974  1.00  0.00    -0.233 C  
HETATM   29  O   UNL     1     -11.201  14.242  68.386  1.00  0.00    -0.248 OA 
HETATM   30  C   UNL     1      -8.108  13.407  68.333  1.00  0.00    -0.138 C  
HETATM   31  O   UNL     1     -11.115  12.642  66.842  1.00  0.00    -0.254 OA 
HETATM   32  C   UNL     1      -7.368  12.960  67.077  1.00  0.00     0.131 C  
HETATM   33  C   UNL     1      -8.282  14.926  68.353  1.00  0.00    -0.151 C  
ENDBRANCH   6  27
ENDBRANCH   4   5
ENDBRANCH   3   4
ENDBRANCH   2   3
TORSDOF 8
ENDMDL
MODEL      327
REMARK 921   NORMALIZED FREE ENERGY PREDICTED BY IDOCK:   -1.03 KCAL/MOL
REMARK 922        TOTAL FREE ENERGY PREDICTED BY IDOCK:   -2.03 KCAL/MOL
REMARK 923 INTER-LIGAND FREE ENERGY PREDICTED BY IDOCK:   -5.77 KCAL/MOL
REMARK 924 INTRA-LIGAND FREE ENERGY PREDICTED BY IDOCK:    3.74 KCAL/MOL
REMARK 927      BINDING AFFINITY PREDICTED BY RF-SCORE:    0.00 PKD
ROOT
HETATM    1  C   UNL     1      -5.186  17.817  67.765  1.00  0.00    -0.136 C  
HETATM    2  C   UNL     1      -5.135  17.729  66.253  1.00  0.00    -0.212 C  
ENDROOT
BRANCH   2   3
HETATM    3  C   UNL     1      -6.383  18.313  65.588  1.00  0.00    -0.300 C  
BRANCH   3   4
HETATM    4  C   UNL     1      -7.540  17.325  65.737  1.00  0.00     0.170 C  
BRANCH   4   5
HETATM    5  C   UNL     1      -8.602  17.753  66.727  1.00  0.00    -0.252 C  
HETATM    6  N   UNL     1      -8.625  17.153  67.984  1.00  0.00    -0.221 N  
HETATM    7  O   UNL     1      -9.437  18.607  66.414  1.00  0.00    -0.317 OA 
BRANCH   6   8
HETATM    8  C   UNL     1      -7.609  16.146  68.410  1.00  0.00    -0.158 C  
BRANCH   8   9
HETATM    9  C   UNL     1      -7.908  14.720  67.977  1.00  0.00    -0.134 A  
HETATM   10  C   UNL     1      -6.872  13.795  67.840  1.00  0.00    -0.159 A  
HETATM   11  C   UNL     1      -7.079  12.594  67.145  1.00  0.00    -0.035 A  
HETATM   12  C   UNL     1      -8.334  12.215  66.635  1.00  0.00    -0.051 A  
HETATM   13  C   UNL     1      -9.190  14.283  67.630  1.00  0.00    -0.194 A  
HETATM   14  C   UNL     1      -9.406  13.044  67.000  1.00  0.00    -0.236 A  
BRANCH  12  15
HETATM   15  C   UNL     1      -8.475  11.007  65.752  1.00  0.00    -0.119 A  
HETATM   16  C   UNL     1      -7.387  10.087  65.743  1.00  0.00    -0.117 A  
HETATM   17  C   UNL     1      -7.310   8.996  64.876  1.00  0.00    -0.100 A  
HETATM   18  C   UNL     1      -8.352   8.745  64.003  1.00  0.00    -0.146 A  
HETATM   19  C   UNL     1      -9.460   9.589  64.011  1.00  0.00     0.141 A  
HETATM   20  C   UNL     1      -9.548  10.723  64.862  1.00  0.00    -0.307 A  
BRANCH  20  21
HETATM   21  C   UNL     1     -10.770  11.506  64.693  1.00  0.00    -0.319 A  
HETATM   22  N   UNL     1     -11.073  12.179  63.562  1.00  0.00    -0.535 NA 
HETATM   23  N   UNL     1     -12.211  12.781  63.925  1.00  0.00    -0.521 NA 
HETATM   24  H   UNL     1     -10.571  12.217  62.675  1.00  0.00     0.000 HD 
HETATM   25  N   UNL     1     -12.643  12.516  65.164  1.00  0.00    -0.650 NA 
HETATM   26  N   UNL     1     -11.706  11.728  65.678  1.00  0.00    -0.316 NA 
ENDBRANCH  20  21
ENDBRANCH  12  15
ENDBRANCH   8   9
ENDBRANCH   6   8
BRANCH   6  27
HETATM   27  C   UNL     1      -9.545  17.687  69.056  1.00  0.00    -0.140 C  
HETATM   28  C   UNL     1     -10.848  16.924  69.455  1.00  0.00    -0.186 C  
HETATM   29  O   UNL     1     -11.270  16.924  70.610  1.00  0.00     0.001 OA 
HETATM   30  C   UNL     1      -9.765  19.229  68.972  1.00  0.00    -0.453 C  
HETATM   31  O   UNL     1     -11.571  16.340  68.484  1.00  0.00    -0.346 OA 
HETATM   32  C   UNL     1     -10.226  19.751  67.616  1.00  0.00    -0.569 C  
HETATM   33  C   UNL     1     -10.622  19.807  70.100  1.00  0.00     1.148 C  
ENDBRANCH   6  27
ENDBRANCH   4   5
ENDBRANCH   3   4
ENDBRANCH   2   3
TORSDOF 8
ENDMDL
MODEL      328
REMARK 921   NORMALIZED FREE ENERGY PREDICTED BY IDOCK:   -0.53 KCAL/MOL
REMARK 922        TOTAL FREE ENERGY PREDICTED BY IDOCK:   -1.30 KCAL/MOL
REMARK 923 INTER-LIGAND FREE ENERGY PREDICTED BY IDOCK:   -2.37 KCAL/MOL
REMARK 924 INTRA-LIGAND FREE ENERGY PREDICTED BY IDOCK:    1.06 KCAL/MOL
REMARK 927      BINDING AFFINITY PREDICTED BY RF-SCORE:    0.00 PKD
ROOT
HETATM    1  C   UNL     1     -11.945  10.996  65.467  1.00  0.00     1.603 C  
HETATM    2  C   UNL     1     -10.885  12.045  65.201  1.00  0.00    -0.347 C  
ENDROOT
BRANCH   2   3
HETATM    3  C   UNL     1     -10.860  13.140  66.270  1.00  0.00    -0.292 C  
BRANCH   3   4
HETATM    4  C   UNL     1      -9.426  13.643  66.439  1.00  0.00    -0.248 C  
BRANCH   4   5
HETATM    5  C   UNL     1      -9.321  15.081  66.901  1.00  0.00    -0.241 C  
HETATM    6  N   UNL     1      -8.106  15.532  67.413  1.00  0.00    -0.162 N  
HETATM    7  O   UNL     1     -10.301  15.829  66.836  1.00  0.00    -0.282 OA 
BRANCH   6   8
HETATM    8  C   UNL     1      -6.891  14.667  67.472  1.00  0.00    -0.149 C  
BRANCH   8   9
HETATM    9  C   UNL     1      -6.965  13.536  68.484  1.00  0.00    -0.102 A  
HETATM   10  C   UNL     1      -5.954  13.375  69.432  1.00  0.00    -0.099 A  
HETATM   11  C   UNL     1      -5.838  12.175  70.150  1.00  0.00    -0.162 A  
HETATM   12  C   UNL     1      -6.763  11.122  70.028  1.00  0.00    -0.058 A  
HETATM   13  C   UNL     1      -7.981  12.576  68.480  1.00  0.00    -0.097 A  
HETATM   14  C   UNL     1      -7.900  11.407  69.258  1.00  0.00     0.098 A  
BRANCH  12  15
HETATM   15  C   UNL     1      -6.509   9.792  70.682  1.00  0.00    -0.109 A  
HETATM   16  C   UNL     1      -6.246   9.805  72.083  1.00  0.00     0.484 A  
HETATM   17  C   UNL     1      -5.858   8.674  72.803  1.00  0.00    -0.079 A  
HETATM   18  C   UNL     1      -5.762   7.456  72.157  1.00  0.00    -0.037 A  
HETATM   19  C   UNL     1      -6.058   7.385  70.798  1.00  0.00    -0.035 A  
HETATM   20  C   UNL     1      -6.425   8.527  70.038  1.00  0.00    -0.038 A  
BRANCH  20  21
HETATM   21  C   UNL     1      -6.657   8.255  68.620  1.00  0.00    -0.054 A  
HETATM   22  N   UNL     1      -5.663   8.037  67.732  1.00  0.00    -0.037 NA 
HETATM   23  N   UNL     1      -6.361   7.925  66.597  1.00  0.00    -0.049 NA 
HETATM   24  H   UNL     1      -4.657   7.976  67.886  1.00  0.00     0.000 HD 
HETATM   25  N   UNL     1      -7.691   8.027  66.716  1.00  0.00    -0.097 NA 
HETATM   26  N   UNL     1      -7.888   8.276  68.005  1.00  0.00    -0.116 NA 
ENDBRANCH  20  21
ENDBRANCH  12  15
ENDBRANCH   8   9
ENDBRANCH   6   8
BRANCH   6  27
HETATM   27  C   UNL     1      -7.911  17.001  67.705  1.00  0.00    -0.171 C  
HETATM   28  C   UNL     1      -8.048  18.072  66.577  1.00  0.00    -0.269 C  
HETATM   29  O   UNL     1      -8.497  19.195  66.803  1.00  0.00    -0.280 OA 
HETATM   30  C   UNL     1      -6.705  17.289  68.653  1.00  0.00    -0.192 C  
HETATM   31  O   UNL     1      -7.566  17.782  65.357  1.00  0.00    -0.326 OA 
HETATM   32  C   UNL     1      -5.373  16.687  68.219  1.00  0.00    -0.115 C  
HETATM   33  C   UNL     1      -6.541  18.762  69.034  1.00  0.00    -0.306 C  
ENDBRANCH   6  27
ENDBRANCH   4   5
ENDBRANCH   3   4
ENDBRANCH   2   3
TORSDOF 8
ENDMDL
MODEL      329
REMARK 921   NORMALIZED FREE ENERGY PREDICTED BY IDOCK:   -0.48 KCAL/MOL
REMARK 922        TOTAL FREE ENERGY PREDICTED BY IDOCK:   -1.22 KCAL/MOL
REMARK 923 INTER-LIGAND FREE ENERGY PREDICTED BY IDOCK:   -1.62 KCAL/MOL
REMARK 924 INTRA-LIGAND FREE ENERGY PREDICTED BY IDOCK:    0.40 KCAL/MOL
REMARK 927      BINDING AFFINITY PREDICTED BY RF-SCORE:    0.00 PKD
ROOT
HETATM    1  C   UNL     1      -6.386  11.750  64.546  1.00  0.00     3.551 C  
HETATM    2  C   UNL     1      -7.548  11.057  65.230  1.00  0.00     0.308 C  
ENDROOT
BRANCH   2   3
HETATM    3  C   UNL     1      -7.207  10.599  66.650  1.00  0.00    -0.128 C  
BRANCH   3   4
HETATM    4  C   UNL     1      -7.430   9.090  66.757  1.00  0.00    -0.086 C  
BRANCH   4   5
HETATM    5  C   UNL     1      -7.885   8.624  68.123  1.00  0.00    -0.103 C  
HETATM    6  N   UNL     1      -9.251   8.589  68.398  1.00  0.00    -0.135 N  
HETATM    7  O   UNL     1      -7.055   8.298  68.978  1.00  0.00    -0.063 OA 
BRANCH   6   8
HETATM    8  C   UNL     1     -10.282   8.941  67.378  1.00  0.00    -0.249 C  
BRANCH   8   9
HETATM    9  C   UNL     1     -10.707  10.399  67.382  1.00  0.00    -0.338 A  
HETATM   10  C   UNL     1     -11.251  10.975  66.233  1.00  0.00    -0.008 A  
HETATM   11  C   UNL     1     -11.347  12.370  66.115  1.00  0.00    -0.398 A  
HETATM   12  C   UNL     1     -10.996  13.249  67.155  1.00  0.00    -0.288 A  
HETATM   13  C   UNL     1     -10.519  11.244  68.479  1.00  0.00    -0.218 A  
HETATM   14  C   UNL     1     -10.689  12.637  68.380  1.00  0.00    -0.260 A  
BRANCH  12  15
HETATM   15  C   UNL     1     -10.951  14.734  66.929  1.00  0.00    -0.328 A  
HETATM   16  C   UNL     1     -10.317  15.184  65.734  1.00  0.00    -0.359 A  
HETATM   17  C   UNL     1     -10.076  16.528  65.451  1.00  0.00    -0.098 A  
HETATM   18  C   UNL     1     -10.505  17.499  66.337  1.00  0.00    -0.277 A  
HETATM   19  C   UNL     1     -11.173  17.110  67.495  1.00  0.00     0.172 A  
HETATM   20  C   UNL     1     -11.404  15.746  67.820  1.00  0.00    -0.240 A  
BRANCH  20  21
HETATM   21  C   UNL     1     -12.085  15.541  69.097  1.00  0.00    -0.240 A  
HETATM   22  N   UNL     1     -11.847  16.288  70.196  1.00  0.00    -0.356 NA 
HETATM   23  N   UNL     1     -12.629  15.675  71.091  1.00  0.00    -0.436 NA 
HETATM   24  H   UNL     1     -11.238  17.098  70.311  1.00  0.00     0.000 HD 
HETATM   25  N   UNL     1     -13.342  14.639  70.631  1.00  0.00    -0.237 NA 
HETATM   26  N   UNL     1     -12.972  14.522  69.362  1.00  0.00     0.471 NA 
ENDBRANCH  20  21
ENDBRANCH  12  15
ENDBRANCH   8   9
ENDBRANCH   6   8
BRANCH   6  27
HETATM   27  C   UNL     1      -9.745   7.954  69.676  1.00  0.00    -0.173 C  
HETATM   28  C   UNL     1      -9.253   8.458  71.070  1.00  0.00    -0.168 C  
HETATM   29  O   UNL     1      -9.989   8.452  72.056  1.00  0.00    -0.227 OA 
HETATM   30  C   UNL     1      -9.825   6.397  69.604  1.00  0.00    -0.182 C  
HETATM   31  O   UNL     1      -7.964   8.809  71.206  1.00  0.00    -0.124 OA 
HETATM   32  C   UNL     1      -8.545   5.696  69.164  1.00  0.00    -0.105 C  
HETATM   33  C   UNL     1     -10.407   5.737  70.855  1.00  0.00    -0.299 C  
ENDBRANCH   6  27
ENDBRANCH   4   5
ENDBRANCH   3   4
ENDBRANCH   2   3
TORSDOF 8
ENDMDL
MODEL      330
REMARK 921   NORMALIZED FREE ENERGY PREDICTED BY IDOCK:   -0.47 KCAL/MOL
REMARK 922        TOTAL FREE ENERGY PREDICTED BY IDOCK:   -1.22 KCAL/MOL
REMARK 923 INTER-LIGAND FREE ENERGY PREDICTED BY IDOCK:   -4.84 KCAL/MOL
REMARK 924 INTRA-LIGAND FREE ENERGY PREDICTED BY IDOCK:    3.62 KCAL/MOL
REMARK 927      BINDING AFFINITY PREDICTED BY RF-SCORE:    0.00 PKD
ROOT
HETATM    1  C   UNL     1     -12.046  11.684  68.577  1.00  0.00    -0.148 C  
HETATM    2  C   UNL     1     -10.997  10.905  69.343  1.00  0.00    -0.304 C  
ENDROOT
BRANCH   2   3
HETATM    3  C   UNL     1     -10.944   9.431  68.934  1.00  0.00    -0.081 C  
BRANCH   3   4
HETATM    4  C   UNL     1      -9.678   8.795  69.511  1.00  0.00    -0.172 C  
BRANCH   4   5
HETATM    5  C   UNL     1      -9.865   7.379  70.011  1.00  0.00    -0.179 C  
HETATM    6  N   UNL     1      -8.808   6.479  69.883  1.00  0.00    -0.143 N  
HETATM    7  O   UNL     1     -10.940   7.031  70.507  1.00  0.00    -0.245 OA 
BRANCH   6   8
HETATM    8  C   UNL     1      -7.483   6.876  69.322  1.00  0.00    -0.094 C  
BRANCH   8   9
HETATM    9  C   UNL     1      -7.420   8.294  68.781  1.00  0.00    -0.096 A  
HETATM   10  C   UNL     1      -7.114   9.358  69.631  1.00  0.00    -0.064 A  
HETATM   11  C   UNL     1      -7.364  10.680  69.233  1.00  0.00    -0.119 A  
HETATM   12  C   UNL     1      -7.841  11.013  67.953  1.00  0.00    -0.110 A  
HETATM   13  C   UNL     1      -7.726   8.617  67.456  1.00  0.00    -0.098 A  
HETATM   14  C   UNL     1      -7.903   9.949  67.039  1.00  0.00    -0.102 A  
BRANCH  12  15
HETATM   15  C   UNL     1      -8.256  12.420  67.625  1.00  0.00    -0.169 A  
HETATM   16  C   UNL     1      -7.826  13.442  68.521  1.00  0.00    -0.115 A  
HETATM   17  C   UNL     1      -8.244  14.770  68.429  1.00  0.00    -0.154 A  
HETATM   18  C   UNL     1      -9.082  15.151  67.398  1.00  0.00    -0.199 A  
HETATM   19  C   UNL     1      -9.488  14.197  66.469  1.00  0.00    -0.303 A  
HETATM   20  C   UNL     1      -9.101  12.833  66.558  1.00  0.00    -0.150 A  
BRANCH  20  21
HETATM   21  C   UNL     1      -9.663  11.980  65.513  1.00  0.00    -0.202 A  
HETATM   22  N   UNL     1      -8.942  11.499  64.477  1.00  0.00    -0.386 NA 
HETATM   23  N   UNL     1      -9.893  10.868  63.780  1.00  0.00    -0.306 NA 
HETATM   24  H   UNL     1      -7.946  11.592  64.280  1.00  0.00     0.000 HD 
HETATM   25  N   UNL     1     -11.122  10.897  64.310  1.00  0.00     0.038 NA 
HETATM   26  N   UNL     1     -10.992  11.639  65.403  1.00  0.00    -0.292 NA 
ENDBRANCH  20  21
ENDBRANCH  12  15
ENDBRANCH   8   9
ENDBRANCH   6   8
BRANCH   6  27
HETATM   27  C   UNL     1      -8.892   5.121  70.538  1.00  0.00    -0.119 C  
HETATM   28  C   UNL     1      -9.134   4.980  72.074  1.00  0.00    -0.136 C  
HETATM   29  O   UNL     1      -9.786   4.048  72.543  1.00  0.00    -0.143 OA 
HETATM   30  C   UNL     1      -7.823   4.113  70.012  1.00  0.00    -0.052 C  
HETATM   31  O   UNL     1      -8.527   5.848  72.901  1.00  0.00    -0.121 OA 
HETATM   32  C   UNL     1      -6.380   4.602  70.066  1.00  0.00    -0.030 C  
HETATM   33  C   UNL     1      -7.943   2.704  70.597  1.00  0.00    -0.049 C  
ENDBRANCH   6  27
ENDBRANCH   4   5
ENDBRANCH   3   4
ENDBRANCH   2   3
TORSDOF 8
ENDMDL
MODEL      331
REMARK 921   NORMALIZED FREE ENERGY PREDICTED BY IDOCK:   -0.46 KCAL/MOL
REMARK 922        TOTAL FREE ENERGY PREDICTED BY IDOCK:   -1.21 KCAL/MOL
REMARK 923 INTER-LIGAND FREE ENERGY PREDICTED BY IDOCK:   -1.99 KCAL/MOL
REMARK 924 INTRA-LIGAND FREE ENERGY PREDICTED BY IDOCK:    0.78 KCAL/MOL
REMARK 927      BINDING AFFINITY PREDICTED BY RF-SCORE:    0.00 PKD
ROOT
HETATM    1  C   UNL     1      -5.126  17.368  67.585  1.00  0.00    -0.128 C  
HETATM    2  C   UNL     1      -5.419  17.676  66.131  1.00  0.00    -0.237 C  
ENDROOT
BRANCH   2   3
HETATM    3  C   UNL     1      -6.873  18.093  65.899  1.00  0.00    -0.333 C  
BRANCH   3   4
HETATM    4  C   UNL     1      -7.777  16.869  66.049  1.00  0.00    -0.100 C  
BRANCH   4   5
HETATM    5  C   UNL     1      -8.917  17.053  67.026  1.00  0.00    -0.221 C  
HETATM    6  N   UNL     1      -8.896  16.336  68.221  1.00  0.00    -0.184 N  
HETATM    7  O   UNL     1      -9.852  17.814  66.757  1.00  0.00    -0.291 OA 
BRANCH   6   8
HETATM    8  C   UNL     1      -7.765  15.437  68.596  1.00  0.00    -0.143 C  
BRANCH   8   9
HETATM    9  C   UNL     1      -7.934  13.990  68.165  1.00  0.00    -0.149 A  
HETATM   10  C   UNL     1      -7.036  13.016  68.605  1.00  0.00    -0.103 A  
HETATM   11  C   UNL     1      -6.982  11.763  67.975  1.00  0.00    -0.076 A  
HETATM   12  C   UNL     1      -7.867  11.388  66.949  1.00  0.00    -0.158 A  
HETATM   13  C   UNL     1      -8.926  13.572  67.273  1.00  0.00    -0.222 A  
HETATM   14  C   UNL     1      -8.914  12.288  66.698  1.00  0.00    -0.189 A  
BRANCH  12  15
HETATM   15  C   UNL     1      -7.667  10.108  66.186  1.00  0.00    -0.113 A  
HETATM   16  C   UNL     1      -7.007  10.207  64.926  1.00  0.00    -0.131 A  
HETATM   17  C   UNL     1      -6.871   9.134  64.044  1.00  0.00    -0.089 A  
HETATM   18  C   UNL     1      -7.350   7.889  64.406  1.00  0.00    -0.087 A  
HETATM   19  C   UNL     1      -7.958   7.733  65.649  1.00  0.00    -0.118 A  
HETATM   20  C   UNL     1      -8.135   8.816  66.552  1.00  0.00    -0.103 A  
BRANCH  20  21
HETATM   21  C   UNL     1      -8.831   8.459  67.787  1.00  0.00    -0.137 A  
HETATM   22  N   UNL     1      -8.277   7.706  68.761  1.00  0.00    -0.127 NA 
HETATM   23  N   UNL     1      -9.306   7.597  69.610  1.00  0.00    -0.157 NA 
HETATM   24  H   UNL     1      -7.334   7.325  68.831  1.00  0.00     0.000 HD 
HETATM   25  N   UNL     1     -10.427   8.237  69.254  1.00  0.00    -0.219 NA 
HETATM   26  N   UNL     1     -10.144   8.762  68.068  1.00  0.00    -0.187 NA 
ENDBRANCH  20  21
ENDBRANCH  12  15
ENDBRANCH   8   9
ENDBRANCH   6   8
BRANCH   6  27
HETATM   27  C   UNL     1      -9.914  16.634  69.297  1.00  0.00    -0.222 C  
HETATM   28  C   UNL     1     -11.363  16.058  69.219  1.00  0.00    -0.356 C  
HETATM   29  O   UNL     1     -11.987  15.740  70.230  1.00  0.00    -0.357 OA 
HETATM   30  C   UNL     1      -9.892  18.120  69.774  1.00  0.00     0.637 C  
HETATM   31  O   UNL     1     -11.968  16.007  68.021  1.00  0.00    -0.017 OA 
HETATM   32  C   UNL     1     -10.015  19.164  68.669  1.00  0.00    -0.486 C  
HETATM   33  C   UNL     1     -10.853  18.427  70.924  1.00  0.00     2.814 C  
ENDBRANCH   6  27
ENDBRANCH   4   5
ENDBRANCH   3   4
ENDBRANCH   2   3
TORSDOF 8
ENDMDL
MODEL      332
REMARK 921   NORMALIZED FREE ENERGY PREDICTED BY IDOCK:   -0.45 KCAL/MOL
REMARK 922        TOTAL FREE ENERGY PREDICTED BY IDOCK:   -1.19 KCAL/MOL
REMARK 923 INTER-LIGAND FREE ENERGY PREDICTED BY IDOCK:   -2.24 KCAL/MOL
REMARK 924 INTRA-LIGAND FREE ENERGY PREDICTED BY IDOCK:    1.05 KCAL/MOL
REMARK 927      BINDING AFFINITY PREDICTED BY RF-SCORE:    0.00 PKD
ROOT
HETATM    1  C   UNL     1      -5.637  17.507  67.307  1.00  0.00    -0.155 C  
HETATM    2  C   UNL     1      -6.054  17.855  65.893  1.00  0.00    -0.257 C  
ENDROOT
BRANCH   2   3
HETATM    3  C   UNL     1      -7.550  18.157  65.778  1.00  0.00    -0.070 C  
BRANCH   3   4
HETATM    4  C   UNL     1      -8.334  16.848  65.874  1.00  0.00    -0.013 C  
BRANCH   4   5
HETATM    5  C   UNL     1      -9.412  16.845  66.936  1.00  0.00    -0.251 C  
HETATM    6  N   UNL     1      -9.253  16.021  68.050  1.00  0.00    -0.193 N  
HETATM    7  O   UNL     1     -10.418  17.549  66.805  1.00  0.00    -0.320 OA 
BRANCH   6   8
HETATM    8  C   UNL     1      -8.034  15.186  68.259  1.00  0.00    -0.129 C  
BRANCH   8   9
HETATM    9  C   UNL     1      -8.110  13.790  67.664  1.00  0.00    -0.181 A  
HETATM   10  C   UNL     1      -9.348  13.185  67.447  1.00  0.00    -0.213 A  
HETATM   11  C   UNL     1      -9.433  11.805  67.207  1.00  0.00    -0.173 A  
HETATM   12  C   UNL     1      -8.299  10.982  67.084  1.00  0.00    -0.132 A  
HETATM   13  C   UNL     1      -6.977  13.024  67.374  1.00  0.00    -0.123 A  
HETATM   14  C   UNL     1      -7.068  11.656  67.060  1.00  0.00    -0.145 A  
BRANCH  12  15
HETATM   15  C   UNL     1      -8.435   9.488  67.000  1.00  0.00    -0.128 A  
HETATM   16  C   UNL     1      -8.454   8.773  68.233  1.00  0.00    -0.130 A  
HETATM   17  C   UNL     1      -8.436   7.381  68.315  1.00  0.00    -0.125 A  
HETATM   18  C   UNL     1      -8.447   6.630  67.155  1.00  0.00    -0.113 A  
HETATM   19  C   UNL     1      -8.479   7.284  65.926  1.00  0.00    -0.148 A  
HETATM   20  C   UNL     1      -8.467   8.700  65.816  1.00  0.00    -0.165 A  
BRANCH  20  21
HETATM   21  C   UNL     1      -8.463   9.195  64.441  1.00  0.00    -0.184 A  
HETATM   22  N   UNL     1      -8.462   8.388  63.359  1.00  0.00    -0.396 NA 
HETATM   23  N   UNL     1      -8.376   9.287  62.373  1.00  0.00    -0.161 NA 
HETATM   24  H   UNL     1      -8.512   7.370  63.308  1.00  0.00     0.000 HD 
HETATM   25  N   UNL     1      -8.353  10.571  62.754  1.00  0.00    -0.171 NA 
HETATM   26  N   UNL     1      -8.371  10.521  64.080  1.00  0.00    -0.138 NA 
ENDBRANCH  20  21
ENDBRANCH  12  15
ENDBRANCH   8   9
ENDBRANCH   6   8
BRANCH   6  27
HETATM   27  C   UNL     1     -10.210  16.133  69.212  1.00  0.00    -0.257 C  
HETATM   28  C   UNL     1     -11.630  15.484  69.154  1.00  0.00    -0.362 C  
HETATM   29  O   UNL     1     -12.168  15.015  70.155  1.00  0.00    -0.310 OA 
HETATM   30  C   UNL     1     -10.235  17.553  69.860  1.00  0.00     0.494 C  
HETATM   31  O   UNL     1     -12.310  15.536  67.997  1.00  0.00     0.248 OA 
HETATM   32  C   UNL     1     -10.485  18.707  68.897  1.00  0.00     0.042 C  
HETATM   33  C   UNL     1     -11.131  17.667  71.095  1.00  0.00     2.114 C  
ENDBRANCH   6  27
ENDBRANCH   4   5
ENDBRANCH   3   4
ENDBRANCH   2   3
TORSDOF 8
ENDMDL
MODEL      333
REMARK 921   NORMALIZED FREE ENERGY PREDICTED BY IDOCK:   -0.34 KCAL/MOL
REMARK 922        TOTAL FREE ENERGY PREDICTED BY IDOCK:   -1.02 KCAL/MOL
REMARK 923 INTER-LIGAND FREE ENERGY PREDICTED BY IDOCK:   -2.65 KCAL/MOL
REMARK 924 INTRA-LIGAND FREE ENERGY PREDICTED BY IDOCK:    1.63 KCAL/MOL
REMARK 927      BINDING AFFINITY PREDICTED BY RF-SCORE:    0.00 PKD
ROOT
HETATM    1  C   UNL     1     -11.923  11.021  65.444  1.00  0.00     1.552 C  
HETATM    2  C   UNL     1     -10.938  12.143  65.185  1.00  0.00    -0.355 C  
ENDROOT
BRANCH   2   3
HETATM    3  C   UNL     1     -10.960  13.210  66.282  1.00  0.00    -0.295 C  
BRANCH   3   4
HETATM    4  C   UNL     1      -9.570  13.836  66.399  1.00  0.00    -0.285 C  
BRANCH   4   5
HETATM    5  C   UNL     1      -9.565  15.236  66.976  1.00  0.00    -0.224 C  
HETATM    6  N   UNL     1      -8.359  15.768  67.430  1.00  0.00    -0.158 N  
HETATM    7  O   UNL     1     -10.614  15.881  67.053  1.00  0.00    -0.305 OA 
BRANCH   6   8
HETATM    8  C   UNL     1      -7.066  15.031  67.318  1.00  0.00    -0.099 C  
BRANCH   8   9
HETATM    9  C   UNL     1      -6.952  13.808  68.212  1.00  0.00    -0.109 A  
HETATM   10  C   UNL     1      -5.731  13.146  68.345  1.00  0.00    -0.081 A  
HETATM   11  C   UNL     1      -5.678  11.855  68.894  1.00  0.00    -0.051 A  
HETATM   12  C   UNL     1      -6.810  11.202  69.414  1.00  0.00    -0.125 A  
HETATM   13  C   UNL     1      -8.046  13.247  68.877  1.00  0.00     0.171 A  
HETATM   14  C   UNL     1      -7.972  11.985  69.493  1.00  0.00     0.862 A  
BRANCH  12  15
HETATM   15  C   UNL     1      -6.744   9.761  69.834  1.00  0.00    -0.078 A  
HETATM   16  C   UNL     1      -5.731   9.411  70.775  1.00  0.00    -0.053 A  
HETATM   17  C   UNL     1      -5.456   8.097  71.155  1.00  0.00    -0.033 A  
HETATM   18  C   UNL     1      -6.221   7.065  70.644  1.00  0.00    -0.032 A  
HETATM   19  C   UNL     1      -7.254   7.363  69.759  1.00  0.00    -0.081 A  
HETATM   20  C   UNL     1      -7.535   8.689  69.334  1.00  0.00    -0.080 A  
BRANCH  20  21
HETATM   21  C   UNL     1      -8.631   8.792  68.373  1.00  0.00    -0.134 A  
HETATM   22  N   UNL     1      -9.917   8.998  68.729  1.00  0.00    -0.176 NA 
HETATM   23  N   UNL     1     -10.522   8.933  67.539  1.00  0.00    -0.268 NA 
HETATM   24  H   UNL     1     -10.316   9.158  69.654  1.00  0.00     0.000 HD 
HETATM   25  N   UNL     1      -9.719   8.733  66.486  1.00  0.00    -0.237 NA 
HETATM   26  N   UNL     1      -8.508   8.605  67.014  1.00  0.00    -0.109 NA 
ENDBRANCH  20  21
ENDBRANCH  12  15
ENDBRANCH   8   9
ENDBRANCH   6   8
BRANCH   6  27
HETATM   27  C   UNL     1      -8.282  17.221  67.833  1.00  0.00    -0.219 C  
HETATM   28  C   UNL     1      -7.030  17.787  68.575  1.00  0.00    -0.238 C  
HETATM   29  O   UNL     1      -6.634  18.937  68.391  1.00  0.00    -0.229 OA 
HETATM   30  C   UNL     1      -9.619  17.772  68.422  1.00  0.00    -0.323 C  
HETATM   31  O   UNL     1      -6.440  17.023  69.509  1.00  0.00    -0.232 OA 
HETATM   32  C   UNL     1     -10.207  16.966  69.575  1.00  0.00    -0.139 C  
HETATM   33  C   UNL     1      -9.592  19.264  68.756  1.00  0.00    -0.485 C  
ENDBRANCH   6  27
ENDBRANCH   4   5
ENDBRANCH   3   4
ENDBRANCH   2   3
TORSDOF 8
ENDMDL
MODEL      334
REMARK 921   NORMALIZED FREE ENERGY PREDICTED BY IDOCK:   -0.30 KCAL/MOL
REMARK 922        TOTAL FREE ENERGY PREDICTED BY IDOCK:   -0.96 KCAL/MOL
REMARK 923 INTER-LIGAND FREE ENERGY PREDICTED BY IDOCK:   -4.42 KCAL/MOL
REMARK 924 INTRA-LIGAND FREE ENERGY PREDICTED BY IDOCK:    3.46 KCAL/MOL
REMARK 927      BINDING AFFINITY PREDICTED BY RF-SCORE:    0.00 PKD
ROOT
HETATM    1  C   UNL     1     -10.795   5.671  68.412  1.00  0.00    -0.161 C  
HETATM    2  C   UNL     1     -10.758   6.885  69.318  1.00  0.00    -0.265 C  
ENDROOT
BRANCH   2   3
HETATM    3  C   UNL     1     -10.310   8.152  68.587  1.00  0.00    -0.224 C  
BRANCH   3   4
HETATM    4  C   UNL     1      -8.797   8.099  68.371  1.00  0.00    -0.133 C  
BRANCH   4   5
HETATM    5  C   UNL     1      -7.989   8.022  69.648  1.00  0.00    -0.117 C  
HETATM    6  N   UNL     1      -8.314   8.878  70.698  1.00  0.00    -0.148 N  
HETATM    7  O   UNL     1      -7.050   7.226  69.743  1.00  0.00    -0.068 OA 
BRANCH   6   8
HETATM    8  C   UNL     1      -9.464   9.827  70.631  1.00  0.00     0.003 C  
BRANCH   8   9
HETATM    9  C   UNL     1      -9.300  10.955  69.627  1.00  0.00     0.341 A  
HETATM   10  C   UNL     1      -8.140  11.047  68.857  1.00  0.00    -0.135 A  
HETATM   11  C   UNL     1      -7.833  12.234  68.174  1.00  0.00    -0.148 A  
HETATM   12  C   UNL     1      -8.695  13.344  68.151  1.00  0.00    -0.179 A  
HETATM   13  C   UNL     1     -10.240  11.978  69.472  1.00  0.00     0.607 A  
HETATM   14  C   UNL     1      -9.959  13.136  68.724  1.00  0.00    -0.038 A  
BRANCH  12  15
HETATM   15  C   UNL     1      -8.254  14.652  67.554  1.00  0.00    -0.203 A  
HETATM   16  C   UNL     1      -7.054  15.222  68.071  1.00  0.00    -0.139 A  
HETATM   17  C   UNL     1      -6.592  16.491  67.719  1.00  0.00    -0.160 A  
HETATM   18  C   UNL     1      -7.290  17.236  66.787  1.00  0.00    -0.248 A  
HETATM   19  C   UNL     1      -8.442  16.699  66.217  1.00  0.00    -0.355 A  
HETATM   20  C   UNL     1      -8.949  15.423  66.582  1.00  0.00    -0.319 A  
BRANCH  20  21
HETATM   21  C   UNL     1     -10.189  15.054  65.902  1.00  0.00    -0.315 A  
HETATM   22  N   UNL     1     -10.226  14.348  64.752  1.00  0.00    -0.566 NA 
HETATM   23  N   UNL     1     -11.540  14.343  64.502  1.00  0.00    -0.395 NA 
HETATM   24  H   UNL     1      -9.462  13.934  64.219  1.00  0.00     0.000 HD 
HETATM   25  N   UNL     1     -12.310  14.957  65.409  1.00  0.00    -0.055 NA 
HETATM   26  N   UNL     1     -11.449  15.449  66.292  1.00  0.00    -0.087 NA 
ENDBRANCH  20  21
ENDBRANCH  12  15
ENDBRANCH   8   9
ENDBRANCH   6   8
BRANCH   6  27
HETATM   27  C   UNL     1      -7.656   8.700  72.046  1.00  0.00    -0.038 C  
HETATM   28  C   UNL     1      -6.252   8.027  72.175  1.00  0.00    -0.046 C  
HETATM   29  O   UNL     1      -5.444   8.377  73.034  1.00  0.00    -0.047 OA 
HETATM   30  C   UNL     1      -8.642   8.232  73.160  1.00  0.00    -0.278 C  
HETATM   31  O   UNL     1      -5.972   6.975  71.389  1.00  0.00    -0.036 OA 
HETATM   32  C   UNL     1      -9.452   6.982  72.834  1.00  0.00    -0.171 C  
HETATM   33  C   UNL     1      -8.018   8.130  74.553  1.00  0.00    -0.293 C  
ENDBRANCH   6  27
ENDBRANCH   4   5
ENDBRANCH   3   4
ENDBRANCH   2   3
TORSDOF 8
ENDMDL
MODEL      335
REMARK 921   NORMALIZED FREE ENERGY PREDICTED BY IDOCK:   -0.15 KCAL/MOL
REMARK 922        TOTAL FREE ENERGY PREDICTED BY IDOCK:   -0.75 KCAL/MOL
REMARK 923 INTER-LIGAND FREE ENERGY PREDICTED BY IDOCK:   -3.99 KCAL/MOL
REMARK 924 INTRA-LIGAND FREE ENERGY PREDICTED BY IDOCK:    3.24 KCAL/MOL
REMARK 927      BINDING AFFINITY PREDICTED BY RF-SCORE:    0.00 PKD
ROOT
HETATM    1  C   UNL     1     -11.378   7.338  69.383  1.00  0.00     0.064 C  
HETATM    2  C   UNL     1     -11.230   7.128  67.890  1.00  0.00     0.064 C  
ENDROOT
BRANCH   2   3
HETATM    3  C   UNL     1     -10.933   8.428  67.140  1.00  0.00     0.143 C  
BRANCH   3   4
HETATM    4  C   UNL     1     -10.730   9.556  68.152  1.00  0.00    -0.247 C  
BRANCH   4   5
HETATM    5  C   UNL     1     -11.156  10.922  67.657  1.00  0.00    -0.313 C  
HETATM    6  N   UNL     1     -10.250  11.676  66.912  1.00  0.00    -0.211 N  
HETATM    7  O   UNL     1     -12.279  11.359  67.924  1.00  0.00    -0.592 OA 
BRANCH   6   8
HETATM    8  C   UNL     1      -8.899  11.164  66.538  1.00  0.00    -0.171 C  
BRANCH   8   9
HETATM    9  C   UNL     1      -8.094  10.593  67.694  1.00  0.00    -0.107 A  
HETATM   10  C   UNL     1      -6.999   9.765  67.446  1.00  0.00    -0.084 A  
HETATM   11  C   UNL     1      -6.452   8.983  68.475  1.00  0.00    -0.054 A  
HETATM   12  C   UNL     1      -6.903   9.052  69.806  1.00  0.00    -0.050 A  
HETATM   13  C   UNL     1      -8.435  10.800  69.033  1.00  0.00    -0.137 A  
HETATM   14  C   UNL     1      -7.832  10.068  70.073  1.00  0.00    -0.172 A  
BRANCH  12  15
HETATM   15  C   UNL     1      -6.410   8.078  70.839  1.00  0.00    -0.037 A  
HETATM   16  C   UNL     1      -5.777   8.629  71.991  1.00  0.00    -0.055 A  
HETATM   17  C   UNL     1      -5.147   7.855  72.967  1.00  0.00    -0.036 A  
HETATM   18  C   UNL     1      -5.165   6.477  72.859  1.00  0.00    -0.036 A  
HETATM   19  C   UNL     1      -5.815   5.891  71.776  1.00  0.00    -0.030 A  
HETATM   20  C   UNL     1      -6.436   6.658  70.754  1.00  0.00    -0.052 A  
BRANCH  20  21
HETATM   21  C   UNL     1      -7.029   5.861  69.682  1.00  0.00    -0.067 A  
HETATM   22  N   UNL     1      -6.336   4.961  68.953  1.00  0.00    -0.031 NA 
HETATM   23  N   UNL     1      -7.269   4.572  68.078  1.00  0.00    -0.064 NA 
HETATM   24  H   UNL     1      -5.366   4.659  69.045  1.00  0.00     0.000 HD 
HETATM   25  N   UNL     1      -8.476   5.134  68.224  1.00  0.00    -0.096 NA 
HETATM   26  N   UNL     1      -8.322   5.990  69.227  1.00  0.00    -0.114 NA 
ENDBRANCH  20  21
ENDBRANCH  12  15
ENDBRANCH   8   9
ENDBRANCH   6   8
BRANCH   6  27
HETATM   27  C   UNL     1     -10.703  12.953  66.245  1.00  0.00    -0.274 C  
HETATM   28  C   UNL     1      -9.683  14.075  65.874  1.00  0.00    -0.225 C  
HETATM   29  O   UNL     1      -9.828  14.775  64.873  1.00  0.00    -0.200 OA 
HETATM   30  C   UNL     1     -12.025  13.529  66.844  1.00  0.00    -0.447 C  
HETATM   31  O   UNL     1      -8.681  14.338  66.729  1.00  0.00    -0.211 OA 
HETATM   32  C   UNL     1     -12.025  13.730  68.355  1.00  0.00    -0.395 C  
HETATM   33  C   UNL     1     -12.551  14.774  66.127  1.00  0.00     0.248 C  
ENDBRANCH   6  27
ENDBRANCH   4   5
ENDBRANCH   3   4
ENDBRANCH   2   3
TORSDOF 8
ENDMDL
MODEL      336
REMARK 921   NORMALIZED FREE ENERGY PREDICTED BY IDOCK:   -0.04 KCAL/MOL
REMARK 922        TOTAL FREE ENERGY PREDICTED BY IDOCK:   -0.58 KCAL/MOL
REMARK 923 INTER-LIGAND FREE ENERGY PREDICTED BY IDOCK:   -2.86 KCAL/MOL
REMARK 924 INTRA-LIGAND FREE ENERGY PREDICTED BY IDOCK:    2.27 KCAL/MOL
REMARK 927      BINDING AFFINITY PREDICTED BY RF-SCORE:    0.00 PKD
ROOT
HETATM    1  C   UNL     1     -12.053  10.870  65.489  1.00  0.00     2.406 C  
HETATM    2  C   UNL     1     -10.947  11.887  65.293  1.00  0.00    -0.354 C  
ENDROOT
BRANCH   2   3
HETATM    3  C   UNL     1     -10.861  12.891  66.444  1.00  0.00    -0.293 C  
BRANCH   3   4
HETATM    4  C   UNL     1      -9.414  13.366  66.589  1.00  0.00    -0.264 C  
BRANCH   4   5
HETATM    5  C   UNL     1      -9.268  14.733  67.223  1.00  0.00    -0.203 C  
HETATM    6  N   UNL     1      -8.010  15.131  67.671  1.00  0.00    -0.147 N  
HETATM    7  O   UNL     1     -10.251  15.468  67.350  1.00  0.00    -0.248 OA 
BRANCH   6   8
HETATM    8  C   UNL     1      -6.794  14.284  67.500  1.00  0.00    -0.135 C  
BRANCH   8   9
HETATM    9  C   UNL     1      -6.908  12.883  68.079  1.00  0.00    -0.108 A  
HETATM   10  C   UNL     1      -5.927  12.399  68.945  1.00  0.00    -0.070 A  
HETATM   11  C   UNL     1      -5.844  11.027  69.228  1.00  0.00    -0.043 A  
HETATM   12  C   UNL     1      -6.774  10.091  68.742  1.00  0.00    -0.049 A  
HETATM   13  C   UNL     1      -7.933  11.999  67.732  1.00  0.00    -0.147 A  
HETATM   14  C   UNL     1      -7.886  10.636  68.081  1.00  0.00    -0.110 A  
BRANCH  12  15
HETATM   15  C   UNL     1      -6.553   8.616  68.925  1.00  0.00    -0.053 A  
HETATM   16  C   UNL     1      -5.498   8.025  68.169  1.00  0.00    -0.033 A  
HETATM   17  C   UNL     1      -5.259   6.651  68.127  1.00  0.00    -0.008 A  
HETATM   18  C   UNL     1      -6.042   5.800  68.885  1.00  0.00    -0.025 A  
HETATM   19  C   UNL     1      -7.052   6.336  69.678  1.00  0.00    -0.073 A  
HETATM   20  C   UNL     1      -7.335   7.728  69.715  1.00  0.00    -0.080 A  
BRANCH  20  21
HETATM   21  C   UNL     1      -8.459   8.090  70.577  1.00  0.00    -0.125 A  
HETATM   22  N   UNL     1      -9.749   7.855  70.255  1.00  0.00    -0.182 NA 
HETATM   23  N   UNL     1     -10.375   8.424  71.291  1.00  0.00    -0.204 NA 
HETATM   24  H   UNL     1     -10.139   7.375  69.444  1.00  0.00     0.000 HD 
HETATM   25  N   UNL     1      -9.583   8.961  72.228  1.00  0.00    -0.300 NA 
HETATM   26  N   UNL     1      -8.353   8.784  71.761  1.00  0.00    -0.319 NA 
ENDBRANCH  20  21
ENDBRANCH  12  15
ENDBRANCH   8   9
ENDBRANCH   6   8
BRANCH   6  27
HETATM   27  C   UNL     1      -7.791  16.552  68.133  1.00  0.00    -0.168 C  
HETATM   28  C   UNL     1      -8.071  17.761  67.185  1.00  0.00    -0.214 C  
HETATM   29  O   UNL     1      -8.497  18.833  67.612  1.00  0.00    -0.267 OA 
HETATM   30  C   UNL     1      -6.480  16.740  68.959  1.00  0.00    -0.195 C  
HETATM   31  O   UNL     1      -7.741  17.647  65.888  1.00  0.00    -0.508 OA 
HETATM   32  C   UNL     1      -5.207  16.232  68.291  1.00  0.00    -0.102 C  
HETATM   33  C   UNL     1      -6.280  18.152  69.513  1.00  0.00    -0.235 C  
ENDBRANCH   6  27
ENDBRANCH   4   5
ENDBRANCH   3   4
ENDBRANCH   2   3
TORSDOF 8
ENDMDL
MODEL      337
REMARK 921   NORMALIZED FREE ENERGY PREDICTED BY IDOCK:    0.01 KCAL/MOL
REMARK 922        TOTAL FREE ENERGY PREDICTED BY IDOCK:   -0.51 KCAL/MOL
REMARK 923 INTER-LIGAND FREE ENERGY PREDICTED BY IDOCK:   -2.62 KCAL/MOL
REMARK 924 INTRA-LIGAND FREE ENERGY PREDICTED BY IDOCK:    2.10 KCAL/MOL
REMARK 927      BINDING AFFINITY PREDICTED BY RF-SCORE:    0.00 PKD
ROOT
HETATM    1  C   UNL     1     -14.390  13.430  71.319  1.00  0.00     1.248 C  
HETATM    2  C   UNL     1     -12.893  13.613  71.461  1.00  0.00    -0.445 C  
ENDROOT
BRANCH   2   3
HETATM    3  C   UNL     1     -12.372  14.825  70.685  1.00  0.00    -0.401 C  
BRANCH   3   4
HETATM    4  C   UNL     1     -10.878  14.996  70.964  1.00  0.00    -0.040 C  
BRANCH   4   5
HETATM    5  C   UNL     1     -10.024  15.126  69.721  1.00  0.00    -0.135 C  
HETATM    6  N   UNL     1     -10.303  14.308  68.628  1.00  0.00    -0.243 N  
HETATM    7  O   UNL     1      -9.090  15.933  69.690  1.00  0.00    -0.226 OA 
BRANCH   6   8
HETATM    8  C   UNL     1     -11.447  13.349  68.618  1.00  0.00    -0.310 C  
BRANCH   8   9
HETATM    9  C   UNL     1     -11.090  11.940  68.174  1.00  0.00    -0.294 A  
HETATM   10  C   UNL     1     -10.486  11.054  69.065  1.00  0.00    -0.242 A  
HETATM   11  C   UNL     1      -9.867   9.885  68.596  1.00  0.00    -0.168 A  
HETATM   12  C   UNL     1      -9.895   9.498  67.244  1.00  0.00    -0.228 A  
HETATM   13  C   UNL     1     -11.275  11.485  66.865  1.00  0.00    -0.363 A  
HETATM   14  C   UNL     1     -10.717  10.275  66.414  1.00  0.00    -0.103 A  
BRANCH  12  15
HETATM   15  C   UNL     1      -9.077   8.335  66.757  1.00  0.00    -0.190 A  
HETATM   16  C   UNL     1      -9.755   7.089  66.611  1.00  0.00    -0.226 A  
HETATM   17  C   UNL     1      -9.107   5.893  66.303  1.00  0.00    -0.157 A  
HETATM   18  C   UNL     1      -7.743   5.895  66.076  1.00  0.00    -0.099 A  
HETATM   19  C   UNL     1      -7.046   7.098  66.159  1.00  0.00    -0.073 A  
HETATM   20  C   UNL     1      -7.678   8.324  66.501  1.00  0.00    -0.092 A  
BRANCH  20  21
HETATM   21  C   UNL     1      -6.771   9.467  66.575  1.00  0.00    -0.072 A  
HETATM   22  N   UNL     1      -6.370  10.171  65.495  1.00  0.00    -0.094 NA 
HETATM   23  N   UNL     1      -5.512  11.029  66.057  1.00  0.00    -0.141 NA 
HETATM   24  H   UNL     1      -6.647  10.074  64.518  1.00  0.00     0.000 HD 
HETATM   25  N   UNL     1      -5.374  10.930  67.386  1.00  0.00    -0.040 NA 
HETATM   26  N   UNL     1      -6.149   9.906  67.722  1.00  0.00    -0.054 NA 
ENDBRANCH  20  21
ENDBRANCH  12  15
ENDBRANCH   8   9
ENDBRANCH   6   8
BRANCH   6  27
HETATM   27  C   UNL     1      -9.598  14.541  67.313  1.00  0.00    -0.226 C  
HETATM   28  C   UNL     1      -8.240  15.310  67.252  1.00  0.00    -0.204 C  
HETATM   29  O   UNL     1      -7.372  15.024  66.429  1.00  0.00     0.552 OA 
HETATM   30  C   UNL     1     -10.563  14.950  66.157  1.00  0.00    -0.322 C  
HETATM   31  O   UNL     1      -8.069  16.373  68.055  1.00  0.00    -0.153 OA 
HETATM   32  C   UNL     1     -11.471  16.139  66.451  1.00  0.00     0.542 C  
HETATM   33  C   UNL     1      -9.884  15.106  64.795  1.00  0.00     0.382 C  
ENDBRANCH   6  27
ENDBRANCH   4   5
ENDBRANCH   3   4
ENDBRANCH   2   3
TORSDOF 8
ENDMDL
MODEL      338
REMARK 921   NORMALIZED FREE ENERGY PREDICTED BY IDOCK:    0.24 KCAL/MOL
REMARK 922        TOTAL FREE ENERGY PREDICTED BY IDOCK:   -0.18 KCAL/MOL
REMARK 923 INTER-LIGAND FREE ENERGY PREDICTED BY IDOCK:   -3.84 KCAL/MOL
REMARK 924 INTRA-LIGAND FREE ENERGY PREDICTED BY IDOCK:    3.66 KCAL/MOL
REMARK 927      BINDING AFFINITY PREDICTED BY RF-SCORE:    0.00 PKD
ROOT
HETATM    1  C   UNL     1     -10.874   9.916  68.902  1.00  0.00    -0.239 C  
HETATM    2  C   UNL     1     -10.391   8.646  69.572  1.00  0.00    -0.214 C  
ENDROOT
BRANCH   2   3
HETATM    3  C   UNL     1     -11.124   7.400  69.068  1.00  0.00     0.060 C  
BRANCH   3   4
HETATM    4  C   UNL     1     -10.961   7.300  67.551  1.00  0.00    -0.221 C  
BRANCH   4   5
HETATM    5  C   UNL     1      -9.908   8.223  66.976  1.00  0.00    -0.232 C  
HETATM    6  N   UNL     1      -8.667   7.690  66.631  1.00  0.00    -0.134 N  
HETATM    7  O   UNL     1     -10.146   9.427  66.834  1.00  0.00    -0.211 OA 
BRANCH   6   8
HETATM    8  C   UNL     1      -8.359   6.236  66.754  1.00  0.00    -0.110 C  
BRANCH   8   9
HETATM    9  C   UNL     1      -7.733   5.829  68.078  1.00  0.00    -0.096 A  
HETATM   10  C   UNL     1      -7.201   4.549  68.241  1.00  0.00    -0.064 A  
HETATM   11  C   UNL     1      -6.919   4.055  69.523  1.00  0.00    -0.045 A  
HETATM   12  C   UNL     1      -7.063   4.830  70.687  1.00  0.00    -0.045 A  
HETATM   13  C   UNL     1      -7.717   6.663  69.200  1.00  0.00    -0.106 A  
HETATM   14  C   UNL     1      -7.360   6.185  70.474  1.00  0.00    -0.085 A  
BRANCH  12  15
HETATM   15  C   UNL     1      -6.915   4.212  72.049  1.00  0.00    -0.046 A  
HETATM   16  C   UNL     1      -5.858   3.271  72.217  1.00  0.00    -0.009 A  
HETATM   17  C   UNL     1      -5.678   2.514  73.376  1.00  0.00     0.000 A  
HETATM   18  C   UNL     1      -6.528   2.701  74.450  1.00  0.00    -0.020 A  
HETATM   19  C   UNL     1      -7.546   3.646  74.351  1.00  0.00    -0.062 A  
HETATM   20  C   UNL     1      -7.768   4.407  73.171  1.00  0.00    -0.086 A  
BRANCH  20  21
HETATM   21  C   UNL     1      -8.909   5.316  73.250  1.00  0.00    -0.118 A  
HETATM   22  N   UNL     1     -10.156   4.982  72.854  1.00  0.00    -0.163 NA 
HETATM   23  N   UNL     1     -10.799   6.139  73.043  1.00  0.00    -0.249 NA 
HETATM   24  H   UNL     1     -10.510   4.091  72.507  1.00  0.00     0.000 HD 
HETATM   25  N   UNL     1     -10.064   7.141  73.543  1.00  0.00    -0.294 NA 
HETATM   26  N   UNL     1      -8.842   6.634  73.644  1.00  0.00    -0.124 NA 
ENDBRANCH  20  21
ENDBRANCH  12  15
ENDBRANCH   8   9
ENDBRANCH   6   8
BRANCH   6  27
HETATM   27  C   UNL     1      -7.665   8.538  65.884  1.00  0.00    -0.097 C  
HETATM   28  C   UNL     1      -6.764   9.569  66.633  1.00  0.00    -0.072 C  
HETATM   29  O   UNL     1      -5.613   9.808  66.268  1.00  0.00    -0.050 OA 
HETATM   30  C   UNL     1      -8.214   9.101  64.535  1.00  0.00    -0.152 C  
HETATM   31  O   UNL     1      -7.302  10.280  67.638  1.00  0.00    -0.087 OA 
HETATM   32  C   UNL     1      -9.533   9.859  64.631  1.00  0.00    -0.343 C  
HETATM   33  C   UNL     1      -7.188   9.890  63.718  1.00  0.00    -0.125 C  
ENDBRANCH   6  27
ENDBRANCH   4   5
ENDBRANCH   3   4
ENDBRANCH   2   3
TORSDOF 8
ENDMDL
MODEL      339
REMARK 921   NORMALIZED FREE ENERGY PREDICTED BY IDOCK:    0.45 KCAL/MOL
REMARK 922        TOTAL FREE ENERGY PREDICTED BY IDOCK:    0.13 KCAL/MOL
REMARK 923 INTER-LIGAND FREE ENERGY PREDICTED BY IDOCK:   -0.63 KCAL/MOL
REMARK 924 INTRA-LIGAND FREE ENERGY PREDICTED BY IDOCK:    0.77 KCAL/MOL
REMARK 927      BINDING AFFINITY PREDICTED BY RF-SCORE:    0.00 PKD
ROOT
HETATM    1  C   UNL     1      -6.366  11.827  64.510  1.00  0.00     3.551 C  
HETATM    2  C   UNL     1      -7.477  11.001  65.126  1.00  0.00     0.392 C  
ENDROOT
BRANCH   2   3
HETATM    3  C   UNL     1      -7.052  10.322  66.430  1.00  0.00    -0.112 C  
BRANCH   3   4
HETATM    4  C   UNL     1      -7.251   8.812  66.298  1.00  0.00    -0.086 C  
BRANCH   4   5
HETATM    5  C   UNL     1      -7.568   8.110  67.601  1.00  0.00    -0.098 C  
HETATM    6  N   UNL     1      -8.886   8.105  68.054  1.00  0.00    -0.132 N  
HETATM    7  O   UNL     1      -6.669   7.567  68.251  1.00  0.00    -0.054 OA 
BRANCH   6   8
HETATM    8  C   UNL     1     -10.003   8.717  67.277  1.00  0.00    -0.220 C  
BRANCH   8   9
HETATM    9  C   UNL     1     -10.241  10.191  67.561  1.00  0.00    -0.257 A  
HETATM   10  C   UNL     1     -10.915  10.985  66.633  1.00  0.00    -0.253 A  
HETATM   11  C   UNL     1     -10.863  12.385  66.724  1.00  0.00    -0.283 A  
HETATM   12  C   UNL     1     -10.221  13.055  67.781  1.00  0.00    -0.228 A  
HETATM   13  C   UNL     1      -9.753  10.834  68.701  1.00  0.00    -0.187 A  
HETATM   14  C   UNL     1      -9.769  12.236  68.826  1.00  0.00     0.017 A  
BRANCH  12  15
HETATM   15  C   UNL     1     -10.040  14.547  67.752  1.00  0.00    -0.225 A  
HETATM   16  C   UNL     1     -11.186  15.327  67.417  1.00  0.00    -0.311 A  
HETATM   17  C   UNL     1     -11.144  16.707  67.214  1.00  0.00     0.053 A  
HETATM   18  C   UNL     1      -9.952  17.385  67.388  1.00  0.00    -0.305 A  
HETATM   19  C   UNL     1      -8.816  16.672  67.764  1.00  0.00    -0.206 A  
HETATM   20  C   UNL     1      -8.827  15.263  67.946  1.00  0.00    -0.165 A  
BRANCH  20  21
HETATM   21  C   UNL     1      -7.528  14.694  68.301  1.00  0.00    -0.117 A  
HETATM   22  N   UNL     1      -6.358  15.134  67.790  1.00  0.00    -0.155 NA 
HETATM   23  N   UNL     1      -5.501  14.269  68.342  1.00  0.00    -0.100 NA 
HETATM   24  H   UNL     1      -6.178  15.913  67.157  1.00  0.00     0.000 HD 
HETATM   25  N   UNL     1      -6.038  13.358  69.164  1.00  0.00    -0.087 NA 
HETATM   26  N   UNL     1      -7.343  13.599  69.115  1.00  0.00    -0.017 NA 
ENDBRANCH  20  21
ENDBRANCH  12  15
ENDBRANCH   8   9
ENDBRANCH   6   8
BRANCH   6  27
HETATM   27  C   UNL     1      -9.269   7.258  69.245  1.00  0.00    -0.144 C  
HETATM   28  C   UNL     1      -8.539   7.416  70.616  1.00  0.00    -0.141 C  
HETATM   29  O   UNL     1      -9.130   7.263  71.684  1.00  0.00    -0.136 OA 
HETATM   30  C   UNL     1      -9.530   5.762  68.882  1.00  0.00    -0.149 C  
HETATM   31  O   UNL     1      -7.212   7.626  70.615  1.00  0.00    -0.060 OA 
HETATM   32  C   UNL     1      -8.407   5.069  68.119  1.00  0.00    -0.096 C  
HETATM   33  C   UNL     1     -10.006   4.903  70.055  1.00  0.00    -0.323 C  
ENDBRANCH   6  27
ENDBRANCH   4   5
ENDBRANCH   3   4
ENDBRANCH   2   3
TORSDOF 8
ENDMDL
MODEL      340
REMARK 921   NORMALIZED FREE ENERGY PREDICTED BY IDOCK:    0.72 KCAL/MOL
REMARK 922        TOTAL FREE ENERGY PREDICTED BY IDOCK:    0.52 KCAL/MOL
REMARK 923 INTER-LIGAND FREE ENERGY PREDICTED BY IDOCK:   -4.00 KCAL/MOL
REMARK 924 INTRA-LIGAND FREE ENERGY PREDICTED BY IDOCK:    4.52 KCAL/MOL
REMARK 927      BINDING AFFINITY PREDICTED BY RF-SCORE:    0.00 PKD
ROOT
HETATM    1  C   UNL     1     -11.602  11.133  65.255  1.00  0.00     0.415 C  
HETATM    2  C   UNL     1     -10.966  12.382  65.831  1.00  0.00    -0.323 C  
ENDROOT
BRANCH   2   3
HETATM    3  C   UNL     1     -10.391  12.156  67.232  1.00  0.00    -0.230 C  
BRANCH   3   4
HETATM    4  C   UNL     1     -10.949  13.218  68.180  1.00  0.00    -0.278 C  
BRANCH   4   5
HETATM    5  C   UNL     1      -9.893  14.046  68.879  1.00  0.00    -0.071 C  
HETATM    6  N   UNL     1      -8.598  13.538  68.972  1.00  0.00     0.240 N  
HETATM    7  O   UNL     1     -10.183  15.142  69.368  1.00  0.00    -0.228 OA 
BRANCH   6   8
HETATM    8  C   UNL     1      -8.203  12.236  68.361  1.00  0.00    -0.146 C  
BRANCH   8   9
HETATM    9  C   UNL     1      -8.747  11.009  69.072  1.00  0.00    -0.072 A  
HETATM   10  C   UNL     1      -7.948  10.309  69.977  1.00  0.00    -0.021 A  
HETATM   11  C   UNL     1      -8.307   9.017  70.391  1.00  0.00    -0.180 A  
HETATM   12  C   UNL     1      -9.509   8.399  70.001  1.00  0.00    -0.164 A  
HETATM   13  C   UNL     1     -10.017  10.482  68.817  1.00  0.00    -0.200 A  
HETATM   14  C   UNL     1     -10.405   9.217  69.296  1.00  0.00    -0.222 A  
BRANCH  12  15
HETATM   15  C   UNL     1      -9.775   6.955  70.325  1.00  0.00    -0.176 A  
HETATM   16  C   UNL     1     -10.360   6.679  71.596  1.00  0.00    -0.227 A  
HETATM   17  C   UNL     1     -10.539   5.388  72.095  1.00  0.00    -0.284 A  
HETATM   18  C   UNL     1     -10.182   4.302  71.318  1.00  0.00    -0.106 A  
HETATM   19  C   UNL     1      -9.653   4.522  70.049  1.00  0.00    -0.267 A  
HETATM   20  C   UNL     1      -9.433   5.826  69.530  1.00  0.00    -0.168 A  
BRANCH  20  21
HETATM   21  C   UNL     1      -8.833   5.849  68.198  1.00  0.00    -0.110 A  
HETATM   22  N   UNL     1      -9.121   4.946  67.236  1.00  0.00    -0.114 NA 
HETATM   23  N   UNL     1      -8.283   5.333  66.268  1.00  0.00    -0.109 NA 
HETATM   24  H   UNL     1      -9.793   4.179  67.246  1.00  0.00     0.000 HD 
HETATM   25  N   UNL     1      -7.531   6.406  66.542  1.00  0.00    -0.084 NA 
HETATM   26  N   UNL     1      -7.849   6.722  67.791  1.00  0.00    -0.111 NA 
ENDBRANCH  20  21
ENDBRANCH  12  15
ENDBRANCH   8   9
ENDBRANCH   6   8
BRANCH   6  27
HETATM   27  C   UNL     1      -7.482  14.413  69.492  1.00  0.00     0.033 C  
HETATM   28  C   UNL     1      -7.038  15.697  68.721  1.00  0.00    -0.127 C  
HETATM   29  O   UNL     1      -6.641  16.701  69.310  1.00  0.00    -0.191 OA 
HETATM   30  C   UNL     1      -6.267  13.605  70.045  1.00  0.00    -0.109 C  
HETATM   31  O   UNL     1      -6.997  15.655  67.378  1.00  0.00    -0.173 OA 
HETATM   32  C   UNL     1      -5.684  12.567  69.092  1.00  0.00    -0.075 C  
HETATM   33  C   UNL     1      -5.162  14.467  70.657  1.00  0.00    -0.122 C  
ENDBRANCH   6  27
ENDBRANCH   4   5
ENDBRANCH   3   4
ENDBRANCH   2   3
TORSDOF 8
ENDMDL
MODEL      341
REMARK 921   NORMALIZED FREE ENERGY PREDICTED BY IDOCK:    1.16 KCAL/MOL
REMARK 922        TOTAL FREE ENERGY PREDICTED BY IDOCK:    1.18 KCAL/MOL
REMARK 923 INTER-LIGAND FREE ENERGY PREDICTED BY IDOCK:   -2.21 KCAL/MOL
REMARK 924 INTRA-LIGAND FREE ENERGY PREDICTED BY IDOCK:    3.39 KCAL/MOL
REMARK 927      BINDING AFFINITY PREDICTED BY RF-SCORE:    0.00 PKD
ROOT
HETATM    1  C   UNL     1     -11.604  10.369  65.224  1.00  0.00     2.191 C  
HETATM    2  C   UNL     1     -11.162  11.713  65.766  1.00  0.00    -0.290 C  
ENDROOT
BRANCH   2   3
HETATM    3  C   UNL     1     -10.311  11.586  67.032  1.00  0.00    -0.254 C  
BRANCH   3   4
HETATM    4  C   UNL     1     -11.093  12.146  68.221  1.00  0.00    -0.288 C  
BRANCH   4   5
HETATM    5  C   UNL     1     -10.527  13.430  68.789  1.00  0.00    -0.186 C  
HETATM    6  N   UNL     1      -9.252  13.832  68.393  1.00  0.00    -0.198 N  
HETATM    7  O   UNL     1     -11.180  14.094  69.599  1.00  0.00    -0.247 OA 
BRANCH   6   8
HETATM    8  C   UNL     1      -8.450  13.074  67.388  1.00  0.00    -0.200 C  
BRANCH   8   9
HETATM    9  C   UNL     1      -7.714  11.866  67.943  1.00  0.00    -0.131 A  
HETATM   10  C   UNL     1      -6.740  11.224  67.178  1.00  0.00    -0.113 A  
HETATM   11  C   UNL     1      -6.289   9.943  67.531  1.00  0.00    -0.063 A  
HETATM   12  C   UNL     1      -6.714   9.280  68.697  1.00  0.00    -0.054 A  
HETATM   13  C   UNL     1      -8.012  11.299  69.185  1.00  0.00    -0.002 A  
HETATM   14  C   UNL     1      -7.499  10.046  69.571  1.00  0.00    -0.123 A  
BRANCH  12  15
HETATM   15  C   UNL     1      -6.341   7.846  68.948  1.00  0.00    -0.040 A  
HETATM   16  C   UNL     1      -5.908   7.087  67.822  1.00  0.00    -0.025 A  
HETATM   17  C   UNL     1      -5.661   5.715  67.868  1.00  0.00    -0.013 A  
HETATM   18  C   UNL     1      -5.791   5.039  69.067  1.00  0.00    -0.020 A  
HETATM   19  C   UNL     1      -6.164   5.749  70.206  1.00  0.00    -0.027 A  
HETATM   20  C   UNL     1      -6.450   7.140  70.178  1.00  0.00    -0.042 A  
BRANCH  20  21
HETATM   21  C   UNL     1      -6.863   7.694  71.466  1.00  0.00    -0.049 A  
HETATM   22  N   UNL     1      -8.134   8.052  71.749  1.00  0.00    -0.108 NA 
HETATM   23  N   UNL     1      -7.985   8.560  72.977  1.00  0.00    -0.382 NA 
HETATM   24  H   UNL     1      -8.976   7.960  71.181  1.00  0.00     0.000 HD 
HETATM   25  N   UNL     1      -6.744   8.520  73.479  1.00  0.00    -0.245 NA 
HETATM   26  N   UNL     1      -6.010   7.999  72.503  1.00  0.00    -0.043 NA 
ENDBRANCH  20  21
ENDBRANCH  12  15
ENDBRANCH   8   9
ENDBRANCH   6   8
BRANCH   6  27
HETATM   27  C   UNL     1      -8.735  15.194  68.790  1.00  0.00    -0.194 C  
HETATM   28  C   UNL     1      -9.457  16.498  68.324  1.00  0.00    -0.220 C  
HETATM   29  O   UNL     1      -9.500  17.502  69.033  1.00  0.00    -0.217 OA 
HETATM   30  C   UNL     1      -7.181  15.315  68.708  1.00  0.00    -0.127 C  
HETATM   31  O   UNL     1      -9.951  16.545  67.076  1.00  0.00    -0.254 OA 
HETATM   32  C   UNL     1      -6.564  14.920  67.371  1.00  0.00    -0.039 C  
HETATM   33  C   UNL     1      -6.627  16.657  69.190  1.00  0.00    -0.207 C  
ENDBRANCH   6  27
ENDBRANCH   4   5
ENDBRANCH   3   4
ENDBRANCH   2   3
TORSDOF 8
ENDMDL
MODEL      342
REMARK 921   NORMALIZED FREE ENERGY PREDICTED BY IDOCK:    1.21 KCAL/MOL
REMARK 922        TOTAL FREE ENERGY PREDICTED BY IDOCK:    1.25 KCAL/MOL
REMARK 923 INTER-LIGAND FREE ENERGY PREDICTED BY IDOCK:   -2.04 KCAL/MOL
REMARK 924 INTRA-LIGAND FREE ENERGY PREDICTED BY IDOCK:    3.29 KCAL/MOL
REMARK 927      BINDING AFFINITY PREDICTED BY RF-SCORE:    0.00 PKD
ROOT
HETATM    1  C   UNL     1     -10.818   9.322  67.917  1.00  0.00    -0.181 C  
HETATM    2  C   UNL     1     -10.327   8.048  68.575  1.00  0.00    -0.229 C  
ENDROOT
BRANCH   2   3
HETATM    3  C   UNL     1     -11.060   6.804  68.067  1.00  0.00    -0.246 C  
BRANCH   3   4
HETATM    4  C   UNL     1     -10.907   6.716  66.548  1.00  0.00     0.008 C  
BRANCH   4   5
HETATM    5  C   UNL     1      -9.859   7.645  65.973  1.00  0.00     0.267 C  
HETATM    6  N   UNL     1      -8.622   7.115  65.612  1.00  0.00    -0.137 N  
HETATM    7  O   UNL     1     -10.098   8.850  65.845  1.00  0.00    -0.194 OA 
BRANCH   6   8
HETATM    8  C   UNL     1      -8.312   5.660  65.718  1.00  0.00    -0.132 C  
BRANCH   8   9
HETATM    9  C   UNL     1      -7.669   5.241  67.029  1.00  0.00    -0.096 A  
HETATM   10  C   UNL     1      -6.858   4.107  67.084  1.00  0.00    -0.051 A  
HETATM   11  C   UNL     1      -6.525   3.530  68.319  1.00  0.00    -0.037 A  
HETATM   12  C   UNL     1      -6.903   4.095  69.550  1.00  0.00    -0.045 A  
HETATM   13  C   UNL     1      -7.903   5.904  68.237  1.00  0.00    -0.105 A  
HETATM   14  C   UNL     1      -7.502   5.361  69.471  1.00  0.00    -0.069 A  
BRANCH  12  15
HETATM   15  C   UNL     1      -6.675   3.357  70.840  1.00  0.00    -0.032 A  
HETATM   16  C   UNL     1      -5.433   2.671  70.977  1.00  0.00    -0.008 A  
HETATM   17  C   UNL     1      -5.132   1.833  72.052  1.00  0.00     0.000 A  
HETATM   18  C   UNL     1      -6.051   1.680  73.074  1.00  0.00    -0.008 A  
HETATM   19  C   UNL     1      -7.259   2.370  73.007  1.00  0.00    -0.036 A  
HETATM   20  C   UNL     1      -7.600   3.204  71.909  1.00  0.00    -0.053 A  
BRANCH  20  21
HETATM   21  C   UNL     1      -8.927   3.809  72.005  1.00  0.00    -0.109 A  
HETATM   22  N   UNL     1      -9.930   3.544  71.141  1.00  0.00    -0.105 NA 
HETATM   23  N   UNL     1     -10.876   4.376  71.589  1.00  0.00     0.267 NA 
HETATM   24  H   UNL     1      -9.959   2.888  70.360  1.00  0.00     0.000 HD 
HETATM   25  N   UNL     1     -10.550   5.105  72.664  1.00  0.00    -0.218 NA 
HETATM   26  N   UNL     1      -9.289   4.776  72.916  1.00  0.00    -0.127 NA 
ENDBRANCH  20  21
ENDBRANCH  12  15
ENDBRANCH   8   9
ENDBRANCH   6   8
BRANCH   6  27
HETATM   27  C   UNL     1      -7.626   7.971  64.864  1.00  0.00    -0.106 C  
HETATM   28  C   UNL     1      -8.023   8.702  63.543  1.00  0.00    -0.160 C  
HETATM   29  O   UNL     1      -7.555   9.800  63.246  1.00  0.00    -0.119 OA 
HETATM   30  C   UNL     1      -6.202   7.339  64.786  1.00  0.00    -0.037 C  
HETATM   31  O   UNL     1      -8.819   8.062  62.670  1.00  0.00     0.125 OA 
HETATM   32  C   UNL     1      -6.146   5.917  64.238  1.00  0.00    -0.025 C  
HETATM   33  C   UNL     1      -5.154   8.226  64.111  1.00  0.00    -0.040 C  
ENDBRANCH   6  27
ENDBRANCH   4   5
ENDBRANCH   3   4
ENDBRANCH   2   3
TORSDOF 8
ENDMDL
MODEL      343
REMARK 921   NORMALIZED FREE ENERGY PREDICTED BY IDOCK:    1.59 KCAL/MOL
REMARK 922        TOTAL FREE ENERGY PREDICTED BY IDOCK:    1.81 KCAL/MOL
REMARK 923 INTER-LIGAND FREE ENERGY PREDICTED BY IDOCK:   -1.08 KCAL/MOL
REMARK 924 INTRA-LIGAND FREE ENERGY PREDICTED BY IDOCK:    2.89 KCAL/MOL
REMARK 927      BINDING AFFINITY PREDICTED BY RF-SCORE:    0.00 PKD
ROOT
HETATM    1  C   UNL     1     -11.609  10.375  65.223  1.00  0.00     2.191 C  
HETATM    2  C   UNL     1     -11.220  11.777  65.647  1.00  0.00    -0.324 C  
ENDROOT
BRANCH   2   3
HETATM    3  C   UNL     1     -10.394  11.793  66.936  1.00  0.00    -0.247 C  
BRANCH   3   4
HETATM    4  C   UNL     1     -11.203  12.470  68.042  1.00  0.00    -0.316 C  
BRANCH   4   5
HETATM    5  C   UNL     1     -10.691  13.838  68.439  1.00  0.00    -0.254 C  
HETATM    6  N   UNL     1      -9.419  14.224  68.020  1.00  0.00    -0.198 N  
HETATM    7  O   UNL     1     -11.385  14.585  69.135  1.00  0.00    -0.249 OA 
BRANCH   6   8
HETATM    8  C   UNL     1      -8.567  13.362  67.148  1.00  0.00    -0.195 C  
BRANCH   8   9
HETATM    9  C   UNL     1      -7.789  12.285  67.886  1.00  0.00    -0.146 A  
HETATM   10  C   UNL     1      -6.790  11.567  67.229  1.00  0.00    -0.118 A  
HETATM   11  C   UNL     1      -6.293  10.375  67.780  1.00  0.00    -0.060 A  
HETATM   12  C   UNL     1      -6.696   9.891  69.037  1.00  0.00    -0.053 A  
HETATM   13  C   UNL     1      -8.069  11.912  69.203  1.00  0.00     0.290 A  
HETATM   14  C   UNL     1      -7.511  10.757  69.781  1.00  0.00    -0.028 A  
BRANCH  12  15
HETATM   15  C   UNL     1      -6.271   8.530  69.512  1.00  0.00    -0.036 A  
HETATM   16  C   UNL     1      -5.694   8.454  70.814  1.00  0.00    -0.032 A  
HETATM   17  C   UNL     1      -5.129   7.290  71.337  1.00  0.00    -0.027 A  
HETATM   18  C   UNL     1      -5.157   6.125  70.594  1.00  0.00    -0.013 A  
HETATM   19  C   UNL     1      -5.755   6.139  69.336  1.00  0.00    -0.016 A  
HETATM   20  C   UNL     1      -6.311   7.317  68.770  1.00  0.00    -0.035 A  
BRANCH  20  21
HETATM   21  C   UNL     1      -6.855   7.137  67.425  1.00  0.00    -0.070 A  
HETATM   22  N   UNL     1      -6.259   7.611  66.311  1.00  0.00    -0.044 NA 
HETATM   23  N   UNL     1      -7.157   7.272  65.380  1.00  0.00    -0.059 NA 
HETATM   24  H   UNL     1      -5.367   8.096  66.208  1.00  0.00     0.000 HD 
HETATM   25  N   UNL     1      -8.234   6.610  65.822  1.00  0.00    -0.129 NA 
HETATM   26  N   UNL     1      -8.068   6.551  67.138  1.00  0.00    -0.112 NA 
ENDBRANCH  20  21
ENDBRANCH  12  15
ENDBRANCH   8   9
ENDBRANCH   6   8
BRANCH   6  27
HETATM   27  C   UNL     1      -8.954  15.645  68.236  1.00  0.00    -0.181 C  
HETATM   28  C   UNL     1      -9.704  16.847  67.580  1.00  0.00    -0.249 C  
HETATM   29  O   UNL     1      -9.795  17.937  68.143  1.00  0.00    -0.300 OA 
HETATM   30  C   UNL     1      -7.403  15.806  68.168  1.00  0.00    -0.130 C  
HETATM   31  O   UNL     1     -10.169  16.706  66.328  1.00  0.00    -0.308 OA 
HETATM   32  C   UNL     1      -6.742  15.252  66.911  1.00  0.00     0.568 C  
HETATM   33  C   UNL     1      -6.902  17.219  68.472  1.00  0.00    -0.197 C  
ENDBRANCH   6  27
ENDBRANCH   4   5
ENDBRANCH   3   4
ENDBRANCH   2   3
TORSDOF 8
ENDMDL
MODEL      344
REMARK 921   NORMALIZED FREE ENERGY PREDICTED BY IDOCK:    1.61 KCAL/MOL
REMARK 922        TOTAL FREE ENERGY PREDICTED BY IDOCK:    1.84 KCAL/MOL
REMARK 923 INTER-LIGAND FREE ENERGY PREDICTED BY IDOCK:   -0.45 KCAL/MOL
REMARK 924 INTRA-LIGAND FREE ENERGY PREDICTED BY IDOCK:    2.29 KCAL/MOL
REMARK 927      BINDING AFFINITY PREDICTED BY RF-SCORE:    0.00 PKD
ROOT
HETATM    1  C   UNL     1     -12.102  10.809  65.502  1.00  0.00     2.844 C  
HETATM    2  C   UNL     1     -10.983  11.804  65.274  1.00  0.00    -0.350 C  
ENDROOT
BRANCH   2   3
HETATM    3  C   UNL     1     -10.880  12.841  66.395  1.00  0.00    -0.294 C  
BRANCH   3   4
HETATM    4  C   UNL     1      -9.427  13.301  66.522  1.00  0.00    -0.251 C  
BRANCH   4   5
HETATM    5  C   UNL     1      -9.264  14.708  67.056  1.00  0.00    -0.239 C  
HETATM    6  N   UNL     1      -8.002  15.119  67.482  1.00  0.00    -0.158 N  
HETATM    7  O   UNL     1     -10.237  15.465  67.124  1.00  0.00    -0.244 OA 
BRANCH   6   8
HETATM    8  C   UNL     1      -6.797  14.244  67.379  1.00  0.00    -0.015 C  
BRANCH   8   9
HETATM    9  C   UNL     1      -6.943  12.883  68.038  1.00  0.00    -0.108 A  
HETATM   10  C   UNL     1      -7.609  11.850  67.379  1.00  0.00    -0.151 A  
HETATM   11  C   UNL     1      -8.030  10.711  68.084  1.00  0.00    -0.113 A  
HETATM   12  C   UNL     1      -7.733  10.505  69.443  1.00  0.00    -0.157 A  
HETATM   13  C   UNL     1      -6.494  12.614  69.334  1.00  0.00    -0.099 A  
HETATM   14  C   UNL     1      -6.854  11.436  70.015  1.00  0.00     0.138 A  
BRANCH  12  15
HETATM   15  C   UNL     1      -8.345   9.360  70.201  1.00  0.00    -0.197 A  
HETATM   16  C   UNL     1      -9.370   9.684  71.138  1.00  0.00     0.257 A  
HETATM   17  C   UNL     1      -9.935   8.754  72.011  1.00  0.00    -0.391 A  
HETATM   18  C   UNL     1      -9.532   7.433  71.954  1.00  0.00    -0.166 A  
HETATM   19  C   UNL     1      -8.569   7.060  71.020  1.00  0.00    -0.134 A  
HETATM   20  C   UNL     1      -7.957   7.993  70.141  1.00  0.00    -0.105 A  
BRANCH  20  21
HETATM   21  C   UNL     1      -6.941   7.414  69.264  1.00  0.00    -0.065 A  
HETATM   22  N   UNL     1      -6.707   7.850  68.008  1.00  0.00    -0.066 NA 
HETATM   23  N   UNL     1      -5.778   6.976  67.607  1.00  0.00    -0.020 NA 
HETATM   24  H   UNL     1      -7.125   8.631  67.503  1.00  0.00     0.000 HD 
HETATM   25  N   UNL     1      -5.404   6.064  68.514  1.00  0.00    -0.007 NA 
HETATM   26  N   UNL     1      -6.172   6.314  69.568  1.00  0.00    -0.032 NA 
ENDBRANCH  20  21
ENDBRANCH  12  15
ENDBRANCH   8   9
ENDBRANCH   6   8
BRANCH   6  27
HETATM   27  C   UNL     1      -7.763  16.567  67.840  1.00  0.00    -0.153 C  
HETATM   28  C   UNL     1      -6.354  17.064  68.294  1.00  0.00    -0.143 C  
HETATM   29  O   UNL     1      -5.945  18.190  68.015  1.00  0.00    -0.165 OA 
HETATM   30  C   UNL     1      -8.914  17.192  68.690  1.00  0.00    -0.267 C  
HETATM   31  O   UNL     1      -5.622  16.270  69.093  1.00  0.00    -0.111 OA 
HETATM   32  C   UNL     1      -9.287  16.422  69.952  1.00  0.00     0.610 C  
HETATM   33  C   UNL     1      -8.737  18.681  68.991  1.00  0.00    -0.102 C  
ENDBRANCH   6  27
ENDBRANCH   4   5
ENDBRANCH   3   4
ENDBRANCH   2   3
TORSDOF 8
ENDMDL
MODEL      345
REMARK 921   NORMALIZED FREE ENERGY PREDICTED BY IDOCK:    1.98 KCAL/MOL
REMARK 922        TOTAL FREE ENERGY PREDICTED BY IDOCK:    2.38 KCAL/MOL
REMARK 923 INTER-LIGAND FREE ENERGY PREDICTED BY IDOCK:    2.26 KCAL/MOL
REMARK 924 INTRA-LIGAND FREE ENERGY PREDICTED BY IDOCK:    0.12 KCAL/MOL
REMARK 927      BINDING AFFINITY PREDICTED BY RF-SCORE:    0.00 PKD
ROOT
HETATM    1  C   UNL     1     -12.494   4.537  64.600  1.00  0.00     4.677 C  
HETATM    2  C   UNL     1     -11.109   4.017  64.271  1.00  0.00     0.100 C  
ENDROOT
BRANCH   2   3
HETATM    3  C   UNL     1     -10.020   5.072  64.476  1.00  0.00     0.535 C  
BRANCH   3   4
HETATM    4  C   UNL     1     -10.102   5.606  65.907  1.00  0.00     0.073 C  
BRANCH   4   5
HETATM    5  C   UNL     1      -9.455   4.711  66.942  1.00  0.00    -0.163 C  
HETATM    6  N   UNL     1      -8.095   4.866  67.205  1.00  0.00    -0.106 N  
HETATM    7  O   UNL     1     -10.123   3.853  67.527  1.00  0.00     0.003 OA 
BRANCH   6   8
HETATM    8  C   UNL     1      -7.267   5.917  66.544  1.00  0.00    -0.074 C  
BRANCH   8   9
HETATM    9  C   UNL     1      -7.828   7.325  66.645  1.00  0.00    -0.102 A  
HETATM   10  C   UNL     1      -7.395   8.319  65.767  1.00  0.00    -0.072 A  
HETATM   11  C   UNL     1      -7.650   9.671  66.043  1.00  0.00    -0.102 A  
HETATM   12  C   UNL     1      -8.416  10.093  67.144  1.00  0.00    -0.125 A  
HETATM   13  C   UNL     1      -8.731   7.715  67.639  1.00  0.00    -0.122 A  
HETATM   14  C   UNL     1      -9.045   9.067  67.866  1.00  0.00    -0.141 A  
BRANCH  12  15
HETATM   15  C   UNL     1      -8.522  11.550  67.499  1.00  0.00    -0.143 A  
HETATM   16  C   UNL     1      -7.903  11.961  68.716  1.00  0.00    -0.052 A  
HETATM   17  C   UNL     1      -8.031  13.245  69.247  1.00  0.00     0.545 A  
HETATM   18  C   UNL     1      -8.751  14.201  68.554  1.00  0.00    -0.166 A  
HETATM   19  C   UNL     1      -9.332  13.858  67.336  1.00  0.00    -0.228 A  
HETATM   20  C   UNL     1      -9.241  12.550  66.789  1.00  0.00    -0.217 A  
BRANCH  20  21
HETATM   21  C   UNL     1      -9.951  12.379  65.522  1.00  0.00    -0.243 A  
HETATM   22  N   UNL     1      -9.345  12.432  64.317  1.00  0.00    -0.230 NA 
HETATM   23  N   UNL     1     -10.397  12.305  63.501  1.00  0.00    -0.432 NA 
HETATM   24  H   UNL     1      -8.356  12.540  64.091  1.00  0.00     0.000 HD 
HETATM   25  N   UNL     1     -11.585  12.152  64.099  1.00  0.00    -0.365 NA 
HETATM   26  N   UNL     1     -11.314  12.235  65.396  1.00  0.00    -0.332 NA 
ENDBRANCH  20  21
ENDBRANCH  12  15
ENDBRANCH   8   9
ENDBRANCH   6   8
BRANCH   6  27
HETATM   27  C   UNL     1      -7.462   4.126  68.359  1.00  0.00    -0.059 C  
HETATM   28  C   UNL     1      -6.876   4.893  69.586  1.00  0.00    -0.052 C  
HETATM   29  O   UNL     1      -6.924   4.428  70.723  1.00  0.00    -0.035 OA 
HETATM   30  C   UNL     1      -6.550   2.942  67.910  1.00  0.00    -0.037 C  
HETATM   31  O   UNL     1      -6.216   6.043  69.366  1.00  0.00    -0.027 OA 
HETATM   32  C   UNL     1      -5.469   3.298  66.895  1.00  0.00    -0.020 C  
HETATM   33  C   UNL     1      -5.968   2.122  69.063  1.00  0.00    -0.024 C  
ENDBRANCH   6  27
ENDBRANCH   4   5
ENDBRANCH   3   4
ENDBRANCH   2   3
TORSDOF 8
ENDMDL
MODEL      346
REMARK 921   NORMALIZED FREE ENERGY PREDICTED BY IDOCK:    2.35 KCAL/MOL
REMARK 922        TOTAL FREE ENERGY PREDICTED BY IDOCK:    2.93 KCAL/MOL
REMARK 923 INTER-LIGAND FREE ENERGY PREDICTED BY IDOCK:   -2.33 KCAL/MOL
REMARK 924 INTRA-LIGAND FREE ENERGY PREDICTED BY IDOCK:    5.25 KCAL/MOL
REMARK 927      BINDING AFFINITY PREDICTED BY RF-SCORE:    0.00 PKD
ROOT
HETATM    1  C   UNL     1     -12.546   7.822  69.741  1.00  0.00     1.844 C  
HETATM    2  C   UNL     1     -11.914   6.837  70.703  1.00  0.00    -0.418 C  
ENDROOT
BRANCH   2   3
HETATM    3  C   UNL     1     -11.588   7.467  72.059  1.00  0.00    -0.326 C  
BRANCH   3   4
HETATM    4  C   UNL     1     -10.599   8.615  71.855  1.00  0.00    -0.411 C  
BRANCH   4   5
HETATM    5  C   UNL     1     -10.911   9.501  70.668  1.00  0.00    -0.306 C  
HETATM    6  N   UNL     1      -9.935   9.673  69.687  1.00  0.00    -0.206 N  
HETATM    7  O   UNL     1     -12.003  10.070  70.585  1.00  0.00    -0.285 OA 
BRANCH   6   8
HETATM    8  C   UNL     1      -8.618   8.973  69.737  1.00  0.00    -0.138 C  
BRANCH   8   9
HETATM    9  C   UNL     1      -8.495   7.785  68.797  1.00  0.00    -0.129 A  
HETATM   10  C   UNL     1      -8.626   7.961  67.420  1.00  0.00    -0.125 A  
HETATM   11  C   UNL     1      -8.835   6.857  66.579  1.00  0.00    -0.148 A  
HETATM   12  C   UNL     1      -8.835   5.532  67.048  1.00  0.00    -0.110 A  
HETATM   13  C   UNL     1      -8.320   6.474  69.249  1.00  0.00    -0.123 A  
HETATM   14  C   UNL     1      -8.455   5.369  68.388  1.00  0.00    -0.096 A  
BRANCH  12  15
HETATM   15  C   UNL     1      -9.232   4.395  66.148  1.00  0.00    -0.141 A  
HETATM   16  C   UNL     1     -10.452   4.542  65.425  1.00  0.00    -0.212 A  
HETATM   17  C   UNL     1     -11.020   3.523  64.661  1.00  0.00     0.360 A  
HETATM   18  C   UNL     1     -10.364   2.312  64.543  1.00  0.00     0.414 A  
HETATM   19  C   UNL     1      -9.143   2.139  65.191  1.00  0.00    -0.121 A  
HETATM   20  C   UNL     1      -8.559   3.150  65.999  1.00  0.00    -0.119 A  
BRANCH  20  21
HETATM   21  C   UNL     1      -7.297   2.763  66.626  1.00  0.00    -0.070 A  
HETATM   22  N   UNL     1      -6.835   3.311  67.771  1.00  0.00    -0.049 NA 
HETATM   23  N   UNL     1      -5.649   2.703  67.881  1.00  0.00    -0.018 NA 
HETATM   24  H   UNL     1      -7.271   4.000  68.383  1.00  0.00     0.000 HD 
HETATM   25  N   UNL     1      -5.358   1.814  66.923  1.00  0.00    -0.012 NA 
HETATM   26  N   UNL     1      -6.392   1.872  66.093  1.00  0.00    -0.023 NA 
ENDBRANCH  20  21
ENDBRANCH  12  15
ENDBRANCH   8   9
ENDBRANCH   6   8
BRANCH   6  27
HETATM   27  C   UNL     1     -10.276  10.393  68.404  1.00  0.00    -0.165 C  
HETATM   28  C   UNL     1      -9.156  10.912  67.448  1.00  0.00    -0.140 C  
HETATM   29  O   UNL     1      -9.304  10.926  66.227  1.00  0.00    -0.170 OA 
HETATM   30  C   UNL     1     -11.444  11.416  68.560  1.00  0.00    -0.361 C  
HETATM   31  O   UNL     1      -8.050  11.448  67.990  1.00  0.00    -0.122 OA 
HETATM   32  C   UNL     1     -11.270  12.442  69.674  1.00  0.00    -0.106 C  
HETATM   33  C   UNL     1     -11.867  12.093  67.255  1.00  0.00    -0.293 C  
ENDBRANCH   6  27
ENDBRANCH   4   5
ENDBRANCH   3   4
ENDBRANCH   2   3
TORSDOF 8
ENDMDL
MODEL      347
REMARK 921   NORMALIZED FREE ENERGY PREDICTED BY IDOCK:    3.15 KCAL/MOL
REMARK 922        TOTAL FREE ENERGY PREDICTED BY IDOCK:    4.10 KCAL/MOL
REMARK 923 INTER-LIGAND FREE ENERGY PREDICTED BY IDOCK:    1.84 KCAL/MOL
REMARK 924 INTRA-LIGAND FREE ENERGY PREDICTED BY IDOCK:    2.26 KCAL/MOL
REMARK 927      BINDING AFFINITY PREDICTED BY RF-SCORE:    0.00 PKD
ROOT
HETATM    1  C   UNL     1     -12.770   5.122  65.240  1.00  0.00     5.739 C  
HETATM    2  C   UNL     1     -11.324   5.525  65.445  1.00  0.00     1.715 C  
ENDROOT
BRANCH   2   3
HETATM    3  C   UNL     1     -10.849   5.301  66.883  1.00  0.00    -0.081 C  
BRANCH   3   4
HETATM    4  C   UNL     1      -9.340   5.538  66.956  1.00  0.00    -0.118 C  
BRANCH   4   5
HETATM    5  C   UNL     1      -8.539   4.323  67.372  1.00  0.00    -0.104 C  
HETATM    6  N   UNL     1      -7.359   4.513  68.089  1.00  0.00    -0.065 N  
HETATM    7  O   UNL     1      -8.921   3.190  67.064  1.00  0.00    -0.137 OA 
BRANCH   6   8
HETATM    8  C   UNL     1      -6.887   5.865  68.510  1.00  0.00    -0.070 C  
BRANCH   8   9
HETATM    9  C   UNL     1      -7.866   6.639  69.376  1.00  0.00    -0.113 A  
HETATM   10  C   UNL     1      -9.187   6.208  69.501  1.00  0.00    -0.143 A  
HETATM   11  C   UNL     1     -10.169   7.065  70.021  1.00  0.00    -0.206 A  
HETATM   12  C   UNL     1      -9.874   8.347  70.520  1.00  0.00    -0.204 A  
HETATM   13  C   UNL     1      -7.532   7.832  70.022  1.00  0.00    -0.080 A  
HETATM   14  C   UNL     1      -8.509   8.657  70.610  1.00  0.00    -0.174 A  
BRANCH  12  15
HETATM   15  C   UNL     1     -10.974   9.296  70.907  1.00  0.00    -0.368 A  
HETATM   16  C   UNL     1     -11.758   8.941  72.043  1.00  0.00    -0.438 A  
HETATM   17  C   UNL     1     -12.895   9.645  72.442  1.00  0.00    -0.315 A  
HETATM   18  C   UNL     1     -13.276  10.776  71.745  1.00  0.00    -0.523 A  
HETATM   19  C   UNL     1     -12.511  11.190  70.657  1.00  0.00    -0.448 A  
HETATM   20  C   UNL     1     -11.367  10.474  70.213  1.00  0.00    -0.407 A  
BRANCH  20  21
HETATM   21  C   UNL     1     -10.723  11.044  69.032  1.00  0.00    -0.219 A  
HETATM   22  N   UNL     1     -10.045  12.212  69.046  1.00  0.00    -0.421 NA 
HETATM   23  N   UNL     1      -9.730  12.335  67.752  1.00  0.00    -0.194 NA 
HETATM   24  H   UNL     1      -9.832  12.830  69.828  1.00  0.00     0.000 HD 
HETATM   25  N   UNL     1     -10.131  11.336  66.956  1.00  0.00    -0.201 NA 
HETATM   26  N   UNL     1     -10.801  10.521  67.761  1.00  0.00    -0.272 NA 
ENDBRANCH  20  21
ENDBRANCH  12  15
ENDBRANCH   8   9
ENDBRANCH   6   8
BRANCH   6  27
HETATM   27  C   UNL     1      -6.637   3.326  68.680  1.00  0.00    -0.040 C  
HETATM   28  C   UNL     1      -6.205   2.119  67.789  1.00  0.00    -0.025 C  
HETATM   29  O   UNL     1      -5.174   1.486  68.012  1.00  0.00    -0.011 OA 
HETATM   30  C   UNL     1      -7.220   2.868  70.054  1.00  0.00    -0.040 C  
HETATM   31  O   UNL     1      -7.038   1.708  66.818  1.00  0.00    -0.045 OA 
HETATM   32  C   UNL     1      -8.720   2.597  70.071  1.00  0.00    -0.126 C  
HETATM   33  C   UNL     1      -6.450   1.723  70.715  1.00  0.00    -0.024 C  
ENDBRANCH   6  27
ENDBRANCH   4   5
ENDBRANCH   3   4
ENDBRANCH   2   3
TORSDOF 8
ENDMDL
MODEL      348
REMARK 921   NORMALIZED FREE ENERGY PREDICTED BY IDOCK:    5.56 KCAL/MOL
REMARK 922        TOTAL FREE ENERGY PREDICTED BY IDOCK:    7.63 KCAL/MOL
REMARK 923 INTER-LIGAND FREE ENERGY PREDICTED BY IDOCK:    0.40 KCAL/MOL
REMARK 924 INTRA-LIGAND FREE ENERGY PREDICTED BY IDOCK:    7.23 KCAL/MOL
REMARK 927      BINDING AFFINITY PREDICTED BY RF-SCORE:    0.00 PKD
ROOT
HETATM    1  C   UNL     1      -9.585  15.367  68.943  1.00  0.00    -0.220 C  
HETATM    2  C   UNL     1      -8.869  14.252  69.679  1.00  0.00     0.712 C  
ENDROOT
BRANCH   2   3
HETATM    3  C   UNL     1      -7.979  13.415  68.757  1.00  0.00     0.019 C  
BRANCH   3   4
HETATM    4  C   UNL     1      -6.792  12.879  69.558  1.00  0.00     0.105 C  
BRANCH   4   5
HETATM    5  C   UNL     1      -6.824  11.385  69.795  1.00  0.00    -0.025 C  
HETATM    6  N   UNL     1      -6.420  10.535  68.766  1.00  0.00    -0.051 N  
HETATM    7  O   UNL     1      -7.218  10.934  70.874  1.00  0.00     0.607 OA 
BRANCH   6   8
HETATM    8  C   UNL     1      -5.904  11.046  67.462  1.00  0.00    -0.046 C  
BRANCH   8   9
HETATM    9  C   UNL     1      -6.977  11.510  66.492  1.00  0.00    -0.009 A  
HETATM   10  C   UNL     1      -7.649  12.713  66.710  1.00  0.00     0.261 A  
HETATM   11  C   UNL     1      -8.840  12.996  66.023  1.00  0.00     0.437 A  
HETATM   12  C   UNL     1      -9.368  12.149  65.033  1.00  0.00     0.202 A  
HETATM   13  C   UNL     1      -7.392  10.748  65.396  1.00  0.00     0.063 A  
HETATM   14  C   UNL     1      -8.545  11.075  64.660  1.00  0.00     0.108 A  
BRANCH  12  15
HETATM   15  C   UNL     1     -10.728  12.401  64.446  1.00  0.00    -0.371 A  
HETATM   16  C   UNL     1     -11.453  11.262  63.989  1.00  0.00    -0.036 A  
HETATM   17  C   UNL     1     -12.663  11.346  63.299  1.00  0.00     0.366 A  
HETATM   18  C   UNL     1     -13.234  12.585  63.074  1.00  0.00     0.918 A  
HETATM   19  C   UNL     1     -12.587  13.724  63.546  1.00  0.00     0.112 A  
HETATM   20  C   UNL     1     -11.340  13.666  64.225  1.00  0.00    -0.372 A  
BRANCH  20  21
HETATM   21  C   UNL     1     -10.803  14.971  64.605  1.00  0.00    -0.269 A  
HETATM   22  N   UNL     1      -9.558  15.149  65.096  1.00  0.00    -0.277 NA 
HETATM   23  N   UNL     1      -9.575  16.461  65.358  1.00  0.00    -0.395 NA 
HETATM   24  H   UNL     1      -8.809  14.470  65.230  1.00  0.00     0.000 HD 
HETATM   25  N   UNL     1     -10.709  17.103  65.047  1.00  0.00    -0.681 NA 
HETATM   26  N   UNL     1     -11.515  16.150  64.597  1.00  0.00    -0.318 NA 
ENDBRANCH  20  21
ENDBRANCH  12  15
ENDBRANCH   8   9
ENDBRANCH   6   8
BRANCH   6  27
HETATM   27  C   UNL     1      -6.261   9.057  69.030  1.00  0.00    -0.043 C  
HETATM   28  C   UNL     1      -7.446   8.065  68.806  1.00  0.00    -0.091 C  
HETATM   29  O   UNL     1      -7.261   6.914  68.413  1.00  0.00    -0.083 OA 
HETATM   30  C   UNL     1      -5.464   8.743  70.334  1.00  0.00    -0.024 C  
HETATM   31  O   UNL     1      -8.684   8.458  69.151  1.00  0.00    -0.139 OA 
HETATM   32  C   UNL     1      -5.984   9.419  71.597  1.00  0.00    -0.035 C  
HETATM   33  C   UNL     1      -5.213   7.253  70.576  1.00  0.00    -0.023 C  
ENDBRANCH   6  27
ENDBRANCH   4   5
ENDBRANCH   3   4
ENDBRANCH   2   3
TORSDOF 8
ENDMDL
MODEL      349
REMARK 921   NORMALIZED FREE ENERGY PREDICTED BY IDOCK:    6.58 KCAL/MOL
REMARK 922        TOTAL FREE ENERGY PREDICTED BY IDOCK:    9.13 KCAL/MOL
REMARK 923 INTER-LIGAND FREE ENERGY PREDICTED BY IDOCK:    8.43 KCAL/MOL
REMARK 924 INTRA-LIGAND FREE ENERGY PREDICTED BY IDOCK:    0.70 KCAL/MOL
REMARK 927      BINDING AFFINITY PREDICTED BY RF-SCORE:    0.00 PKD
ROOT
HETATM    1  C   UNL     1     -13.134   5.758  64.246  1.00  0.00     8.909 C  
HETATM    2  C   UNL     1     -11.744   5.341  64.684  1.00  0.00     3.141 C  
ENDROOT
BRANCH   2   3
HETATM    3  C   UNL     1     -11.123   4.296  63.755  1.00  0.00     0.391 C  
BRANCH   3   4
HETATM    4  C   UNL     1     -10.903   2.999  64.534  1.00  0.00     0.523 C  
BRANCH   4   5
HETATM    5  C   UNL     1      -9.478   2.489  64.505  1.00  0.00    -0.132 C  
HETATM    6  N   UNL     1      -8.499   3.201  65.195  1.00  0.00    -0.095 N  
HETATM    7  O   UNL     1      -9.194   1.471  63.868  1.00  0.00    -0.092 OA 
BRANCH   6   8
HETATM    8  C   UNL     1      -8.813   4.414  66.006  1.00  0.00    -0.119 C  
BRANCH   8   9
HETATM    9  C   UNL     1      -9.322   4.127  67.408  1.00  0.00    -0.204 A  
HETATM   10  C   UNL     1     -10.065   5.086  68.096  1.00  0.00    -0.167 A  
HETATM   11  C   UNL     1     -10.264   4.973  69.481  1.00  0.00    -0.286 A  
HETATM   12  C   UNL     1      -9.816   3.868  70.227  1.00  0.00    -0.168 A  
HETATM   13  C   UNL     1      -9.024   2.949  68.099  1.00  0.00    -0.196 A  
HETATM   14  C   UNL     1      -9.293   2.807  69.473  1.00  0.00    -0.191 A  
BRANCH  12  15
HETATM   15  C   UNL     1      -9.897   3.866  71.727  1.00  0.00    -0.249 A  
HETATM   16  C   UNL     1      -9.435   2.693  72.395  1.00  0.00    -0.168 A  
HETATM   17  C   UNL     1      -9.572   2.486  73.768  1.00  0.00    -0.117 A  
HETATM   18  C   UNL     1     -10.139   3.472  74.552  1.00  0.00    -0.215 A  
HETATM   19  C   UNL     1     -10.560   4.656  73.952  1.00  0.00    -0.337 A  
HETATM   20  C   UNL     1     -10.459   4.879  72.553  1.00  0.00    -0.262 A  
BRANCH  20  21
HETATM   21  C   UNL     1     -10.992   6.166  72.110  1.00  0.00    -0.262 A  
HETATM   22  N   UNL     1     -12.307   6.400  71.916  1.00  0.00    -0.370 NA 
HETATM   23  N   UNL     1     -12.274   7.653  71.450  1.00  0.00    -0.316 NA 
HETATM   24  H   UNL     1     -13.106   5.789  72.080  1.00  0.00     0.000 HD 
HETATM   25  N   UNL     1     -11.060   8.213  71.367  1.00  0.00    -0.241 NA 
HETATM   26  N   UNL     1     -10.228   7.255  71.753  1.00  0.00    -0.194 NA 
ENDBRANCH  20  21
ENDBRANCH  12  15
ENDBRANCH   8   9
ENDBRANCH   6   8
BRANCH   6  27
HETATM   27  C   UNL     1      -7.112   2.623  65.344  1.00  0.00    -0.057 C  
HETATM   28  C   UNL     1      -6.053   3.294  66.275  1.00  0.00    -0.024 C  
HETATM   29  O   UNL     1      -5.224   2.630  66.895  1.00  0.00    -0.008 OA 
HETATM   30  C   UNL     1      -6.493   2.142  63.994  1.00  0.00    -0.019 C  
HETATM   31  O   UNL     1      -5.993   4.635  66.314  1.00  0.00    -0.022 OA 
HETATM   32  C   UNL     1      -6.482   3.177  62.875  1.00  0.00    -0.018 C  
HETATM   33  C   UNL     1      -5.125   1.471  64.131  1.00  0.00    -0.004 C  
ENDBRANCH   6  27
ENDBRANCH   4   5
ENDBRANCH   3   4
ENDBRANCH   2   3
TORSDOF 8
ENDMDL
MODEL      350
REMARK 921   NORMALIZED FREE ENERGY PREDICTED BY IDOCK:    7.45 KCAL/MOL
REMARK 922        TOTAL FREE ENERGY PREDICTED BY IDOCK:   10.41 KCAL/MOL
REMARK 923 INTER-LIGAND FREE ENERGY PREDICTED BY IDOCK:    5.16 KCAL/MOL
REMARK 924 INTRA-LIGAND FREE ENERGY PREDICTED BY IDOCK:    5.24 KCAL/MOL
REMARK 927      BINDING AFFINITY PREDICTED BY RF-SCORE:    0.00 PKD
ROOT
HETATM    1  C   UNL     1      -5.525  16.223  71.269  1.00  0.00     0.182 C  
HETATM    2  C   UNL     1      -6.106  16.324  69.873  1.00  0.00    -0.180 C  
ENDROOT
BRANCH   2   3
HETATM    3  C   UNL     1      -5.127  15.855  68.794  1.00  0.00    -0.103 C  
BRANCH   3   4
HETATM    4  C   UNL     1      -5.580  14.495  68.262  1.00  0.00    -0.118 C  
BRANCH   4   5
HETATM    5  C   UNL     1      -6.279  13.627  69.286  1.00  0.00    -0.104 C  
HETATM    6  N   UNL     1      -7.432  12.942  68.908  1.00  0.00    -0.038 N  
HETATM    7  O   UNL     1      -5.838  13.544  70.437  1.00  0.00    -0.148 OA 
BRANCH   6   8
HETATM    8  C   UNL     1      -7.971  12.989  67.517  1.00  0.00    -0.177 C  
BRANCH   8   9
HETATM    9  C   UNL     1      -7.898  11.672  66.762  1.00  0.00    -0.130 A  
HETATM   10  C   UNL     1      -8.976  11.246  65.986  1.00  0.00    -0.209 A  
HETATM   11  C   UNL     1      -9.056   9.913  65.553  1.00  0.00    -0.232 A  
HETATM   12  C   UNL     1      -8.038   8.973  65.789  1.00  0.00    -0.109 A  
HETATM   13  C   UNL     1      -6.807  10.803  66.854  1.00  0.00    -0.101 A  
HETATM   14  C   UNL     1      -6.861   9.490  66.352  1.00  0.00    -0.083 A  
BRANCH  12  15
HETATM   15  C   UNL     1      -8.237   7.520  65.460  1.00  0.00    -0.135 A  
HETATM   16  C   UNL     1      -8.944   7.224  64.257  1.00  0.00     1.051 A  
HETATM   17  C   UNL     1      -9.326   5.934  63.888  1.00  0.00     1.214 A  
HETATM   18  C   UNL     1      -8.974   4.864  64.688  1.00  0.00    -0.111 A  
HETATM   19  C   UNL     1      -8.240   5.099  65.848  1.00  0.00    -0.115 A  
HETATM   20  C   UNL     1      -7.865   6.405  66.261  1.00  0.00    -0.101 A  
BRANCH  20  21
HETATM   21  C   UNL     1      -7.134   6.448  67.526  1.00  0.00    -0.080 A  
HETATM   22  N   UNL     1      -5.875   6.921  67.643  1.00  0.00    -0.020 NA 
HETATM   23  N   UNL     1      -5.632   6.676  68.935  1.00  0.00    -0.016 NA 
HETATM   24  H   UNL     1      -5.274   7.349  66.938  1.00  0.00     0.000 HD 
HETATM   25  N   UNL     1      -6.638   6.121  69.623  1.00  0.00    -0.045 NA 
HETATM   26  N   UNL     1      -7.593   5.936  68.719  1.00  0.00    -0.089 NA 
ENDBRANCH  20  21
ENDBRANCH  12  15
ENDBRANCH   8   9
ENDBRANCH   6   8
BRANCH   6  27
HETATM   27  C   UNL     1      -8.044  11.925  69.842  1.00  0.00     1.939 C  
HETATM   28  C   UNL     1      -7.417  10.505  70.011  1.00  0.00     0.001 C  
HETATM   29  O   UNL     1      -7.445   9.910  71.087  1.00  0.00    -0.242 OA 
HETATM   30  C   UNL     1      -9.603  11.880  69.772  1.00  0.00     1.711 C  
HETATM   31  O   UNL     1      -6.927   9.887  68.923  1.00  0.00    -0.060 OA 
HETATM   32  C   UNL     1     -10.190  11.691  68.378  1.00  0.00    -0.211 C  
HETATM   33  C   UNL     1     -10.251  10.920  70.772  1.00  0.00     2.024 C  
ENDBRANCH   6  27
ENDBRANCH   4   5
ENDBRANCH   3   4
ENDBRANCH   2   3
TORSDOF 8
ENDMDL
MODEL      351
REMARK 921   NORMALIZED FREE ENERGY PREDICTED BY IDOCK:    7.96 KCAL/MOL
REMARK 922        TOTAL FREE ENERGY PREDICTED BY IDOCK:   11.15 KCAL/MOL
REMARK 923 INTER-LIGAND FREE ENERGY PREDICTED BY IDOCK:   11.18 KCAL/MOL
REMARK 924 INTRA-LIGAND FREE ENERGY PREDICTED BY IDOCK:   -0.03 KCAL/MOL
REMARK 927      BINDING AFFINITY PREDICTED BY RF-SCORE:    0.00 PKD
ROOT
HETATM    1  C   UNL     1     -13.222   5.794  64.362  1.00  0.00     8.906 C  
HETATM    2  C   UNL     1     -11.802   5.443  64.755  1.00  0.00     3.667 C  
ENDROOT
BRANCH   2   3
HETATM    3  C   UNL     1     -11.212   4.326  63.891  1.00  0.00     0.523 C  
BRANCH   3   4
HETATM    4  C   UNL     1     -10.964   3.095  64.764  1.00  0.00     0.961 C  
BRANCH   4   5
HETATM    5  C   UNL     1      -9.534   2.598  64.748  1.00  0.00    -0.116 C  
HETATM    6  N   UNL     1      -8.530   3.434  65.235  1.00  0.00    -0.098 N  
HETATM    7  O   UNL     1      -9.268   1.480  64.298  1.00  0.00    -0.109 OA 
BRANCH   6   8
HETATM    8  C   UNL     1      -8.820   4.776  65.820  1.00  0.00    -0.131 C  
BRANCH   8   9
HETATM    9  C   UNL     1      -9.355   4.746  67.242  1.00  0.00    -0.150 A  
HETATM   10  C   UNL     1      -9.868   5.906  67.824  1.00  0.00    -0.138 A  
HETATM   11  C   UNL     1     -10.063   5.978  69.212  1.00  0.00    -0.235 A  
HETATM   12  C   UNL     1      -9.846   4.884  70.069  1.00  0.00    -0.304 A  
HETATM   13  C   UNL     1      -9.302   3.608  68.051  1.00  0.00    -0.237 A  
HETATM   14  C   UNL     1      -9.572   3.666  69.431  1.00  0.00    -0.196 A  
BRANCH  12  15
HETATM   15  C   UNL     1      -9.901   5.051  71.562  1.00  0.00    -0.241 A  
HETATM   16  C   UNL     1     -11.182   5.306  72.134  1.00  0.00    -0.139 A  
HETATM   17  C   UNL     1     -11.375   5.619  73.480  1.00  0.00     0.072 A  
HETATM   18  C   UNL     1     -10.290   5.643  74.336  1.00  0.00    -0.278 A  
HETATM   19  C   UNL     1      -9.024   5.352  73.832  1.00  0.00    -0.120 A  
HETATM   20  C   UNL     1      -8.798   5.060  72.460  1.00  0.00    -0.126 A  
BRANCH  20  21
HETATM   21  C   UNL     1      -7.397   4.821  72.121  1.00  0.00    -0.081 A  
HETATM   22  N   UNL     1      -6.684   3.777  72.595  1.00  0.00    -0.035 NA 
HETATM   23  N   UNL     1      -5.479   4.040  72.079  1.00  0.00     0.000 NA 
HETATM   24  H   UNL     1      -6.983   3.002  73.186  1.00  0.00     0.000 HD 
HETATM   25  N   UNL     1      -5.399   5.134  71.310  1.00  0.00    -0.004 NA 
HETATM   26  N   UNL     1      -6.615   5.663  71.361  1.00  0.00    -0.044 NA 
ENDBRANCH  20  21
ENDBRANCH  12  15
ENDBRANCH   8   9
ENDBRANCH   6   8
BRANCH   6  27
HETATM   27  C   UNL     1      -7.127   2.903  65.409  1.00  0.00    -0.058 C  
HETATM   28  C   UNL     1      -6.074   3.673  66.267  1.00  0.00    -0.024 C  
HETATM   29  O   UNL     1      -5.220   3.082  66.925  1.00  0.00    -0.008 OA 
HETATM   30  C   UNL     1      -6.514   2.330  64.093  1.00  0.00    -0.022 C  
HETATM   31  O   UNL     1      -6.048   5.015  66.196  1.00  0.00    -0.025 OA 
HETATM   32  C   UNL     1      -6.544   3.270  62.893  1.00  0.00    -0.029 C  
HETATM   33  C   UNL     1      -5.128   1.706  64.263  1.00  0.00    -0.004 C  
ENDBRANCH   6  27
ENDBRANCH   4   5
ENDBRANCH   3   4
ENDBRANCH   2   3
TORSDOF 8
ENDMDL
MODEL      352
REMARK 921   NORMALIZED FREE ENERGY PREDICTED BY IDOCK:    8.59 KCAL/MOL
REMARK 922        TOTAL FREE ENERGY PREDICTED BY IDOCK:   12.08 KCAL/MOL
REMARK 923 INTER-LIGAND FREE ENERGY PREDICTED BY IDOCK:   10.99 KCAL/MOL
REMARK 924 INTRA-LIGAND FREE ENERGY PREDICTED BY IDOCK:    1.09 KCAL/MOL
REMARK 927      BINDING AFFINITY PREDICTED BY RF-SCORE:    0.00 PKD
ROOT
HETATM    1  C   UNL     1     -11.858  12.842  64.463  1.00  0.00    -0.429 C  
HETATM    2  C   UNL     1     -12.879  11.739  64.275  1.00  0.00     0.064 C  
ENDROOT
BRANCH   2   3
HETATM    3  C   UNL     1     -12.266  10.342  64.400  1.00  0.00     5.974 C  
BRANCH   3   4
HETATM    4  C   UNL     1     -10.749  10.443  64.238  1.00  0.00     0.598 C  
BRANCH   4   5
HETATM    5  C   UNL     1      -9.968  10.176  65.506  1.00  0.00    -0.293 C  
HETATM    6  N   UNL     1      -9.173  11.195  66.029  1.00  0.00    -0.199 N  
HETATM    7  O   UNL     1     -10.027   9.071  66.053  1.00  0.00    -0.283 OA 
BRANCH   6   8
HETATM    8  C   UNL     1      -9.107  12.554  65.416  1.00  0.00     0.512 C  
BRANCH   8   9
HETATM    9  C   UNL     1      -8.521  13.629  66.316  1.00  0.00     0.704 A  
HETATM   10  C   UNL     1      -9.349  14.363  67.166  1.00  0.00    -0.226 A  
HETATM   11  C   UNL     1      -8.890  15.552  67.752  1.00  0.00    -0.173 A  
HETATM   12  C   UNL     1      -7.572  16.019  67.598  1.00  0.00    -0.166 A  
HETATM   13  C   UNL     1      -7.169  13.985  66.295  1.00  0.00     3.203 A  
HETATM   14  C   UNL     1      -6.695  15.138  66.947  1.00  0.00     0.682 A  
BRANCH  12  15
HETATM   15  C   UNL     1      -7.171  17.378  68.098  1.00  0.00    -0.199 A  
HETATM   16  C   UNL     1      -7.378  17.640  69.484  1.00  0.00     0.227 A  
HETATM   17  C   UNL     1      -7.186  18.893  70.067  1.00  0.00     0.545 A  
HETATM   18  C   UNL     1      -6.726  19.941  69.292  1.00  0.00    -0.361 A  
HETATM   19  C   UNL     1      -6.462  19.720  67.943  1.00  0.00    -0.267 A  
HETATM   20  C   UNL     1      -6.678  18.462  67.320  1.00  0.00    -0.206 A  
BRANCH  20  21
HETATM   21  C   UNL     1      -6.380  18.441  65.889  1.00  0.00    -0.245 A  
HETATM   22  N   UNL     1      -5.294  17.835  65.364  1.00  0.00    -0.124 NA 
HETATM   23  N   UNL     1      -5.424  18.159  64.073  1.00  0.00     0.324 NA 
HETATM   24  H   UNL     1      -4.572  17.282  65.826  1.00  0.00     0.000 HD 
HETATM   25  N   UNL     1      -6.506  18.884  63.759  1.00  0.00     0.777 NA 
HETATM   26  N   UNL     1      -7.105  19.102  64.923  1.00  0.00    -0.179 NA 
ENDBRANCH  20  21
ENDBRANCH  12  15
ENDBRANCH   8   9
ENDBRANCH   6   8
BRANCH   6  27
HETATM   27  C   UNL     1      -8.532  11.028  67.387  1.00  0.00    -0.132 C  
HETATM   28  C   UNL     1      -7.505   9.884  67.659  1.00  0.00    -0.090 C  
HETATM   29  O   UNL     1      -6.559  10.035  68.430  1.00  0.00    -0.054 OA 
HETATM   30  C   UNL     1      -9.531  11.221  68.570  1.00  0.00    -0.191 C  
HETATM   31  O   UNL     1      -7.729   8.678  67.110  1.00  0.00    -0.095 OA 
HETATM   32  C   UNL     1     -10.793  10.368  68.508  1.00  0.00    -0.278 C  
HETATM   33  C   UNL     1      -8.888  11.145  69.957  1.00  0.00     1.571 C  
ENDBRANCH   6  27
ENDBRANCH   4   5
ENDBRANCH   3   4
ENDBRANCH   2   3
TORSDOF 8
ENDMDL
MODEL      353
REMARK 921   NORMALIZED FREE ENERGY PREDICTED BY IDOCK:    9.49 KCAL/MOL
REMARK 922        TOTAL FREE ENERGY PREDICTED BY IDOCK:   13.41 KCAL/MOL
REMARK 923 INTER-LIGAND FREE ENERGY PREDICTED BY IDOCK:   13.15 KCAL/MOL
REMARK 924 INTRA-LIGAND FREE ENERGY PREDICTED BY IDOCK:    0.26 KCAL/MOL
REMARK 927      BINDING AFFINITY PREDICTED BY RF-SCORE:    0.00 PKD
ROOT
HETATM    1  C   UNL     1     -13.487   5.311  65.400  1.00  0.00     9.370 C  
HETATM    2  C   UNL     1     -12.198   6.089  65.231  1.00  0.00     5.756 C  
ENDROOT
BRANCH   2   3
HETATM    3  C   UNL     1     -11.200   5.826  66.362  1.00  0.00     0.264 C  
BRANCH   3   4
HETATM    4  C   UNL     1      -9.808   6.276  65.917  1.00  0.00     0.239 C  
BRANCH   4   5
HETATM    5  C   UNL     1      -8.998   5.202  65.224  1.00  0.00    -0.142 C  
HETATM    6  N   UNL     1      -7.610   5.329  65.189  1.00  0.00    -0.080 N  
HETATM    7  O   UNL     1      -9.563   4.244  64.689  1.00  0.00    -0.160 OA 
BRANCH   6   8
HETATM    8  C   UNL     1      -6.892   6.454  65.856  1.00  0.00    -0.056 C  
BRANCH   8   9
HETATM    9  C   UNL     1      -6.744   6.309  67.362  1.00  0.00    -0.061 A  
HETATM   10  C   UNL     1      -7.629   5.505  68.081  1.00  0.00    -0.081 A  
HETATM   11  C   UNL     1      -7.710   5.611  69.478  1.00  0.00    -0.091 A  
HETATM   12  C   UNL     1      -6.864   6.446  70.229  1.00  0.00    -0.054 A  
HETATM   13  C   UNL     1      -5.786   7.008  68.102  1.00  0.00    -0.022 A  
HETATM   14  C   UNL     1      -5.824   7.052  69.508  1.00  0.00    -0.023 A  
BRANCH  12  15
HETATM   15  C   UNL     1      -7.096   6.660  71.698  1.00  0.00    -0.080 A  
HETATM   16  C   UNL     1      -6.281   5.907  72.594  1.00  0.00    -0.053 A  
HETATM   17  C   UNL     1      -6.470   5.892  73.977  1.00  0.00    -0.071 A  
HETATM   18  C   UNL     1      -7.461   6.675  74.537  1.00  0.00    -0.104 A  
HETATM   19  C   UNL     1      -8.250   7.466  73.706  1.00  0.00    -0.181 A  
HETATM   20  C   UNL     1      -8.098   7.475  72.293  1.00  0.00    -0.118 A  
BRANCH  20  21
HETATM   21  C   UNL     1      -9.046   8.339  71.593  1.00  0.00    -0.185 A  
HETATM   22  N   UNL     1      -8.744   9.583  71.164  1.00  0.00    -0.335 NA 
HETATM   23  N   UNL     1      -9.926   9.976  70.678  1.00  0.00    -0.018 NA 
HETATM   24  H   UNL     1      -7.857  10.084  71.200  1.00  0.00     0.000 HD 
HETATM   25  N   UNL     1     -10.915   9.076  70.748  1.00  0.00    -0.241 NA 
HETATM   26  N   UNL     1     -10.370   8.035  71.367  1.00  0.00    -0.197 NA 
ENDBRANCH  20  21
ENDBRANCH  12  15
ENDBRANCH   8   9
ENDBRANCH   6   8
BRANCH   6  27
HETATM   27  C   UNL     1      -6.763   4.189  64.675  1.00  0.00    -0.045 C  
HETATM   28  C   UNL     1      -5.900   3.324  65.648  1.00  0.00    -0.019 C  
HETATM   29  O   UNL     1      -5.712   2.124  65.452  1.00  0.00    -0.016 OA 
HETATM   30  C   UNL     1      -6.006   4.526  63.353  1.00  0.00    -0.018 C  
HETATM   31  O   UNL     1      -5.271   3.937  66.664  1.00  0.00    -0.011 OA 
HETATM   32  C   UNL     1      -5.163   5.796  63.388  1.00  0.00    -0.013 C  
HETATM   33  C   UNL     1      -5.211   3.358  62.766  1.00  0.00    -0.005 C  
ENDBRANCH   6  27
ENDBRANCH   4   5
ENDBRANCH   3   4
ENDBRANCH   2   3
TORSDOF 8
ENDMDL
MODEL      354
REMARK 921   NORMALIZED FREE ENERGY PREDICTED BY IDOCK:    9.66 KCAL/MOL
REMARK 922        TOTAL FREE ENERGY PREDICTED BY IDOCK:   13.65 KCAL/MOL
REMARK 923 INTER-LIGAND FREE ENERGY PREDICTED BY IDOCK:   12.45 KCAL/MOL
REMARK 924 INTRA-LIGAND FREE ENERGY PREDICTED BY IDOCK:    1.20 KCAL/MOL
REMARK 927      BINDING AFFINITY PREDICTED BY RF-SCORE:    0.00 PKD
ROOT
HETATM    1  C   UNL     1     -13.269   5.807  63.393  1.00  0.00    10.047 C  
HETATM    2  C   UNL     1     -11.869   5.500  63.884  1.00  0.00     5.621 C  
ENDROOT
BRANCH   2   3
HETATM    3  C   UNL     1     -11.263   4.270  63.204  1.00  0.00     0.596 C  
BRANCH   3   4
HETATM    4  C   UNL     1     -11.097   3.156  64.237  1.00  0.00     0.529 C  
BRANCH   4   5
HETATM    5  C   UNL     1      -9.677   2.656  64.392  1.00  0.00    -0.112 C  
HETATM    6  N   UNL     1      -8.683   3.565  64.749  1.00  0.00    -0.108 N  
HETATM    7  O   UNL     1      -9.409   1.469  64.187  1.00  0.00    -0.114 OA 
BRANCH   6   8
HETATM    8  C   UNL     1      -8.976   4.999  65.040  1.00  0.00    -0.130 C  
BRANCH   8   9
HETATM    9  C   UNL     1      -9.576   5.260  66.412  1.00  0.00    -0.171 A  
HETATM   10  C   UNL     1     -10.148   6.498  66.706  1.00  0.00    -0.239 A  
HETATM   11  C   UNL     1     -10.409   6.863  68.035  1.00  0.00    -0.230 A  
HETATM   12  C   UNL     1     -10.201   5.991  69.119  1.00  0.00    -0.258 A  
HETATM   13  C   UNL     1      -9.527   4.328  67.453  1.00  0.00    -0.213 A  
HETATM   14  C   UNL     1      -9.861   4.674  68.775  1.00  0.00    -0.201 A  
BRANCH  12  15
HETATM   15  C   UNL     1     -10.329   6.477  70.536  1.00  0.00    -0.240 A  
HETATM   16  C   UNL     1     -10.102   5.519  71.567  1.00  0.00    -0.260 A  
HETATM   17  C   UNL     1     -10.317   5.781  72.921  1.00  0.00    -0.226 A  
HETATM   18  C   UNL     1     -10.728   7.041  73.314  1.00  0.00    -0.373 A  
HETATM   19  C   UNL     1     -10.915   8.024  72.346  1.00  0.00    -0.402 A  
HETATM   20  C   UNL     1     -10.732   7.774  70.959  1.00  0.00    -0.241 A  
BRANCH  20  21
HETATM   21  C   UNL     1     -11.016   8.921  70.099  1.00  0.00    -0.227 A  
HETATM   22  N   UNL     1     -10.068   9.577  69.396  1.00  0.00    -0.187 NA 
HETATM   23  N   UNL     1     -10.793  10.562  68.855  1.00  0.00    -0.219 NA 
HETATM   24  H   UNL     1      -9.073   9.375  69.302  1.00  0.00     0.000 HD 
HETATM   25  N   UNL     1     -12.101  10.551  69.144  1.00  0.00    -0.230 NA 
HETATM   26  N   UNL     1     -12.247   9.524  69.971  1.00  0.00     0.240 NA 
ENDBRANCH  20  21
ENDBRANCH  12  15
ENDBRANCH   8   9
ENDBRANCH   6   8
BRANCH   6  27
HETATM   27  C   UNL     1      -7.299   3.070  65.095  1.00  0.00    -0.068 C  
HETATM   28  C   UNL     1      -6.264   3.998  65.806  1.00  0.00    -0.032 C  
HETATM   29  O   UNL     1      -5.447   3.557  66.614  1.00  0.00    -0.015 OA 
HETATM   30  C   UNL     1      -6.647   2.214  63.964  1.00  0.00    -0.026 C  
HETATM   31  O   UNL     1      -6.207   5.290  65.444  1.00  0.00    -0.032 OA 
HETATM   32  C   UNL     1      -6.612   2.868  62.587  1.00  0.00    -0.022 C  
HETATM   33  C   UNL     1      -5.281   1.627  64.325  1.00  0.00    -0.004 C  
ENDBRANCH   6  27
ENDBRANCH   4   5
ENDBRANCH   3   4
ENDBRANCH   2   3
TORSDOF 8
ENDMDL
MODEL      355
REMARK 921   NORMALIZED FREE ENERGY PREDICTED BY IDOCK:   11.08 KCAL/MOL
REMARK 922        TOTAL FREE ENERGY PREDICTED BY IDOCK:   15.74 KCAL/MOL
REMARK 923 INTER-LIGAND FREE ENERGY PREDICTED BY IDOCK:    7.97 KCAL/MOL
REMARK 924 INTRA-LIGAND FREE ENERGY PREDICTED BY IDOCK:    7.76 KCAL/MOL
REMARK 927      BINDING AFFINITY PREDICTED BY RF-SCORE:    0.00 PKD
ROOT
HETATM    1  C   UNL     1     -10.988  20.607  69.264  1.00  0.00     1.115 C  
HETATM    2  C   UNL     1     -11.006  19.187  68.736  1.00  0.00     0.957 C  
ENDROOT
BRANCH   2   3
HETATM    3  C   UNL     1     -10.810  18.146  69.841  1.00  0.00     1.605 C  
BRANCH   3   4
HETATM    4  C   UNL     1      -9.382  17.606  69.774  1.00  0.00     1.018 C  
BRANCH   4   5
HETATM    5  C   UNL     1      -8.510  18.276  68.735  1.00  0.00    -0.221 C  
HETATM    6  N   UNL     1      -9.074  18.614  67.506  1.00  0.00    -0.278 N  
HETATM    7  O   UNL     1      -7.320  18.502  68.972  1.00  0.00    -0.284 OA 
BRANCH   6   8
HETATM    8  C   UNL     1     -10.517  18.390  67.199  1.00  0.00    -0.404 C  
BRANCH   8   9
HETATM    9  C   UNL     1     -10.806  17.148  66.372  1.00  0.00     0.058 A  
HETATM   10  C   UNL     1     -11.296  15.995  66.985  1.00  0.00     0.149 A  
HETATM   11  C   UNL     1     -11.263  14.763  66.312  1.00  0.00    -0.343 A  
HETATM   12  C   UNL     1     -10.829  14.635  64.981  1.00  0.00    -0.431 A  
HETATM   13  C   UNL     1     -10.539  17.066  65.003  1.00  0.00     0.079 A  
HETATM   14  C   UNL     1     -10.579  15.842  64.311  1.00  0.00     0.897 A  
BRANCH  12  15
HETATM   15  C   UNL     1     -10.648  13.280  64.356  1.00  0.00    -0.438 A  
HETATM   16  C   UNL     1     -11.251  13.074  63.081  1.00  0.00     0.356 A  
HETATM   17  C   UNL     1     -11.288  11.835  62.439  1.00  0.00     1.815 A  
HETATM   18  C   UNL     1     -10.674  10.745  63.026  1.00  0.00     0.472 A  
HETATM   19  C   UNL     1     -10.028  10.910  64.249  1.00  0.00    -0.392 A  
HETATM   20  C   UNL     1     -10.003  12.153  64.936  1.00  0.00    -0.235 A  
BRANCH  20  21
HETATM   21  C   UNL     1      -9.310  12.113  66.223  1.00  0.00    -0.218 A  
HETATM   22  N   UNL     1      -8.143  12.751  66.460  1.00  0.00    -0.325 NA 
HETATM   23  N   UNL     1      -7.888  12.351  67.710  1.00  0.00    -0.141 NA 
HETATM   24  H   UNL     1      -7.605  13.367  65.852  1.00  0.00     0.000 HD 
HETATM   25  N   UNL     1      -8.806  11.550  68.266  1.00  0.00    -0.161 NA 
HETATM   26  N   UNL     1      -9.704  11.362  67.307  1.00  0.00    -0.184 NA 
ENDBRANCH  20  21
ENDBRANCH  12  15
ENDBRANCH   8   9
ENDBRANCH   6   8
BRANCH   6  27
HETATM   27  C   UNL     1      -8.290  19.449  66.522  1.00  0.00    -0.328 C  
HETATM   28  C   UNL     1      -7.025  20.247  66.969  1.00  0.00    -0.251 C  
HETATM   29  O   UNL     1      -6.063  20.410  66.219  1.00  0.00    -0.180 OA 
HETATM   30  C   UNL     1      -9.193  20.269  65.547  1.00  0.00     0.368 C  
HETATM   31  O   UNL     1      -7.040  20.852  68.169  1.00  0.00    -0.168 OA 
HETATM   32  C   UNL     1     -10.247  21.145  66.213  1.00  0.00     1.748 C  
HETATM   33  C   UNL     1      -8.422  21.054  64.484  1.00  0.00     2.321 C  
ENDBRANCH   6  27
ENDBRANCH   4   5
ENDBRANCH   3   4
ENDBRANCH   2   3
TORSDOF 8
ENDMDL
MODEL      356
REMARK 921   NORMALIZED FREE ENERGY PREDICTED BY IDOCK:   11.24 KCAL/MOL
REMARK 922        TOTAL FREE ENERGY PREDICTED BY IDOCK:   15.97 KCAL/MOL
REMARK 923 INTER-LIGAND FREE ENERGY PREDICTED BY IDOCK:   13.54 KCAL/MOL
REMARK 924 INTRA-LIGAND FREE ENERGY PREDICTED BY IDOCK:    2.43 KCAL/MOL
REMARK 927      BINDING AFFINITY PREDICTED BY RF-SCORE:    0.00 PKD
ROOT
HETATM    1  C   UNL     1     -12.036   4.596  68.386  1.00  0.00     9.328 C  
HETATM    2  C   UNL     1     -12.074   5.842  67.525  1.00  0.00     3.866 C  
ENDROOT
BRANCH   2   3
HETATM    3  C   UNL     1     -10.983   6.849  67.897  1.00  0.00    -0.260 C  
BRANCH   3   4
HETATM    4  C   UNL     1     -11.637   8.157  68.342  1.00  0.00     1.470 C  
BRANCH   4   5
HETATM    5  C   UNL     1     -10.740   9.371  68.233  1.00  0.00    -0.171 C  
HETATM    6  N   UNL     1      -9.424   9.273  68.683  1.00  0.00    -0.145 N  
HETATM    7  O   UNL     1     -11.177  10.428  67.769  1.00  0.00    -0.309 OA 
BRANCH   6   8
HETATM    8  C   UNL     1      -8.853   8.001  69.216  1.00  0.00    -0.141 C  
BRANCH   8   9
HETATM    9  C   UNL     1      -8.066   7.185  68.203  1.00  0.00    -0.124 A  
HETATM   10  C   UNL     1      -8.241   7.404  66.837  1.00  0.00    -0.121 A  
HETATM   11  C   UNL     1      -7.780   6.464  65.902  1.00  0.00    -0.094 A  
HETATM   12  C   UNL     1      -7.052   5.318  66.270  1.00  0.00    -0.072 A  
HETATM   13  C   UNL     1      -7.201   6.151  68.569  1.00  0.00    -0.084 A  
HETATM   14  C   UNL     1      -6.677   5.252  67.621  1.00  0.00    -0.055 A  
BRANCH  12  15
HETATM   15  C   UNL     1      -6.726   4.253  65.261  1.00  0.00    -0.049 A  
HETATM   16  C   UNL     1      -5.778   4.593  64.251  1.00  0.00    -0.014 A  
HETATM   17  C   UNL     1      -5.478   3.764  63.169  1.00  0.00    -0.012 A  
HETATM   18  C   UNL     1      -6.081   2.524  63.073  1.00  0.00    -0.010 A  
HETATM   19  C   UNL     1      -6.976   2.128  64.063  1.00  0.00    -0.039 A  
HETATM   20  C   UNL     1      -7.322   2.966  65.157  1.00  0.00    -0.067 A  
BRANCH  20  21
HETATM   21  C   UNL     1      -8.308   2.387  66.067  1.00  0.00    -0.094 A  
HETATM   22  N   UNL     1      -9.429   1.760  65.649  1.00  0.00    -0.330 NA 
HETATM   23  N   UNL     1     -10.020   1.495  66.819  1.00  0.00     0.813 NA 
HETATM   24  H   UNL     1      -9.738   1.547  64.701  1.00  0.00     0.000 HD 
HETATM   25  N   UNL     1      -9.350   1.880  67.913  1.00  0.00    -0.178 NA 
HETATM   26  N   UNL     1      -8.268   2.487  67.440  1.00  0.00    -0.073 NA 
ENDBRANCH  20  21
ENDBRANCH  12  15
ENDBRANCH   8   9
ENDBRANCH   6   8
BRANCH   6  27
HETATM   27  C   UNL     1      -8.452  10.398  68.418  1.00  0.00    -0.124 C  
HETATM   28  C   UNL     1      -7.030  10.404  69.062  1.00  0.00    -0.071 C  
HETATM   29  O   UNL     1      -6.055  10.870  68.473  1.00  0.00    -0.043 OA 
HETATM   30  C   UNL     1      -9.118  11.810  68.440  1.00  0.00    -0.176 C  
HETATM   31  O   UNL     1      -6.899   9.978  70.330  1.00  0.00    -0.118 OA 
HETATM   32  C   UNL     1      -9.923  12.133  69.693  1.00  0.00     1.197 C  
HETATM   33  C   UNL     1      -8.172  12.959  68.087  1.00  0.00    -0.163 C  
ENDBRANCH   6  27
ENDBRANCH   4   5
ENDBRANCH   3   4
ENDBRANCH   2   3
TORSDOF 8
ENDMDL
MODEL      357
REMARK 921   NORMALIZED FREE ENERGY PREDICTED BY IDOCK:   11.37 KCAL/MOL
REMARK 922        TOTAL FREE ENERGY PREDICTED BY IDOCK:   16.16 KCAL/MOL
REMARK 923 INTER-LIGAND FREE ENERGY PREDICTED BY IDOCK:   15.00 KCAL/MOL
REMARK 924 INTRA-LIGAND FREE ENERGY PREDICTED BY IDOCK:    1.16 KCAL/MOL
REMARK 927      BINDING AFFINITY PREDICTED BY RF-SCORE:    0.00 PKD
ROOT
HETATM    1  C   UNL     1     -13.513   5.338  65.402  1.00  0.00     9.370 C  
HETATM    2  C   UNL     1     -12.265   6.178  65.216  1.00  0.00     6.281 C  
ENDROOT
BRANCH   2   3
HETATM    3  C   UNL     1     -11.259   5.996  66.355  1.00  0.00     0.335 C  
BRANCH   3   4
HETATM    4  C   UNL     1      -9.891   6.507  65.902  1.00  0.00     0.318 C  
BRANCH   4   5
HETATM    5  C   UNL     1      -9.014   5.455  65.259  1.00  0.00    -0.098 C  
HETATM    6  N   UNL     1      -7.639   5.674  65.200  1.00  0.00    -0.075 N  
HETATM    7  O   UNL     1      -9.516   4.431  64.784  1.00  0.00    -0.158 OA 
BRANCH   6   8
HETATM    8  C   UNL     1      -6.994   6.881  65.796  1.00  0.00    -0.064 C  
BRANCH   8   9
HETATM    9  C   UNL     1      -6.817   6.827  67.304  1.00  0.00    -0.072 A  
HETATM   10  C   UNL     1      -7.195   5.689  68.016  1.00  0.00    -0.072 A  
HETATM   11  C   UNL     1      -7.340   5.738  69.411  1.00  0.00    -0.071 A  
HETATM   12  C   UNL     1      -7.033   6.883  70.168  1.00  0.00    -0.066 A  
HETATM   13  C   UNL     1      -6.346   7.909  68.053  1.00  0.00    -0.051 A  
HETATM   14  C   UNL     1      -6.423   7.928  69.458  1.00  0.00    -0.035 A  
BRANCH  12  15
HETATM   15  C   UNL     1      -7.364   6.951  71.633  1.00  0.00    -0.084 A  
HETATM   16  C   UNL     1      -6.642   7.902  72.412  1.00  0.00    -0.069 A  
HETATM   17  C   UNL     1      -6.737   7.988  73.801  1.00  0.00    -0.134 A  
HETATM   18  C   UNL     1      -7.604   7.151  74.478  1.00  0.00    -0.143 A  
HETATM   19  C   UNL     1      -8.367   6.239  73.754  1.00  0.00    -0.116 A  
HETATM   20  C   UNL     1      -8.266   6.111  72.343  1.00  0.00    -0.108 A  
BRANCH  20  21
HETATM   21  C   UNL     1      -9.119   5.071  71.772  1.00  0.00    -0.137 A  
HETATM   22  N   UNL     1     -10.340   5.313  71.249  1.00  0.00    -0.225 NA 
HETATM   23  N   UNL     1     -10.736   4.072  70.947  1.00  0.00     0.839 NA 
HETATM   24  H   UNL     1     -10.827   6.200  71.119  1.00  0.00     0.000 HD 
HETATM   25  N   UNL     1      -9.857   3.098  71.214  1.00  0.00    -0.141 NA 
HETATM   26  N   UNL     1      -8.832   3.724  71.778  1.00  0.00    -0.098 NA 
ENDBRANCH  20  21
ENDBRANCH  12  15
ENDBRANCH   8   9
ENDBRANCH   6   8
BRANCH   6  27
HETATM   27  C   UNL     1      -6.719   4.568  64.739  1.00  0.00    -0.045 C  
HETATM   28  C   UNL     1      -5.790   3.820  65.747  1.00  0.00    -0.022 C  
HETATM   29  O   UNL     1      -5.521   2.627  65.615  1.00  0.00    -0.015 OA 
HETATM   30  C   UNL     1      -5.999   4.883  63.391  1.00  0.00    -0.018 C  
HETATM   31  O   UNL     1      -5.195   4.531  66.719  1.00  0.00    -0.008 OA 
HETATM   32  C   UNL     1      -5.246   6.207  63.345  1.00  0.00    -0.018 C  
HETATM   33  C   UNL     1      -5.130   3.741  62.859  1.00  0.00    -0.005 C  
ENDBRANCH   6  27
ENDBRANCH   4   5
ENDBRANCH   3   4
ENDBRANCH   2   3
TORSDOF 8
ENDMDL
MODEL      358
REMARK 921   NORMALIZED FREE ENERGY PREDICTED BY IDOCK:   13.20 KCAL/MOL
REMARK 922        TOTAL FREE ENERGY PREDICTED BY IDOCK:   18.85 KCAL/MOL
REMARK 923 INTER-LIGAND FREE ENERGY PREDICTED BY IDOCK:   15.69 KCAL/MOL
REMARK 924 INTRA-LIGAND FREE ENERGY PREDICTED BY IDOCK:    3.16 KCAL/MOL
REMARK 927      BINDING AFFINITY PREDICTED BY RF-SCORE:    0.00 PKD
ROOT
HETATM    1  C   UNL     1     -13.388   5.929  63.385  1.00  0.00    10.561 C  
HETATM    2  C   UNL     1     -11.965   5.616  63.800  1.00  0.00     6.691 C  
ENDROOT
BRANCH   2   3
HETATM    3  C   UNL     1     -11.392   4.401  63.066  1.00  0.00     0.897 C  
BRANCH   3   4
HETATM    4  C   UNL     1     -11.205   3.255  64.061  1.00  0.00     0.499 C  
BRANCH   4   5
HETATM    5  C   UNL     1      -9.780   2.759  64.178  1.00  0.00    -0.151 C  
HETATM    6  N   UNL     1      -8.782   3.666  64.528  1.00  0.00    -0.104 N  
HETATM    7  O   UNL     1      -9.513   1.575  63.951  1.00  0.00    -0.111 OA 
BRANCH   6   8
HETATM    8  C   UNL     1      -9.074   5.095  64.846  1.00  0.00    -0.035 C  
BRANCH   8   9
HETATM    9  C   UNL     1      -9.609   5.337  66.248  1.00  0.00    -0.175 A  
HETATM   10  C   UNL     1     -10.956   5.642  66.443  1.00  0.00    -0.083 A  
HETATM   11  C   UNL     1     -11.395   6.177  67.664  1.00  0.00     0.108 A  
HETATM   12  C   UNL     1     -10.542   6.350  68.769  1.00  0.00    -0.295 A  
HETATM   13  C   UNL     1      -8.794   5.341  67.383  1.00  0.00    -0.105 A  
HETATM   14  C   UNL     1      -9.256   5.807  68.627  1.00  0.00    -0.125 A  
BRANCH  12  15
HETATM   15  C   UNL     1     -11.009   7.082  69.996  1.00  0.00    -0.303 A  
HETATM   16  C   UNL     1     -12.418   7.187  70.185  1.00  0.00     0.341 A  
HETATM   17  C   UNL     1     -13.003   7.950  71.196  1.00  0.00    -0.137 A  
HETATM   18  C   UNL     1     -12.197   8.611  72.104  1.00  0.00    -0.453 A  
HETATM   19  C   UNL     1     -10.814   8.497  71.989  1.00  0.00    -0.405 A  
HETATM   20  C   UNL     1     -10.194   7.751  70.951  1.00  0.00    -0.207 A  
BRANCH  20  21
HETATM   21  C   UNL     1      -8.734   7.786  70.977  1.00  0.00    -0.136 A  
HETATM   22  N   UNL     1      -7.961   6.680  70.915  1.00  0.00    -0.109 NA 
HETATM   23  N   UNL     1      -6.743   7.215  71.053  1.00  0.00    -0.048 NA 
HETATM   24  H   UNL     1      -8.233   5.705  70.795  1.00  0.00     0.000 HD 
HETATM   25  N   UNL     1      -6.701   8.549  71.167  1.00  0.00    -0.055 NA 
HETATM   26  N   UNL     1      -7.975   8.921  71.157  1.00  0.00    -0.154 NA 
ENDBRANCH  20  21
ENDBRANCH  12  15
ENDBRANCH   8   9
ENDBRANCH   6   8
BRANCH   6  27
HETATM   27  C   UNL     1      -7.389   3.171  64.838  1.00  0.00    -0.071 C  
HETATM   28  C   UNL     1      -6.476   3.917  65.862  1.00  0.00    -0.033 C  
HETATM   29  O   UNL     1      -5.683   3.312  66.581  1.00  0.00    -0.021 OA 
HETATM   30  C   UNL     1      -6.602   2.705  63.573  1.00  0.00    -0.030 C  
HETATM   31  O   UNL     1      -6.496   5.260  65.877  1.00  0.00    -0.038 OA 
HETATM   32  C   UNL     1      -6.528   3.720  62.438  1.00  0.00    -0.022 C  
HETATM   33  C   UNL     1      -5.222   2.117  63.870  1.00  0.00    -0.008 C  
ENDBRANCH   6  27
ENDBRANCH   4   5
ENDBRANCH   3   4
ENDBRANCH   2   3
TORSDOF 8
ENDMDL
MODEL      359
REMARK 921   NORMALIZED FREE ENERGY PREDICTED BY IDOCK:   14.54 KCAL/MOL
REMARK 922        TOTAL FREE ENERGY PREDICTED BY IDOCK:   20.81 KCAL/MOL
REMARK 923 INTER-LIGAND FREE ENERGY PREDICTED BY IDOCK:    8.94 KCAL/MOL
REMARK 924 INTRA-LIGAND FREE ENERGY PREDICTED BY IDOCK:   11.87 KCAL/MOL
REMARK 927      BINDING AFFINITY PREDICTED BY RF-SCORE:    0.00 PKD
ROOT
HETATM    1  C   UNL     1     -10.219   8.138  71.360  1.00  0.00    -0.248 C  
HETATM    2  C   UNL     1     -10.788   9.208  72.269  1.00  0.00     0.090 C  
ENDROOT
BRANCH   2   3
HETATM    3  C   UNL     1     -12.274   9.468  72.013  1.00  0.00    -0.370 C  
BRANCH   3   4
HETATM    4  C   UNL     1     -12.554   9.347  70.514  1.00  0.00     0.126 C  
BRANCH   4   5
HETATM    5  C   UNL     1     -11.323   9.104  69.669  1.00  0.00     0.088 C  
HETATM    6  N   UNL     1     -10.332  10.083  69.633  1.00  0.00    -0.231 N  
HETATM    7  O   UNL     1     -11.213   8.063  69.014  1.00  0.00     0.153 OA 
BRANCH   6   8
HETATM    8  C   UNL     1     -10.414  11.336  70.440  1.00  0.00     1.426 C  
BRANCH   8   9
HETATM    9  C   UNL     1     -10.867  12.562  69.666  1.00  0.00     0.263 A  
HETATM   10  C   UNL     1     -10.710  12.617  68.281  1.00  0.00    -0.248 A  
HETATM   11  C   UNL     1     -10.820  13.839  67.601  1.00  0.00    -0.264 A  
HETATM   12  C   UNL     1     -11.175  15.039  68.243  1.00  0.00    -0.309 A  
HETATM   13  C   UNL     1     -11.387  13.703  70.284  1.00  0.00     0.085 A  
HETATM   14  C   UNL     1     -11.568  14.909  69.584  1.00  0.00    -0.337 A  
BRANCH  12  15
HETATM   15  C   UNL     1     -11.113  16.352  67.514  1.00  0.00    -0.109 A  
HETATM   16  C   UNL     1     -10.422  17.417  68.164  1.00  0.00    -0.389 A  
HETATM   17  C   UNL     1     -10.398  18.725  67.681  1.00  0.00    -0.476 A  
HETATM   18  C   UNL     1     -11.028  19.023  66.487  1.00  0.00    -0.131 A  
HETATM   19  C   UNL     1     -11.674  18.004  65.791  1.00  0.00     2.875 A  
HETATM   20  C   UNL     1     -11.739  16.671  66.277  1.00  0.00     1.495 A  
BRANCH  20  21
HETATM   21  C   UNL     1     -12.495  15.757  65.423  1.00  0.00     1.330 A  
HETATM   22  N   UNL     1     -11.995  15.205  64.297  1.00  0.00    -0.746 NA 
HETATM   23  N   UNL     1     -13.063  14.537  63.848  1.00  0.00     0.112 NA 
HETATM   24  H   UNL     1     -11.059  15.277  63.899  1.00  0.00     0.000 HD 
HETATM   25  N   UNL     1     -14.161  14.611  64.612  1.00  0.00     3.478 NA 
HETATM   26  N   UNL     1     -13.818  15.421  65.605  1.00  0.00     2.323 NA 
ENDBRANCH  20  21
ENDBRANCH  12  15
ENDBRANCH   8   9
ENDBRANCH   6   8
BRANCH   6  27
HETATM   27  C   UNL     1      -9.013   9.795  68.955  1.00  0.00    -0.144 C  
HETATM   28  C   UNL     1      -8.251  10.908  68.166  1.00  0.00    -0.121 C  
HETATM   29  O   UNL     1      -7.023  10.953  68.137  1.00  0.00    -0.067 OA 
HETATM   30  C   UNL     1      -8.983   8.421  68.217  1.00  0.00    -0.139 C  
HETATM   31  O   UNL     1      -8.966  11.770  67.425  1.00  0.00    -0.164 OA 
HETATM   32  C   UNL     1     -10.114   8.187  67.223  1.00  0.00    -0.309 C  
HETATM   33  C   UNL     1      -7.630   8.067  67.598  1.00  0.00    -0.102 C  
ENDBRANCH   6  27
ENDBRANCH   4   5
ENDBRANCH   3   4
ENDBRANCH   2   3
TORSDOF 8
ENDMDL
MODEL      360
REMARK 921   NORMALIZED FREE ENERGY PREDICTED BY IDOCK:   15.05 KCAL/MOL
REMARK 922        TOTAL FREE ENERGY PREDICTED BY IDOCK:   21.56 KCAL/MOL
REMARK 923 INTER-LIGAND FREE ENERGY PREDICTED BY IDOCK:   10.16 KCAL/MOL
REMARK 924 INTRA-LIGAND FREE ENERGY PREDICTED BY IDOCK:   11.40 KCAL/MOL
REMARK 927      BINDING AFFINITY PREDICTED BY RF-SCORE:    0.00 PKD
ROOT
HETATM    1  C   UNL     1     -10.203   8.149  71.365  1.00  0.00    -0.248 C  
HETATM    2  C   UNL     1     -10.725   9.273  72.238  1.00  0.00     0.360 C  
ENDROOT
BRANCH   2   3
HETATM    3  C   UNL     1     -12.161   9.670  71.888  1.00  0.00    -0.380 C  
BRANCH   3   4
HETATM    4  C   UNL     1     -12.361   9.551  70.377  1.00  0.00     0.058 C  
BRANCH   4   5
HETATM    5  C   UNL     1     -11.142   9.064  69.624  1.00  0.00    -0.067 C  
HETATM    6  N   UNL     1      -9.969   9.813  69.695  1.00  0.00    -0.209 N  
HETATM    7  O   UNL     1     -11.198   8.032  68.949  1.00  0.00     0.192 OA 
BRANCH   6   8
HETATM    8  C   UNL     1      -9.854  11.045  70.530  1.00  0.00     2.281 C  
BRANCH   8   9
HETATM    9  C   UNL     1      -9.835  12.346  69.745  1.00  0.00     1.825 A  
HETATM   10  C   UNL     1      -8.671  13.112  69.684  1.00  0.00     1.864 A  
HETATM   11  C   UNL     1      -8.720  14.445  69.247  1.00  0.00     0.189 A  
HETATM   12  C   UNL     1      -9.897  15.047  68.770  1.00  0.00    -0.233 A  
HETATM   13  C   UNL     1     -10.967  12.871  69.115  1.00  0.00    -0.184 A  
HETATM   14  C   UNL     1     -10.992  14.184  68.609  1.00  0.00    -0.275 A  
BRANCH  12  15
HETATM   15  C   UNL     1      -9.946  16.520  68.474  1.00  0.00    -0.251 A  
HETATM   16  C   UNL     1     -11.056  17.245  69.000  1.00  0.00     0.259 A  
HETATM   17  C   UNL     1     -11.312  18.583  68.698  1.00  0.00     1.674 A  
HETATM   18  C   UNL     1     -10.435  19.279  67.887  1.00  0.00    -0.514 A  
HETATM   19  C   UNL     1      -9.310  18.626  67.390  1.00  0.00    -0.298 A  
HETATM   20  C   UNL     1      -9.043  17.257  67.658  1.00  0.00    -0.228 A  
BRANCH  20  21
HETATM   21  C   UNL     1      -7.836  16.744  67.014  1.00  0.00    -0.194 A  
HETATM   22  N   UNL     1      -6.589  16.969  67.483  1.00  0.00    -0.138 NA 
HETATM   23  N   UNL     1      -5.853  16.383  66.532  1.00  0.00    -0.175 NA 
HETATM   24  H   UNL     1      -6.291  17.453  68.329  1.00  0.00     0.000 HD 
HETATM   25  N   UNL     1      -6.538  15.798  65.541  1.00  0.00     4.811 NA 
HETATM   26  N   UNL     1      -7.810  16.056  65.822  1.00  0.00     0.949 NA 
ENDBRANCH  20  21
ENDBRANCH  12  15
ENDBRANCH   8   9
ENDBRANCH   6   8
BRANCH   6  27
HETATM   27  C   UNL     1      -8.688   9.262  69.115  1.00  0.00    -0.139 C  
HETATM   28  C   UNL     1      -7.650  10.198  68.417  1.00  0.00    -0.087 C  
HETATM   29  O   UNL     1      -6.441   9.986  68.484  1.00  0.00    -0.049 OA 
HETATM   30  C   UNL     1      -8.884   7.918  68.346  1.00  0.00    -0.130 C  
HETATM   31  O   UNL     1      -8.107  11.197  67.644  1.00  0.00    -0.113 OA 
HETATM   32  C   UNL     1      -9.955   7.936  67.261  1.00  0.00    -0.280 C  
HETATM   33  C   UNL     1      -7.588   7.295  67.825  1.00  0.00    -0.110 C  
ENDBRANCH   6  27
ENDBRANCH   4   5
ENDBRANCH   3   4
ENDBRANCH   2   3
TORSDOF 8
ENDMDL
MODEL      361
REMARK 921   NORMALIZED FREE ENERGY PREDICTED BY IDOCK:   17.25 KCAL/MOL
REMARK 922        TOTAL FREE ENERGY PREDICTED BY IDOCK:   24.80 KCAL/MOL
REMARK 923 INTER-LIGAND FREE ENERGY PREDICTED BY IDOCK:   23.23 KCAL/MOL
REMARK 924 INTRA-LIGAND FREE ENERGY PREDICTED BY IDOCK:    1.57 KCAL/MOL
REMARK 927      BINDING AFFINITY PREDICTED BY RF-SCORE:    0.00 PKD
ROOT
HETATM    1  C   UNL     1     -13.853   6.400  63.440  1.00  0.00    11.623 C  
HETATM    2  C   UNL     1     -12.406   6.011  63.667  1.00  0.00     9.858 C  
ENDROOT
BRANCH   2   3
HETATM    3  C   UNL     1     -11.970   4.830  62.796  1.00  0.00     2.625 C  
BRANCH   3   4
HETATM    4  C   UNL     1     -11.726   3.613  63.688  1.00  0.00     1.586 C  
BRANCH   4   5
HETATM    5  C   UNL     1     -10.378   2.953  63.487  1.00  0.00    -0.198 C  
HETATM    6  N   UNL     1      -9.238   3.754  63.469  1.00  0.00    -0.114 N  
HETATM    7  O   UNL     1     -10.301   1.732  63.326  1.00  0.00    -0.118 OA 
BRANCH   6   8
HETATM    8  C   UNL     1      -9.291   5.228  63.697  1.00  0.00     0.528 C  
BRANCH   8   9
HETATM    9  C   UNL     1      -8.871   5.671  65.089  1.00  0.00    -0.055 A  
HETATM   10  C   UNL     1      -9.705   5.438  66.182  1.00  0.00    -0.165 A  
HETATM   11  C   UNL     1      -9.492   6.111  67.395  1.00  0.00    -0.118 A  
HETATM   12  C   UNL     1      -8.399   6.970  67.607  1.00  0.00    -0.117 A  
HETATM   13  C   UNL     1      -7.693   6.381  65.337  1.00  0.00    -0.098 A  
HETATM   14  C   UNL     1      -7.444   6.993  66.580  1.00  0.00    -0.081 A  
BRANCH  12  15
HETATM   15  C   UNL     1      -8.302   7.801  68.856  1.00  0.00    -0.128 A  
HETATM   16  C   UNL     1      -7.788   7.156  70.019  1.00  0.00    -0.113 A  
HETATM   17  C   UNL     1      -7.765   7.750  71.281  1.00  0.00    -0.085 A  
HETATM   18  C   UNL     1      -8.216   9.048  71.431  1.00  0.00    -0.113 A  
HETATM   19  C   UNL     1      -8.681   9.736  70.313  1.00  0.00    -0.172 A  
HETATM   20  C   UNL     1      -8.742   9.143  69.024  1.00  0.00    -0.135 A  
BRANCH  20  21
HETATM   21  C   UNL     1      -9.298  10.013  67.989  1.00  0.00    -0.130 A  
HETATM   22  N   UNL     1     -10.577  10.446  67.989  1.00  0.00    -0.203 NA 
HETATM   23  N   UNL     1     -10.615  11.118  66.833  1.00  0.00    -0.246 NA 
HETATM   24  H   UNL     1     -11.312  10.301  68.680  1.00  0.00     0.000 HD 
HETATM   25  N   UNL     1      -9.469  11.156  66.142  1.00  0.00    -0.197 NA 
HETATM   26  N   UNL     1      -8.628  10.419  66.857  1.00  0.00    -0.127 NA 
ENDBRANCH  20  21
ENDBRANCH  12  15
ENDBRANCH   8   9
ENDBRANCH   6   8
BRANCH   6  27
HETATM   27  C   UNL     1      -7.869   3.115  63.460  1.00  0.00    -0.073 C  
HETATM   28  C   UNL     1      -7.257   2.501  64.758  1.00  0.00    -0.058 C  
HETATM   29  O   UNL     1      -6.532   1.508  64.724  1.00  0.00    -0.018 OA 
HETATM   30  C   UNL     1      -6.817   3.916  62.631  1.00  0.00    -0.035 C  
HETATM   31  O   UNL     1      -7.454   3.140  65.923  1.00  0.00    -0.071 OA 
HETATM   32  C   UNL     1      -6.676   5.388  63.001  1.00  0.00    -0.026 C  
HETATM   33  C   UNL     1      -5.447   3.244  62.533  1.00  0.00    -0.005 C  
ENDBRANCH   6  27
ENDBRANCH   4   5
ENDBRANCH   3   4
ENDBRANCH   2   3
TORSDOF 8
ENDMDL
MODEL      362
REMARK 921   NORMALIZED FREE ENERGY PREDICTED BY IDOCK:   17.53 KCAL/MOL
REMARK 922        TOTAL FREE ENERGY PREDICTED BY IDOCK:   25.20 KCAL/MOL
REMARK 923 INTER-LIGAND FREE ENERGY PREDICTED BY IDOCK:   23.55 KCAL/MOL
REMARK 924 INTRA-LIGAND FREE ENERGY PREDICTED BY IDOCK:    1.65 KCAL/MOL
REMARK 927      BINDING AFFINITY PREDICTED BY RF-SCORE:    0.00 PKD
ROOT
HETATM    1  C   UNL     1     -13.854   6.401  63.440  1.00  0.00    11.623 C  
HETATM    2  C   UNL     1     -12.402   6.024  63.655  1.00  0.00     9.858 C  
ENDROOT
BRANCH   2   3
HETATM    3  C   UNL     1     -11.964   4.848  62.777  1.00  0.00     2.842 C  
BRANCH   3   4
HETATM    4  C   UNL     1     -11.706   3.629  63.664  1.00  0.00     1.586 C  
BRANCH   4   5
HETATM    5  C   UNL     1     -10.354   2.983  63.454  1.00  0.00    -0.197 C  
HETATM    6  N   UNL     1      -9.219   3.793  63.437  1.00  0.00    -0.107 N  
HETATM    7  O   UNL     1     -10.266   1.762  63.287  1.00  0.00    -0.113 OA 
BRANCH   6   8
HETATM    8  C   UNL     1      -9.284   5.265  63.673  1.00  0.00     0.403 C  
BRANCH   8   9
HETATM    9  C   UNL     1      -8.932   5.698  65.086  1.00  0.00     0.005 A  
HETATM   10  C   UNL     1      -9.587   5.129  66.179  1.00  0.00    -0.177 A  
HETATM   11  C   UNL     1      -9.512   5.732  67.444  1.00  0.00    -0.112 A  
HETATM   12  C   UNL     1      -8.720   6.865  67.703  1.00  0.00    -0.120 A  
HETATM   13  C   UNL     1      -8.011   6.712  65.364  1.00  0.00    -0.121 A  
HETATM   14  C   UNL     1      -7.883   7.265  66.651  1.00  0.00    -0.102 A  
BRANCH  12  15
HETATM   15  C   UNL     1      -8.802   7.578  69.024  1.00  0.00    -0.132 A  
HETATM   16  C   UNL     1      -8.583   8.987  69.008  1.00  0.00    -0.134 A  
HETATM   17  C   UNL     1      -8.489   9.763  70.164  1.00  0.00    -0.204 A  
HETATM   18  C   UNL     1      -8.661   9.168  71.400  1.00  0.00    -0.063 A  
HETATM   19  C   UNL     1      -8.927   7.802  71.462  1.00  0.00    -0.156 A  
HETATM   20  C   UNL     1      -8.996   6.985  70.302  1.00  0.00    -0.149 A  
BRANCH  20  21
HETATM   21  C   UNL     1      -9.245   5.572  70.578  1.00  0.00    -0.148 A  
HETATM   22  N   UNL     1     -10.396   5.108  71.110  1.00  0.00    -0.221 NA 
HETATM   23  N   UNL     1     -10.108   3.809  71.240  1.00  0.00    -0.081 NA 
HETATM   24  H   UNL     1     -11.250   5.611  71.348  1.00  0.00     0.000 HD 
HETATM   25  N   UNL     1      -8.896   3.433  70.810  1.00  0.00    -0.075 NA 
HETATM   26  N   UNL     1      -8.321   4.563  70.418  1.00  0.00    -0.073 NA 
ENDBRANCH  20  21
ENDBRANCH  12  15
ENDBRANCH   8   9
ENDBRANCH   6   8
BRANCH   6  27
HETATM   27  C   UNL     1      -7.846   3.165  63.420  1.00  0.00    -0.069 C  
HETATM   28  C   UNL     1      -7.225   2.548  64.713  1.00  0.00    -0.058 C  
HETATM   29  O   UNL     1      -6.491   1.562  64.672  1.00  0.00    -0.017 OA 
HETATM   30  C   UNL     1      -6.803   3.979  62.592  1.00  0.00    -0.035 C  
HETATM   31  O   UNL     1      -7.422   3.180  65.883  1.00  0.00    -0.071 OA 
HETATM   32  C   UNL     1      -6.673   5.450  62.970  1.00  0.00    -0.026 C  
HETATM   33  C   UNL     1      -5.427   3.318  62.487  1.00  0.00    -0.005 C  
ENDBRANCH   6  27
ENDBRANCH   4   5
ENDBRANCH   3   4
ENDBRANCH   2   3
TORSDOF 8
ENDMDL
MODEL      363
REMARK 921   NORMALIZED FREE ENERGY PREDICTED BY IDOCK:   17.55 KCAL/MOL
REMARK 922        TOTAL FREE ENERGY PREDICTED BY IDOCK:   25.23 KCAL/MOL
REMARK 923 INTER-LIGAND FREE ENERGY PREDICTED BY IDOCK:   19.56 KCAL/MOL
REMARK 924 INTRA-LIGAND FREE ENERGY PREDICTED BY IDOCK:    5.67 KCAL/MOL
REMARK 927      BINDING AFFINITY PREDICTED BY RF-SCORE:    0.00 PKD
ROOT
HETATM    1  C   UNL     1     -11.384  13.021  72.632  1.00  0.00     6.272 C  
HETATM    2  C   UNL     1     -10.973  14.469  72.456  1.00  0.00     1.838 C  
ENDROOT
BRANCH   2   3
HETATM    3  C   UNL     1     -11.496  15.075  71.152  1.00  0.00    -0.355 C  
BRANCH   3   4
HETATM    4  C   UNL     1     -10.516  16.143  70.666  1.00  0.00     0.342 C  
BRANCH   4   5
HETATM    5  C   UNL     1      -9.094  15.653  70.498  1.00  0.00     1.424 C  
HETATM    6  N   UNL     1      -8.855  14.280  70.500  1.00  0.00     2.331 N  
HETATM    7  O   UNL     1      -8.167  16.460  70.379  1.00  0.00     1.688 OA 
BRANCH   6   8
HETATM    8  C   UNL     1      -9.954  13.276  70.604  1.00  0.00     4.936 C  
BRANCH   8   9
HETATM    9  C   UNL     1     -10.440  12.726  69.273  1.00  0.00     0.205 A  
HETATM   10  C   UNL     1     -10.011  11.474  68.831  1.00  0.00    -0.117 A  
HETATM   11  C   UNL     1     -10.185  11.096  67.491  1.00  0.00    -0.216 A  
HETATM   12  C   UNL     1     -10.866  11.896  66.556  1.00  0.00    -0.317 A  
HETATM   13  C   UNL     1     -11.264  13.450  68.407  1.00  0.00    -0.311 A  
HETATM   14  C   UNL     1     -11.500  13.031  67.084  1.00  0.00    -0.379 A  
BRANCH  12  15
HETATM   15  C   UNL     1     -10.881  11.535  65.097  1.00  0.00    -0.326 A  
HETATM   16  C   UNL     1     -12.001  11.981  64.335  1.00  0.00    -0.385 A  
HETATM   17  C   UNL     1     -12.226  11.610  63.009  1.00  0.00     0.033 A  
HETATM   18  C   UNL     1     -11.305  10.808  62.361  1.00  0.00     2.301 A  
HETATM   19  C   UNL     1     -10.170  10.389  63.049  1.00  0.00     0.282 A  
HETATM   20  C   UNL     1      -9.934  10.728  64.409  1.00  0.00    -0.400 A  
BRANCH  20  21
HETATM   21  C   UNL     1      -8.708  10.159  64.965  1.00  0.00    -0.173 A  
HETATM   22  N   UNL     1      -8.571   8.855  65.287  1.00  0.00    -0.175 NA 
HETATM   23  N   UNL     1      -7.342   8.853  65.814  1.00  0.00    -0.088 NA 
HETATM   24  H   UNL     1      -9.227   8.084  65.163  1.00  0.00     0.000 HD 
HETATM   25  N   UNL     1      -6.706  10.031  65.818  1.00  0.00    -0.099 NA 
HETATM   26  N   UNL     1      -7.588  10.883  65.309  1.00  0.00     0.090 NA 
ENDBRANCH  20  21
ENDBRANCH  12  15
ENDBRANCH   8   9
ENDBRANCH   6   8
BRANCH   6  27
HETATM   27  C   UNL     1      -7.483  13.754  70.148  1.00  0.00     1.149 C  
HETATM   28  C   UNL     1      -6.253  14.030  71.069  1.00  0.00    -0.004 C  
HETATM   29  O   UNL     1      -5.347  13.208  71.202  1.00  0.00    -0.168 OA 
HETATM   30  C   UNL     1      -7.134  13.899  68.634  1.00  0.00    -0.110 C  
HETATM   31  O   UNL     1      -6.143  15.238  71.646  1.00  0.00     0.518 OA 
HETATM   32  C   UNL     1      -7.291  15.302  68.058  1.00  0.00    -0.133 C  
HETATM   33  C   UNL     1      -5.786  13.294  68.237  1.00  0.00    -0.090 C  
ENDBRANCH   6  27
ENDBRANCH   4   5
ENDBRANCH   3   4
ENDBRANCH   2   3
TORSDOF 8
ENDMDL
MODEL      364
REMARK 921   NORMALIZED FREE ENERGY PREDICTED BY IDOCK:   21.18 KCAL/MOL
REMARK 922        TOTAL FREE ENERGY PREDICTED BY IDOCK:   30.56 KCAL/MOL
REMARK 923 INTER-LIGAND FREE ENERGY PREDICTED BY IDOCK:   25.85 KCAL/MOL
REMARK 924 INTRA-LIGAND FREE ENERGY PREDICTED BY IDOCK:    4.70 KCAL/MOL
REMARK 927      BINDING AFFINITY PREDICTED BY RF-SCORE:    0.00 PKD
ROOT
HETATM    1  C   UNL     1     -12.785  13.695  67.647  1.00  0.00     0.834 C  
HETATM    2  C   UNL     1     -12.647  12.528  66.690  1.00  0.00     0.937 C  
ENDROOT
BRANCH   2   3
HETATM    3  C   UNL     1     -13.264  12.815  65.319  1.00  0.00     0.691 C  
BRANCH   3   4
HETATM    4  C   UNL     1     -12.148  13.133  64.323  1.00  0.00    -0.477 C  
BRANCH   4   5
HETATM    5  C   UNL     1     -11.449  11.914  63.761  1.00  0.00    -0.454 C  
HETATM    6  N   UNL     1     -10.348  11.400  64.444  1.00  0.00    -0.294 N  
HETATM    7  O   UNL     1     -11.843  11.401  62.709  1.00  0.00     0.338 OA 
BRANCH   6   8
HETATM    8  C   UNL     1      -9.868  11.972  65.736  1.00  0.00    -0.242 C  
BRANCH   8   9
HETATM    9  C   UNL     1      -9.996  11.041  66.930  1.00  0.00    -0.231 A  
HETATM   10  C   UNL     1     -11.253  10.597  67.343  1.00  0.00    -0.280 A  
HETATM   11  C   UNL     1     -11.420  10.013  68.608  1.00  0.00    -0.033 A  
HETATM   12  C   UNL     1     -10.344   9.763  69.479  1.00  0.00    -0.247 A  
HETATM   13  C   UNL     1      -8.904  10.644  67.705  1.00  0.00    -0.131 A  
HETATM   14  C   UNL     1      -9.069   9.990  68.940  1.00  0.00    -0.159 A  
BRANCH  12  15
HETATM   15  C   UNL     1     -10.584   9.296  70.887  1.00  0.00    -0.366 A  
HETATM   16  C   UNL     1     -10.363  10.247  71.926  1.00  0.00     3.320 A  
HETATM   17  C   UNL     1     -10.409   9.927  73.284  1.00  0.00     7.497 A  
HETATM   18  C   UNL     1     -10.731   8.640  73.670  1.00  0.00     2.738 A  
HETATM   19  C   UNL     1     -11.005   7.688  72.690  1.00  0.00    -0.405 A  
HETATM   20  C   UNL     1     -10.934   7.981  71.302  1.00  0.00    -0.269 A  
BRANCH  20  21
HETATM   21  C   UNL     1     -11.216   6.841  70.433  1.00  0.00    -0.328 A  
HETATM   22  N   UNL     1     -10.271   5.973  70.014  1.00  0.00    -0.191 NA 
HETATM   23  N   UNL     1     -10.991   5.188  69.204  1.00  0.00     0.353 NA 
HETATM   24  H   UNL     1      -9.280   5.928  70.250  1.00  0.00     0.000 HD 
HETATM   25  N   UNL     1     -12.294   5.483  69.113  1.00  0.00     5.048 NA 
HETATM   26  N   UNL     1     -12.442   6.564  69.869  1.00  0.00     0.651 NA 
ENDBRANCH  20  21
ENDBRANCH  12  15
ENDBRANCH   8   9
ENDBRANCH   6   8
BRANCH   6  27
HETATM   27  C   UNL     1      -9.747  10.082  64.017  1.00  0.00    -0.087 C  
HETATM   28  C   UNL     1     -10.154   8.746  64.715  1.00  0.00     2.329 C  
HETATM   29  O   UNL     1     -10.213   7.685  64.096  1.00  0.00     5.398 OA 
HETATM   30  C   UNL     1      -8.213  10.161  63.741  1.00  0.00    -0.163 C  
HETATM   31  O   UNL     1     -10.345   8.750  66.045  1.00  0.00    -0.052 OA 
HETATM   32  C   UNL     1      -7.374  10.748  64.871  1.00  0.00     0.238 C  
HETATM   33  C   UNL     1      -7.597   8.860  63.222  1.00  0.00    -0.109 C  
ENDBRANCH   6  27
ENDBRANCH   4   5
ENDBRANCH   3   4
ENDBRANCH   2   3
TORSDOF 8
ENDMDL
MODEL      365
REMARK 921   NORMALIZED FREE ENERGY PREDICTED BY IDOCK:   21.49 KCAL/MOL
REMARK 922        TOTAL FREE ENERGY PREDICTED BY IDOCK:   31.01 KCAL/MOL
REMARK 923 INTER-LIGAND FREE ENERGY PREDICTED BY IDOCK:   24.37 KCAL/MOL
REMARK 924 INTRA-LIGAND FREE ENERGY PREDICTED BY IDOCK:    6.64 KCAL/MOL
REMARK 927      BINDING AFFINITY PREDICTED BY RF-SCORE:    0.00 PKD
ROOT
HETATM    1  C   UNL     1     -11.373  13.003  72.672  1.00  0.00     6.272 C  
HETATM    2  C   UNL     1     -10.913  14.446  72.650  1.00  0.00     2.322 C  
ENDROOT
BRANCH   2   3
HETATM    3  C   UNL     1     -11.474  15.223  71.456  1.00  0.00    -0.457 C  
BRANCH   3   4
HETATM    4  C   UNL     1     -10.449  16.268  71.012  1.00  0.00     0.958 C  
BRANCH   4   5
HETATM    5  C   UNL     1      -9.098  15.696  70.640  1.00  0.00     1.759 C  
HETATM    6  N   UNL     1      -8.977  14.317  70.479  1.00  0.00     2.336 N  
HETATM    7  O   UNL     1      -8.124  16.441  70.499  1.00  0.00     2.040 OA 
BRANCH   6   8
HETATM    8  C   UNL     1     -10.140  13.391  70.604  1.00  0.00     4.288 C  
BRANCH   8   9
HETATM    9  C   UNL     1     -10.905  13.152  69.313  1.00  0.00    -0.055 A  
HETATM   10  C   UNL     1     -10.652  12.014  68.547  1.00  0.00    -0.252 A  
HETATM   11  C   UNL     1     -11.101  11.937  67.219  1.00  0.00    -0.344 A  
HETATM   12  C   UNL     1     -11.890  12.937  66.623  1.00  0.00    -0.461 A  
HETATM   13  C   UNL     1     -11.826  14.067  68.795  1.00  0.00    -0.396 A  
HETATM   14  C   UNL     1     -12.335  13.948  67.488  1.00  0.00    -0.113 A  
BRANCH  12  15
HETATM   15  C   UNL     1     -12.204  12.898  65.153  1.00  0.00    -0.519 A  
HETATM   16  C   UNL     1     -12.830  11.716  64.660  1.00  0.00     0.927 A  
HETATM   17  C   UNL     1     -13.057  11.474  63.305  1.00  0.00     0.462 A  
HETATM   18  C   UNL     1     -12.710  12.435  62.374  1.00  0.00     2.255 A  
HETATM   19  C   UNL     1     -12.141  13.628  62.813  1.00  0.00     1.208 A  
HETATM   20  C   UNL     1     -11.872  13.885  64.184  1.00  0.00    -0.417 A  
BRANCH  20  21
HETATM   21  C   UNL     1     -11.236  15.176  64.439  1.00  0.00    -0.169 A  
HETATM   22  N   UNL     1      -9.941  15.436  64.159  1.00  0.00     0.781 NA 
HETATM   23  N   UNL     1      -9.825  16.680  64.636  1.00  0.00     1.220 NA 
HETATM   24  H   UNL     1      -9.243  14.845  63.708  1.00  0.00     0.000 HD 
HETATM   25  N   UNL     1     -10.938  17.212  65.156  1.00  0.00    -0.516 NA 
HETATM   26  N   UNL     1     -11.839  16.242  65.069  1.00  0.00     0.370 NA 
ENDBRANCH  20  21
ENDBRANCH  12  15
ENDBRANCH   8   9
ENDBRANCH   6   8
BRANCH   6  27
HETATM   27  C   UNL     1      -7.698  13.733  69.927  1.00  0.00     1.046 C  
HETATM   28  C   UNL     1      -6.423  13.597  70.818  1.00  0.00     0.390 C  
HETATM   29  O   UNL     1      -5.636  12.662  70.682  1.00  0.00    -0.159 OA 
HETATM   30  C   UNL     1      -7.363  14.229  68.485  1.00  0.00    -0.117 C  
HETATM   31  O   UNL     1      -6.136  14.585  71.681  1.00  0.00    -0.012 OA 
HETATM   32  C   UNL     1      -7.338  15.742  68.303  1.00  0.00    -0.121 C  
HETATM   33  C   UNL     1      -6.119  13.584  67.870  1.00  0.00    -0.152 C  
ENDBRANCH   6  27
ENDBRANCH   4   5
ENDBRANCH   3   4
ENDBRANCH   2   3
TORSDOF 8
ENDMDL
MODEL      366
REMARK 921   NORMALIZED FREE ENERGY PREDICTED BY IDOCK:   23.08 KCAL/MOL
REMARK 922        TOTAL FREE ENERGY PREDICTED BY IDOCK:   33.35 KCAL/MOL
REMARK 923 INTER-LIGAND FREE ENERGY PREDICTED BY IDOCK:   31.49 KCAL/MOL
REMARK 924 INTRA-LIGAND FREE ENERGY PREDICTED BY IDOCK:    1.86 KCAL/MOL
REMARK 927      BINDING AFFINITY PREDICTED BY RF-SCORE:    0.00 PKD
ROOT
HETATM    1  C   UNL     1     -14.062   6.791  63.485  1.00  0.00    11.793 C  
HETATM    2  C   UNL     1     -12.590   6.587  63.780  1.00  0.00    14.025 C  
ENDROOT
BRANCH   2   3
HETATM    3  C   UNL     1     -12.024   5.333  63.108  1.00  0.00     4.503 C  
BRANCH   3   4
HETATM    4  C   UNL     1     -11.813   4.249  64.165  1.00  0.00     1.943 C  
BRANCH   4   5
HETATM    5  C   UNL     1     -10.398   3.717  64.238  1.00  0.00    -0.245 C  
HETATM    6  N   UNL     1      -9.339   4.617  64.129  1.00  0.00    -0.078 N  
HETATM    7  O   UNL     1     -10.194   2.507  64.375  1.00  0.00    -0.007 OA 
BRANCH   6   8
HETATM    8  C   UNL     1      -9.549   6.089  64.001  1.00  0.00     1.981 C  
BRANCH   8   9
HETATM    9  C   UNL     1      -8.733   6.933  64.965  1.00  0.00     0.198 A  
HETATM   10  C   UNL     1      -9.127   7.056  66.298  1.00  0.00    -0.178 A  
HETATM   11  C   UNL     1      -8.587   8.067  67.108  1.00  0.00    -0.124 A  
HETATM   12  C   UNL     1      -7.576   8.939  66.666  1.00  0.00    -0.089 A  
HETATM   13  C   UNL     1      -7.615   7.673  64.570  1.00  0.00    -0.112 A  
HETATM   14  C   UNL     1      -7.026   8.634  65.412  1.00  0.00    -0.075 A  
BRANCH  12  15
HETATM   15  C   UNL     1      -7.148  10.112  67.503  1.00  0.00    -0.087 A  
HETATM   16  C   UNL     1      -5.778  10.497  67.418  1.00  0.00    -0.044 A  
HETATM   17  C   UNL     1      -5.202  11.472  68.232  1.00  0.00    -0.042 A  
HETATM   18  C   UNL     1      -5.989  12.149  69.146  1.00  0.00    -0.075 A  
HETATM   19  C   UNL     1      -7.344  11.842  69.230  1.00  0.00     0.060 A  
HETATM   20  C   UNL     1      -7.948  10.832  68.433  1.00  0.00    -0.124 A  
BRANCH  20  21
HETATM   21  C   UNL     1      -9.371  10.631  68.697  1.00  0.00    -0.177 A  
HETATM   22  N   UNL     1      -9.850  10.129  69.855  1.00  0.00    -0.369 NA 
HETATM   23  N   UNL     1     -11.157  10.065  69.581  1.00  0.00    -0.252 NA 
HETATM   24  H   UNL     1      -9.351   9.870  70.706  1.00  0.00     0.000 HD 
HETATM   25  N   UNL     1     -11.522  10.507  68.371  1.00  0.00    -0.310 NA 
HETATM   26  N   UNL     1     -10.379  10.837  67.782  1.00  0.00    -0.184 NA 
ENDBRANCH  20  21
ENDBRANCH  12  15
ENDBRANCH   8   9
ENDBRANCH   6   8
BRANCH   6  27
HETATM   27  C   UNL     1      -7.926   4.150  64.385  1.00  0.00    -0.086 C  
HETATM   28  C   UNL     1      -7.303   2.976  63.566  1.00  0.00    -0.057 C  
HETATM   29  O   UNL     1      -6.108   2.951  63.277  1.00  0.00    -0.013 OA 
HETATM   30  C   UNL     1      -7.565   4.070  65.901  1.00  0.00    -0.089 C  
HETATM   31  O   UNL     1      -8.082   1.924  63.260  1.00  0.00    -0.063 OA 
HETATM   32  C   UNL     1      -8.522   3.251  66.759  1.00  0.00    -0.106 C  
HETATM   33  C   UNL     1      -6.111   3.685  66.184  1.00  0.00    -0.028 C  
ENDBRANCH   6  27
ENDBRANCH   4   5
ENDBRANCH   3   4
ENDBRANCH   2   3
TORSDOF 8
ENDMDL
MODEL      367
REMARK 921   NORMALIZED FREE ENERGY PREDICTED BY IDOCK:   30.99 KCAL/MOL
REMARK 922        TOTAL FREE ENERGY PREDICTED BY IDOCK:   44.96 KCAL/MOL
REMARK 923 INTER-LIGAND FREE ENERGY PREDICTED BY IDOCK:   42.17 KCAL/MOL
REMARK 924 INTRA-LIGAND FREE ENERGY PREDICTED BY IDOCK:    2.79 KCAL/MOL
REMARK 927      BINDING AFFINITY PREDICTED BY RF-SCORE:    0.00 PKD
ROOT
HETATM    1  C   UNL     1     -14.285   6.377  63.305  1.00  0.00    11.695 C  
HETATM    2  C   UNL     1     -12.804   6.555  63.568  1.00  0.00    13.687 C  
ENDROOT
BRANCH   2   3
HETATM    3  C   UNL     1     -11.958   5.444  62.941  1.00  0.00     4.624 C  
BRANCH   3   4
HETATM    4  C   UNL     1     -11.407   4.545  64.049  1.00  0.00     0.985 C  
BRANCH   4   5
HETATM    5  C   UNL     1      -9.896   4.495  64.116  1.00  0.00     0.110 C  
HETATM    6  N   UNL     1      -9.176   5.661  63.863  1.00  0.00     0.569 N  
HETATM    7  O   UNL     1      -9.320   3.434  64.376  1.00  0.00    -0.126 OA 
BRANCH   6   8
HETATM    8  C   UNL     1      -9.840   6.967  63.583  1.00  0.00     4.969 C  
BRANCH   8   9
HETATM    9  C   UNL     1      -9.331   8.131  64.418  1.00  0.00     1.454 A  
HETATM   10  C   UNL     1      -9.742   8.277  65.743  1.00  0.00     0.159 A  
HETATM   11  C   UNL     1      -9.547   9.492  66.418  1.00  0.00    -0.273 A  
HETATM   12  C   UNL     1      -8.863  10.580  65.846  1.00  0.00    -0.180 A  
HETATM   13  C   UNL     1      -8.503   9.132  63.903  1.00  0.00    -0.189 A  
HETATM   14  C   UNL     1      -8.247  10.320  64.612  1.00  0.00    -0.161 A  
BRANCH  12  15
HETATM   15  C   UNL     1      -8.826  11.916  66.532  1.00  0.00    -0.178 A  
HETATM   16  C   UNL     1      -7.650  12.702  66.348  1.00  0.00     0.915 A  
HETATM   17  C   UNL     1      -7.410  13.896  67.027  1.00  0.00     0.376 A  
HETATM   18  C   UNL     1      -8.365  14.391  67.895  1.00  0.00    -0.162 A  
HETATM   19  C   UNL     1      -9.552  13.683  68.070  1.00  0.00    -0.216 A  
HETATM   20  C   UNL     1      -9.807  12.450  67.413  1.00  0.00    -0.199 A  
BRANCH  20  21
HETATM   21  C   UNL     1     -11.091  11.841  67.757  1.00  0.00    -0.243 A  
HETATM   22  N   UNL     1     -11.627  11.885  68.995  1.00  0.00    -0.291 NA 
HETATM   23  N   UNL     1     -12.725  11.141  68.821  1.00  0.00     0.194 NA 
HETATM   24  H   UNL     1     -11.288  12.356  69.834  1.00  0.00     0.000 HD 
HETATM   25  N   UNL     1     -12.920  10.670  67.583  1.00  0.00     5.082 NA 
HETATM   26  N   UNL     1     -11.858  11.083  66.902  1.00  0.00    -0.033 NA 
ENDBRANCH  20  21
ENDBRANCH  12  15
ENDBRANCH   8   9
ENDBRANCH   6   8
BRANCH   6  27
HETATM   27  C   UNL     1      -7.685   5.692  64.106  1.00  0.00    -0.098 C  
HETATM   28  C   UNL     1      -6.732   4.676  63.402  1.00  0.00    -0.038 C  
HETATM   29  O   UNL     1      -5.591   4.988  63.063  1.00  0.00    -0.013 OA 
HETATM   30  C   UNL     1      -7.307   5.921  65.603  1.00  0.00    -0.076 C  
HETATM   31  O   UNL     1      -7.143   3.405  63.259  1.00  0.00    -0.046 OA 
HETATM   32  C   UNL     1      -7.952   4.960  66.595  1.00  0.00    -0.103 C  
HETATM   33  C   UNL     1      -5.804   6.045  65.861  1.00  0.00    -0.024 C  
ENDBRANCH   6  27
ENDBRANCH   4   5
ENDBRANCH   3   4
ENDBRANCH   2   3
TORSDOF 8
ENDMDL
MODEL      368
REMARK 921   NORMALIZED FREE ENERGY PREDICTED BY IDOCK:   34.21 KCAL/MOL
REMARK 922        TOTAL FREE ENERGY PREDICTED BY IDOCK:   49.68 KCAL/MOL
REMARK 923 INTER-LIGAND FREE ENERGY PREDICTED BY IDOCK:    7.61 KCAL/MOL
REMARK 924 INTRA-LIGAND FREE ENERGY PREDICTED BY IDOCK:   42.07 KCAL/MOL
REMARK 927      BINDING AFFINITY PREDICTED BY RF-SCORE:    0.00 PKD
ROOT
HETATM    1  C   UNL     1     -11.618  10.398  67.267  1.00  0.00     0.583 C  
HETATM    2  C   UNL     1     -10.167  10.186  67.649  1.00  0.00    -0.246 C  
ENDROOT
BRANCH   2   3
HETATM    3  C   UNL     1      -9.823   8.710  67.858  1.00  0.00    -0.211 C  
BRANCH   3   4
HETATM    4  C   UNL     1      -8.357   8.479  67.488  1.00  0.00    -0.128 C  
BRANCH   4   5
HETATM    5  C   UNL     1      -7.704   7.327  68.222  1.00  0.00    -0.120 C  
HETATM    6  N   UNL     1      -8.254   6.053  68.092  1.00  0.00    -0.113 N  
HETATM    7  O   UNL     1      -6.713   7.524  68.932  1.00  0.00    -0.047 OA 
BRANCH   6   8
HETATM    8  C   UNL     1      -9.427   5.773  67.213  1.00  0.00    -0.114 C  
BRANCH   8   9
HETATM    9  C   UNL     1      -9.886   6.952  66.371  1.00  0.00    -0.101 A  
HETATM   10  C   UNL     1      -8.994   7.589  65.509  1.00  0.00     0.056 A  
HETATM   11  C   UNL     1      -9.299   8.852  64.977  1.00  0.00     0.071 A  
HETATM   12  C   UNL     1     -10.528   9.496  65.202  1.00  0.00     1.127 A  
HETATM   13  C   UNL     1     -11.170   7.496  66.462  1.00  0.00     1.409 A  
HETATM   14  C   UNL     1     -11.497   8.728  65.864  1.00  0.00     4.986 A  
BRANCH  12  15
HETATM   15  C   UNL     1     -10.748  10.916  64.759  1.00  0.00    -0.248 A  
HETATM   16  C   UNL     1     -10.440  11.220  63.401  1.00  0.00    -0.424 A  
HETATM   17  C   UNL     1     -10.460  12.514  62.879  1.00  0.00     0.955 A  
HETATM   18  C   UNL     1     -10.840  13.569  63.689  1.00  0.00     0.460 A  
HETATM   19  C   UNL     1     -11.197  13.313  65.010  1.00  0.00    -0.325 A  
HETATM   20  C   UNL     1     -11.156  12.009  65.572  1.00  0.00    -0.361 A  
BRANCH  20  21
HETATM   21  C   UNL     1     -11.529  11.952  66.984  1.00  0.00    -0.316 A  
HETATM   22  N   UNL     1     -12.776  12.203  67.435  1.00  0.00     1.217 NA 
HETATM   23  N   UNL     1     -12.590  12.107  68.757  1.00  0.00     0.341 NA 
HETATM   24  H   UNL     1     -13.627  12.409  66.912  1.00  0.00     0.000 HD 
HETATM   25  N   UNL     1     -11.349  11.795  69.150  1.00  0.00    -0.258 NA 
HETATM   26  N   UNL     1     -10.652  11.729  68.023  1.00  0.00    -0.199 NA 
ENDBRANCH  20  21
ENDBRANCH  12  15
ENDBRANCH   8   9
ENDBRANCH   6   8
BRANCH   6  27
HETATM   27  C   UNL     1      -7.522   4.857  68.653  1.00  0.00    -0.069 C  
HETATM   28  C   UNL     1      -5.986   4.677  68.438  1.00  0.00    -0.026 C  
HETATM   29  O   UNL     1      -5.270   4.155  69.291  1.00  0.00    -0.007 OA 
HETATM   30  C   UNL     1      -8.304   3.517  68.484  1.00  0.00    -0.093 C  
HETATM   31  O   UNL     1      -5.462   5.014  67.248  1.00  0.00    -0.011 OA 
HETATM   32  C   UNL     1      -8.759   3.200  67.064  1.00  0.00    -0.136 C  
HETATM   33  C   UNL     1      -7.624   2.305  69.123  1.00  0.00    -0.043 C  
ENDBRANCH   6  27
ENDBRANCH   4   5
ENDBRANCH   3   4
ENDBRANCH   2   3
TORSDOF 8
ENDMDL
MODEL      369
REMARK 921   NORMALIZED FREE ENERGY PREDICTED BY IDOCK:   36.09 KCAL/MOL
REMARK 922        TOTAL FREE ENERGY PREDICTED BY IDOCK:   52.45 KCAL/MOL
REMARK 923 INTER-LIGAND FREE ENERGY PREDICTED BY IDOCK:   40.43 KCAL/MOL
REMARK 924 INTRA-LIGAND FREE ENERGY PREDICTED BY IDOCK:   12.02 KCAL/MOL
REMARK 927      BINDING AFFINITY PREDICTED BY RF-SCORE:    0.00 PKD
ROOT
HETATM    1  C   UNL     1      -7.296   8.693  70.176  1.00  0.00    -0.053 C  
HETATM    2  C   UNL     1      -6.328   7.749  69.492  1.00  0.00    -0.034 C  
ENDROOT
BRANCH   2   3
HETATM    3  C   UNL     1      -6.623   7.586  67.999  1.00  0.00    -0.054 C  
BRANCH   3   4
HETATM    4  C   UNL     1      -7.747   8.544  67.601  1.00  0.00    -0.102 C  
BRANCH   4   5
HETATM    5  C   UNL     1      -8.739   8.832  68.707  1.00  0.00    -0.137 C  
HETATM    6  N   UNL     1      -9.345  10.087  68.751  1.00  0.00    -0.155 N  
HETATM    7  O   UNL     1      -8.990   7.974  69.558  1.00  0.00    -0.146 OA 
BRANCH   6   8
HETATM    8  C   UNL     1      -9.094  11.135  67.719  1.00  0.00    -0.149 C  
BRANCH   8   9
HETATM    9  C   UNL     1      -9.603  12.520  68.082  1.00  0.00    -0.215 A  
HETATM   10  C   UNL     1      -9.416  13.021  69.370  1.00  0.00     1.099 A  
HETATM   11  C   UNL     1     -10.145  14.137  69.811  1.00  0.00     0.565 A  
HETATM   12  C   UNL     1     -11.019  14.855  68.975  1.00  0.00    -0.251 A  
HETATM   13  C   UNL     1     -10.328  13.320  67.195  1.00  0.00    -0.248 A  
HETATM   14  C   UNL     1     -10.998  14.481  67.622  1.00  0.00    -0.293 A  
BRANCH  12  15
HETATM   15  C   UNL     1     -11.907  15.933  69.530  1.00  0.00    -0.310 A  
HETATM   16  C   UNL     1     -11.927  17.174  68.828  1.00  0.00     1.709 A  
HETATM   17  C   UNL     1     -12.590  18.310  69.293  1.00  0.00    10.628 A  
HETATM   18  C   UNL     1     -13.312  18.242  70.470  1.00  0.00    21.998 A  
HETATM   19  C   UNL     1     -13.363  17.036  71.165  1.00  0.00     7.363 A  
HETATM   20  C   UNL     1     -12.671  15.875  70.728  1.00  0.00    -0.206 A  
BRANCH  20  21
HETATM   21  C   UNL     1     -12.816  14.722  71.613  1.00  0.00    -0.332 A  
HETATM   22  N   UNL     1     -11.781  13.943  71.996  1.00  0.00     0.369 NA 
HETATM   23  N   UNL     1     -12.419  13.008  72.709  1.00  0.00     0.617 NA 
HETATM   24  H   UNL     1     -10.786  14.041  71.795  1.00  0.00     0.000 HD 
HETATM   25  N   UNL     1     -13.745  13.162  72.818  1.00  0.00    -0.554 NA 
HETATM   26  N   UNL     1     -14.014  14.237  72.088  1.00  0.00    -0.482 NA 
ENDBRANCH  20  21
ENDBRANCH  12  15
ENDBRANCH   8   9
ENDBRANCH   6   8
BRANCH   6  27
HETATM   27  C   UNL     1     -10.474  10.344  69.721  1.00  0.00    -0.240 C  
HETATM   28  C   UNL     1     -11.027   9.204  70.635  1.00  0.00    -0.263 C  
HETATM   29  O   UNL     1     -11.441   9.430  71.771  1.00  0.00    -0.380 OA 
HETATM   30  C   UNL     1     -11.612  11.231  69.127  1.00  0.00    -0.387 C  
HETATM   31  O   UNL     1     -11.142   7.969  70.120  1.00  0.00    -0.251 OA 
HETATM   32  C   UNL     1     -12.194  10.748  67.803  1.00  0.00     1.357 C  
HETATM   33  C   UNL     1     -12.724  11.578  70.119  1.00  0.00    -0.031 C  
ENDBRANCH   6  27
ENDBRANCH   4   5
ENDBRANCH   3   4
ENDBRANCH   2   3
TORSDOF 8
ENDMDL
