MODEL        1
REMARK 921   NORMALIZED FREE ENERGY PREDICTED BY IDOCK:   -7.99 KCAL/MOL
REMARK 922        TOTAL FREE ENERGY PREDICTED BY IDOCK:  -11.85 KCAL/MOL
REMARK 923 INTER-LIGAND FREE ENERGY PREDICTED BY IDOCK:  -10.80 KCAL/MOL
REMARK 924 INTRA-LIGAND FREE ENERGY PREDICTED BY IDOCK:   -1.05 KCAL/MOL
REMARK 927      BINDING AFFINITY PREDICTED BY RF-SCORE:    0.00 PKD
ROOT
HETATM    1  C   UNL     1     -13.131  15.634  71.808  1.00  0.00    -0.466 C  
HETATM    2  O   UNL     1     -11.840  15.789  71.214  1.00  0.00    -0.360 OA 
ENDROOT
BRANCH   2   3
HETATM    3  C   UNL     1     -11.641  15.219  69.984  1.00  0.00    -0.305 A  
HETATM    4  C   UNL     1     -11.115  15.990  68.938  1.00  0.00    -0.331 A  
HETATM    5  C   UNL     1     -11.875  11.913  68.162  1.00  0.00    -0.270 A  
HETATM    6  C   UNL     1     -10.908  15.394  67.681  1.00  0.00    -0.304 A  
HETATM    7  N   UNL     1     -11.563  11.392  66.963  1.00  0.00    -0.514 NA 
HETATM    8  C   UNL     1     -11.153  14.051  67.432  1.00  0.00    -0.303 A  
HETATM    9  C   UNL     1     -11.914  13.866  69.729  1.00  0.00    -0.398 A  
HETATM   10  N   UNL     1     -10.865  13.548  66.226  1.00  0.00    -0.288 NA 
HETATM   11  C   UNL     1     -11.676  13.273  68.464  1.00  0.00    -0.388 A  
HETATM   12  C   UNL     1     -11.072  12.239  66.054  1.00  0.00    -0.309 A  
BRANCH   4  13
HETATM   13  O   UNL     1     -10.797  17.326  68.920  1.00  0.00    -0.261 OA 
BRANCH  13  14
HETATM   14  C   UNL     1     -10.771  18.002  67.666  1.00  0.00    -0.344 C  
BRANCH  14  15
HETATM   15  C   UNL     1     -10.116  19.398  67.839  1.00  0.00    -0.503 C  
HETATM   16  N   UNL     1      -7.239  19.635  67.024  1.00  0.00    -0.208 NA 
HETATM   17  C   UNL     1      -9.686  20.108  66.535  1.00  0.00    -0.553 C  
HETATM   18  C   UNL     1      -6.744  20.932  67.481  1.00  0.00    -0.365 C  
HETATM   19  C   UNL     1      -8.292  19.739  66.010  1.00  0.00    -0.295 C  
HETATM   20  C   UNL     1      -8.938  19.311  68.818  1.00  0.00    -0.399 C  
HETATM   21  C   UNL     1      -7.675  18.786  68.135  1.00  0.00    -0.285 C  
ENDBRANCH  14  15
ENDBRANCH  13  14
ENDBRANCH   4  13
BRANCH   5  22
HETATM   22  N   UNL     1     -12.453  11.065  69.140  1.00  0.00    -0.615 NA 
HETATM   23  H   UNL     1     -13.470  11.063  69.210  1.00  0.00     0.000 HD 
BRANCH  22  24
HETATM   24  C   UNL     1     -11.745  10.221  70.027  1.00  0.00    -0.254 A  
HETATM   25  C   UNL     1     -12.388   9.666  71.143  1.00  0.00    -0.339 A  
HETATM   26  F   UNL     1     -13.704   9.866  71.317  1.00  0.00    -0.393 F  
HETATM   27  C   UNL     1     -11.696   8.908  72.091  1.00  0.00    -0.411 A  
HETATM   28  C   UNL     1     -10.329   8.714  71.934  1.00  0.00    -0.335 A  
HETATM   29 BR   UNL     1      -9.357   7.719  73.214  1.00  0.00    -0.347 Br 
HETATM   30  C   UNL     1      -9.656   9.281  70.851  1.00  0.00    -0.339 A  
HETATM   31  C   UNL     1     -10.362  10.035  69.909  1.00  0.00    -0.315 A  
ENDBRANCH  22  24
ENDBRANCH   5  22
ENDBRANCH   2   3
TORSDOF 6
ENDMDL
MODEL        2
REMARK 921   NORMALIZED FREE ENERGY PREDICTED BY IDOCK:   -7.89 KCAL/MOL
REMARK 922        TOTAL FREE ENERGY PREDICTED BY IDOCK:  -11.71 KCAL/MOL
REMARK 923 INTER-LIGAND FREE ENERGY PREDICTED BY IDOCK:  -10.73 KCAL/MOL
REMARK 924 INTRA-LIGAND FREE ENERGY PREDICTED BY IDOCK:   -0.98 KCAL/MOL
REMARK 927      BINDING AFFINITY PREDICTED BY RF-SCORE:    0.00 PKD
ROOT
HETATM    1  C   UNL     1     -13.645  15.664  72.727  1.00  0.00    -0.593 C  
HETATM    2  O   UNL     1     -12.894  14.468  72.503  1.00  0.00    -0.355 OA 
ENDROOT
BRANCH   2   3
HETATM    3  C   UNL     1     -12.447  14.235  71.229  1.00  0.00    -0.365 A  
HETATM    4  C   UNL     1     -12.473  12.933  70.711  1.00  0.00    -0.286 A  
HETATM    5  C   UNL     1     -11.140  16.019  68.161  1.00  0.00    -0.344 A  
HETATM    6  C   UNL     1     -12.018  12.706  69.400  1.00  0.00    -0.318 A  
HETATM    7  N   UNL     1     -10.810  15.738  66.889  1.00  0.00    -0.301 NA 
HETATM    8  C   UNL     1     -11.587  13.724  68.562  1.00  0.00    -0.338 A  
HETATM    9  C   UNL     1     -11.988  15.265  70.393  1.00  0.00    -0.374 A  
HETATM   10  N   UNL     1     -11.233  13.430  67.305  1.00  0.00    -0.285 NA 
HETATM   11  C   UNL     1     -11.557  15.025  69.064  1.00  0.00    -0.342 A  
HETATM   12  C   UNL     1     -10.876  14.454  66.524  1.00  0.00    -0.310 A  
BRANCH   4  13
HETATM   13  O   UNL     1     -12.842  11.762  71.326  1.00  0.00    -0.386 OA 
BRANCH  13  14
HETATM   14  C   UNL     1     -12.588  10.531  70.654  1.00  0.00    -0.369 C  
BRANCH  14  15
HETATM   15  C   UNL     1     -11.733   9.607  71.562  1.00  0.00    -0.472 C  
HETATM   16  N   UNL     1     -11.951   6.659  71.048  1.00  0.00    -0.373 NA 
HETATM   17  C   UNL     1     -10.615   8.811  70.852  1.00  0.00    -0.276 C  
HETATM   18  C   UNL     1     -11.277   5.958  72.139  1.00  0.00    -0.287 C  
HETATM   19  C   UNL     1     -11.045   7.474  70.233  1.00  0.00    -0.248 C  
HETATM   20  C   UNL     1     -12.643   8.662  72.358  1.00  0.00    -0.426 C  
HETATM   21  C   UNL     1     -13.081   7.461  71.520  1.00  0.00    -0.374 C  
ENDBRANCH  14  15
ENDBRANCH  13  14
ENDBRANCH   4  13
BRANCH   5  22
HETATM   22  N   UNL     1     -11.031  17.359  68.609  1.00  0.00    -0.248 NA 
HETATM   23  H   UNL     1     -11.794  17.720  69.182  1.00  0.00     0.000 HD 
BRANCH  22  24
HETATM   24  C   UNL     1      -9.961  18.241  68.333  1.00  0.00    -0.382 A  
HETATM   25  C   UNL     1     -10.162  19.371  67.528  1.00  0.00    -0.425 A  
HETATM   26  F   UNL     1     -11.397  19.663  67.092  1.00  0.00    -0.523 F  
HETATM   27  C   UNL     1      -9.107  20.209  67.156  1.00  0.00    -0.489 A  
HETATM   28  C   UNL     1      -7.820  19.904  67.582  1.00  0.00    -0.290 A  
HETATM   29 BR   UNL     1      -6.365  21.000  67.074  1.00  0.00    -0.411 Br 
HETATM   30  C   UNL     1      -7.583  18.768  68.358  1.00  0.00    -0.329 A  
HETATM   31  C   UNL     1      -8.649  17.941  68.724  1.00  0.00    -0.208 A  
ENDBRANCH  22  24
ENDBRANCH   5  22
ENDBRANCH   2   3
TORSDOF 6
ENDMDL
MODEL        3
REMARK 921   NORMALIZED FREE ENERGY PREDICTED BY IDOCK:   -7.85 KCAL/MOL
REMARK 922        TOTAL FREE ENERGY PREDICTED BY IDOCK:  -11.65 KCAL/MOL
REMARK 923 INTER-LIGAND FREE ENERGY PREDICTED BY IDOCK:  -10.45 KCAL/MOL
REMARK 924 INTRA-LIGAND FREE ENERGY PREDICTED BY IDOCK:   -1.20 KCAL/MOL
REMARK 927      BINDING AFFINITY PREDICTED BY RF-SCORE:    0.00 PKD
ROOT
HETATM    1  C   UNL     1     -10.861  12.979  64.427  1.00  0.00    -0.388 C  
HETATM    2  O   UNL     1     -10.371  14.256  64.842  1.00  0.00    -0.418 OA 
ENDROOT
BRANCH   2   3
HETATM    3  C   UNL     1     -10.681  14.666  66.113  1.00  0.00    -0.314 A  
HETATM    4  C   UNL     1     -10.571  16.022  66.452  1.00  0.00    -0.284 A  
HETATM    5  C   UNL     1     -12.014  13.384  69.412  1.00  0.00    -0.315 A  
HETATM    6  C   UNL     1     -10.897  16.433  67.756  1.00  0.00    -0.306 A  
HETATM    7  N   UNL     1     -12.395  13.866  70.606  1.00  0.00    -0.360 NA 
HETATM    8  C   UNL     1     -11.378  15.564  68.725  1.00  0.00    -0.334 A  
HETATM    9  C   UNL     1     -11.143  13.779  67.097  1.00  0.00    -0.315 A  
HETATM   10  N   UNL     1     -11.729  16.049  69.922  1.00  0.00    -0.309 NA 
HETATM   11  C   UNL     1     -11.493  14.212  68.400  1.00  0.00    -0.334 A  
HETATM   12  C   UNL     1     -12.234  15.178  70.800  1.00  0.00    -0.340 A  
BRANCH   4  13
HETATM   13  O   UNL     1     -10.120  17.072  65.691  1.00  0.00    -0.554 OA 
BRANCH  13  14
HETATM   14  C   UNL     1     -10.518  18.392  66.049  1.00  0.00    -0.374 C  
BRANCH  14  15
HETATM   15  C   UNL     1      -9.264  19.293  66.207  1.00  0.00    -0.362 C  
HETATM   16  N   UNL     1      -7.669  18.931  68.721  1.00  0.00    -0.338 NA 
HETATM   17  C   UNL     1      -7.904  18.559  66.219  1.00  0.00    -0.282 C  
HETATM   18  C   UNL     1      -6.690  20.015  68.796  1.00  0.00    -0.309 C  
HETATM   19  C   UNL     1      -7.452  18.029  67.587  1.00  0.00    -0.213 C  
HETATM   20  C   UNL     1      -9.407  20.183  67.448  1.00  0.00    -0.513 C  
HETATM   21  C   UNL     1      -9.046  19.429  68.728  1.00  0.00    -0.361 C  
ENDBRANCH  14  15
ENDBRANCH  13  14
ENDBRANCH   4  13
BRANCH   5  22
HETATM   22  N   UNL     1     -12.113  11.989  69.180  1.00  0.00    -0.239 NA 
HETATM   23  H   UNL     1     -12.427  11.693  68.256  1.00  0.00     0.000 HD 
BRANCH  22  24
HETATM   24  C   UNL     1     -11.817  10.970  70.115  1.00  0.00    -0.357 A  
HETATM   25  C   UNL     1     -10.579  10.312  70.079  1.00  0.00    -0.269 A  
HETATM   26  F   UNL     1      -9.640  10.715  69.208  1.00  0.00    -0.198 F  
HETATM   27  C   UNL     1     -10.290   9.237  70.924  1.00  0.00    -0.367 A  
HETATM   28  C   UNL     1     -11.263   8.797  71.813  1.00  0.00    -0.340 A  
HETATM   29 BR   UNL     1     -10.917   7.327  72.950  1.00  0.00    -0.391 Br 
HETATM   30  C   UNL     1     -12.516   9.411  71.850  1.00  0.00    -0.468 A  
HETATM   31  C   UNL     1     -12.789  10.487  71.000  1.00  0.00    -0.502 A  
ENDBRANCH  22  24
ENDBRANCH   5  22
ENDBRANCH   2   3
TORSDOF 6
ENDMDL
MODEL        4
REMARK 921   NORMALIZED FREE ENERGY PREDICTED BY IDOCK:   -7.76 KCAL/MOL
REMARK 922        TOTAL FREE ENERGY PREDICTED BY IDOCK:  -11.53 KCAL/MOL
REMARK 923 INTER-LIGAND FREE ENERGY PREDICTED BY IDOCK:  -10.59 KCAL/MOL
REMARK 924 INTRA-LIGAND FREE ENERGY PREDICTED BY IDOCK:   -0.94 KCAL/MOL
REMARK 927      BINDING AFFINITY PREDICTED BY RF-SCORE:    0.00 PKD
ROOT
HETATM    1  C   UNL     1     -13.665  15.703  72.642  1.00  0.00    -0.579 C  
HETATM    2  O   UNL     1     -12.923  14.491  72.492  1.00  0.00    -0.361 OA 
ENDROOT
BRANCH   2   3
HETATM    3  C   UNL     1     -12.466  14.183  71.237  1.00  0.00    -0.370 A  
HETATM    4  C   UNL     1     -12.489  12.853  70.797  1.00  0.00    -0.286 A  
HETATM    5  C   UNL     1     -11.136  15.783  68.079  1.00  0.00    -0.337 A  
HETATM    6  C   UNL     1     -12.024  12.549  69.505  1.00  0.00    -0.329 A  
HETATM    7  N   UNL     1     -10.797  15.427  66.829  1.00  0.00    -0.312 NA 
HETATM    8  C   UNL     1     -11.587  13.516  68.611  1.00  0.00    -0.330 A  
HETATM    9  C   UNL     1     -12.001  15.162  70.345  1.00  0.00    -0.364 A  
HETATM   10  N   UNL     1     -11.224  13.148  67.377  1.00  0.00    -0.275 NA 
HETATM   11  C   UNL     1     -11.560  14.843  69.037  1.00  0.00    -0.330 A  
HETATM   12  C   UNL     1     -10.860  14.124  66.540  1.00  0.00    -0.298 A  
BRANCH   4  13
HETATM   13  O   UNL     1     -12.862  11.720  71.478  1.00  0.00    -0.401 OA 
BRANCH  13  14
HETATM   14  C   UNL     1     -12.754  10.462  70.816  1.00  0.00    -0.371 C  
BRANCH  14  15
HETATM   15  C   UNL     1     -11.774   9.545  71.594  1.00  0.00    -0.460 C  
HETATM   16  N   UNL     1     -11.802   6.636  70.863  1.00  0.00    -0.377 NA 
HETATM   17  C   UNL     1     -10.648   8.897  70.758  1.00  0.00    -0.281 C  
HETATM   18  C   UNL     1     -11.005   5.912  71.853  1.00  0.00    -0.266 C  
HETATM   19  C   UNL     1     -11.016   7.579  70.062  1.00  0.00    -0.240 C  
HETATM   20  C   UNL     1     -12.555   8.474  72.367  1.00  0.00    -0.409 C  
HETATM   21  C   UNL     1     -12.956   7.307  71.465  1.00  0.00    -0.389 C  
ENDBRANCH  14  15
ENDBRANCH  13  14
ENDBRANCH   4  13
BRANCH   5  22
HETATM   22  N   UNL     1     -11.030  17.148  68.448  1.00  0.00    -0.296 NA 
HETATM   23  H   UNL     1     -11.785  17.535  69.014  1.00  0.00     0.000 HD 
BRANCH  22  24
HETATM   24  C   UNL     1      -9.972  18.020  68.103  1.00  0.00    -0.353 A  
HETATM   25  C   UNL     1      -8.659  17.735  68.505  1.00  0.00    -0.291 A  
HETATM   26  F   UNL     1      -8.396  16.583  69.142  1.00  0.00    -0.233 F  
HETATM   27  C   UNL     1      -7.605  18.622  68.266  1.00  0.00    -0.307 A  
HETATM   28  C   UNL     1      -7.870  19.827  67.627  1.00  0.00    -0.291 A  
HETATM   29 BR   UNL     1      -6.474  21.063  67.314  1.00  0.00    -0.437 Br 
HETATM   30  C   UNL     1      -9.172  20.153  67.245  1.00  0.00    -0.504 A  
HETATM   31  C   UNL     1     -10.215  19.254  67.489  1.00  0.00    -0.514 A  
ENDBRANCH  22  24
ENDBRANCH   5  22
ENDBRANCH   2   3
TORSDOF 6
ENDMDL
MODEL        5
REMARK 921   NORMALIZED FREE ENERGY PREDICTED BY IDOCK:   -7.73 KCAL/MOL
REMARK 922        TOTAL FREE ENERGY PREDICTED BY IDOCK:  -11.49 KCAL/MOL
REMARK 923 INTER-LIGAND FREE ENERGY PREDICTED BY IDOCK:  -10.49 KCAL/MOL
REMARK 924 INTRA-LIGAND FREE ENERGY PREDICTED BY IDOCK:   -1.00 KCAL/MOL
REMARK 927      BINDING AFFINITY PREDICTED BY RF-SCORE:    0.00 PKD
ROOT
HETATM    1  C   UNL     1     -13.410  15.648  72.929  1.00  0.00    -0.555 C  
HETATM    2  O   UNL     1     -13.000  14.298  72.702  1.00  0.00    -0.420 OA 
ENDROOT
BRANCH   2   3
HETATM    3  C   UNL     1     -12.563  13.975  71.444  1.00  0.00    -0.372 A  
HETATM    4  C   UNL     1     -12.569  12.637  71.028  1.00  0.00    -0.262 A  
HETATM    5  C   UNL     1     -11.325  15.540  68.231  1.00  0.00    -0.357 A  
HETATM    6  C   UNL     1     -12.125  12.317  69.733  1.00  0.00    -0.298 A  
HETATM    7  N   UNL     1     -11.005  15.168  66.981  1.00  0.00    -0.319 NA 
HETATM    8  C   UNL     1     -11.723  13.275  68.814  1.00  0.00    -0.329 A  
HETATM    9  C   UNL     1     -12.134  14.946  70.526  1.00  0.00    -0.378 A  
HETATM   10  N   UNL     1     -11.378  12.892  67.579  1.00  0.00    -0.290 NA 
HETATM   11  C   UNL     1     -11.713  14.611  69.214  1.00  0.00    -0.348 A  
HETATM   12  C   UNL     1     -11.049  13.859  66.717  1.00  0.00    -0.303 A  
BRANCH   4  13
HETATM   13  O   UNL     1     -12.908  11.510  71.737  1.00  0.00    -0.399 OA 
BRANCH  13  14
HETATM   14  C   UNL     1     -12.848  10.248  71.078  1.00  0.00    -0.397 C  
BRANCH  14  15
HETATM   15  C   UNL     1     -11.708   9.392  71.690  1.00  0.00    -0.468 C  
HETATM   16  N   UNL     1     -11.259   6.691  70.464  1.00  0.00    -0.309 NA 
HETATM   17  C   UNL     1     -10.509   9.100  70.760  1.00  0.00    -0.322 C  
HETATM   18  C   UNL     1     -10.327   5.955  71.318  1.00  0.00    -0.221 C  
HETATM   19  C   UNL     1     -10.664   7.879  69.843  1.00  0.00    -0.244 C  
HETATM   20  C   UNL     1     -12.276   8.086  72.260  1.00  0.00    -0.366 C  
HETATM   21  C   UNL     1     -12.495   7.041  71.167  1.00  0.00    -0.362 C  
ENDBRANCH  14  15
ENDBRANCH  13  14
ENDBRANCH   4  13
BRANCH   5  22
HETATM   22  N   UNL     1     -11.238  16.913  68.574  1.00  0.00    -0.218 NA 
HETATM   23  H   UNL     1     -11.986  17.296  69.151  1.00  0.00     0.000 HD 
BRANCH  22  24
HETATM   24  C   UNL     1     -10.206  17.800  68.186  1.00  0.00    -0.382 A  
HETATM   25  C   UNL     1      -8.903  17.627  68.673  1.00  0.00    -0.259 A  
HETATM   26  F   UNL     1      -8.617  16.562  69.438  1.00  0.00    -0.226 F  
HETATM   27  C   UNL     1      -7.882  18.539  68.388  1.00  0.00    -0.332 A  
HETATM   28  C   UNL     1      -8.172  19.657  67.616  1.00  0.00    -0.300 A  
HETATM   29 BR   UNL     1      -6.823  20.926  67.237  1.00  0.00    -0.437 Br 
HETATM   30  C   UNL     1      -9.468  19.873  67.145  1.00  0.00    -0.497 A  
HETATM   31  C   UNL     1     -10.478  18.951  67.436  1.00  0.00    -0.520 A  
ENDBRANCH  22  24
ENDBRANCH   5  22
ENDBRANCH   2   3
TORSDOF 6
ENDMDL
MODEL        6
REMARK 921   NORMALIZED FREE ENERGY PREDICTED BY IDOCK:   -7.60 KCAL/MOL
REMARK 922        TOTAL FREE ENERGY PREDICTED BY IDOCK:  -11.32 KCAL/MOL
REMARK 923 INTER-LIGAND FREE ENERGY PREDICTED BY IDOCK:  -10.24 KCAL/MOL
REMARK 924 INTRA-LIGAND FREE ENERGY PREDICTED BY IDOCK:   -1.08 KCAL/MOL
REMARK 927      BINDING AFFINITY PREDICTED BY RF-SCORE:    0.00 PKD
ROOT
HETATM    1  C   UNL     1     -11.412  12.331  65.647  1.00  0.00    -0.368 C  
HETATM    2  O   UNL     1     -10.600  13.062  66.569  1.00  0.00    -0.277 OA 
ENDROOT
BRANCH   2   3
HETATM    3  C   UNL     1     -11.139  13.341  67.798  1.00  0.00    -0.265 A  
HETATM    4  C   UNL     1     -11.313  14.674  68.194  1.00  0.00    -0.302 A  
HETATM    5  C   UNL     1     -12.645  11.667  70.836  1.00  0.00    -0.313 A  
HETATM    6  C   UNL     1     -11.872  14.949  69.454  1.00  0.00    -0.356 A  
HETATM    7  N   UNL     1     -13.257  12.008  71.982  1.00  0.00    -0.465 NA 
HETATM    8  C   UNL     1     -12.316  13.958  70.317  1.00  0.00    -0.345 A  
HETATM    9  C   UNL     1     -11.563  12.334  68.678  1.00  0.00    -0.372 A  
HETATM   10  N   UNL     1     -12.898  14.308  71.470  1.00  0.00    -0.327 NA 
HETATM   11  C   UNL     1     -12.150  12.627  69.935  1.00  0.00    -0.322 A  
HETATM   12  C   UNL     1     -13.354  13.315  72.241  1.00  0.00    -0.533 A  
BRANCH   4  13
HETATM   13  O   UNL     1     -10.957  15.827  67.538  1.00  0.00    -0.318 OA 
BRANCH  13  14
HETATM   14  C   UNL     1     -10.887  17.040  68.283  1.00  0.00    -0.341 C  
BRANCH  14  15
HETATM   15  C   UNL     1     -10.489  18.209  67.344  1.00  0.00    -0.414 C  
HETATM   16  N   UNL     1      -7.666  19.198  67.563  1.00  0.00    -0.236 NA 
HETATM   17  C   UNL     1      -9.419  17.884  66.278  1.00  0.00    -0.234 C  
HETATM   18  C   UNL     1      -7.558  20.434  66.790  1.00  0.00    -0.272 C  
HETATM   19  C   UNL     1      -7.962  18.022  66.740  1.00  0.00    -0.237 C  
HETATM   20  C   UNL     1     -10.071  19.431  68.171  1.00  0.00    -0.526 C  
HETATM   21  C   UNL     1      -8.628  19.314  68.661  1.00  0.00    -0.366 C  
ENDBRANCH  14  15
ENDBRANCH  13  14
ENDBRANCH   4  13
BRANCH   5  22
HETATM   22  N   UNL     1     -12.468  10.290  70.546  1.00  0.00    -0.424 NA 
HETATM   23  H   UNL     1     -13.065   9.888  69.824  1.00  0.00     0.000 HD 
BRANCH  22  24
HETATM   24  C   UNL     1     -11.538   9.425  71.168  1.00  0.00    -0.345 A  
HETATM   25  C   UNL     1     -11.930   8.619  72.246  1.00  0.00    -0.368 A  
HETATM   26  F   UNL     1     -13.216   8.605  72.629  1.00  0.00    -0.393 F  
HETATM   27  C   UNL     1     -11.015   7.826  72.945  1.00  0.00    -0.467 A  
HETATM   28  C   UNL     1      -9.677   7.851  72.572  1.00  0.00    -0.227 A  
HETATM   29 BR   UNL     1      -8.408   6.814  73.515  1.00  0.00    -0.135 Br 
HETATM   30  C   UNL     1      -9.251   8.668  71.524  1.00  0.00    -0.316 A  
HETATM   31  C   UNL     1     -10.178   9.454  70.833  1.00  0.00    -0.373 A  
ENDBRANCH  22  24
ENDBRANCH   5  22
ENDBRANCH   2   3
TORSDOF 6
ENDMDL
MODEL        7
REMARK 921   NORMALIZED FREE ENERGY PREDICTED BY IDOCK:   -7.56 KCAL/MOL
REMARK 922        TOTAL FREE ENERGY PREDICTED BY IDOCK:  -11.26 KCAL/MOL
REMARK 923 INTER-LIGAND FREE ENERGY PREDICTED BY IDOCK:   -9.96 KCAL/MOL
REMARK 924 INTRA-LIGAND FREE ENERGY PREDICTED BY IDOCK:   -1.29 KCAL/MOL
REMARK 927      BINDING AFFINITY PREDICTED BY RF-SCORE:    0.00 PKD
ROOT
HETATM    1  C   UNL     1     -13.926  14.492  72.361  1.00  0.00    -0.480 C  
HETATM    2  O   UNL     1     -13.258  13.229  72.389  1.00  0.00    -0.474 OA 
ENDROOT
BRANCH   2   3
HETATM    3  C   UNL     1     -12.752  12.757  71.205  1.00  0.00    -0.269 A  
HETATM    4  C   UNL     1     -12.480  11.390  71.063  1.00  0.00    -0.383 A  
HETATM    5  C   UNL     1     -11.835  13.867  67.709  1.00  0.00    -0.380 A  
HETATM    6  C   UNL     1     -11.968  10.915  69.842  1.00  0.00    -0.430 A  
HETATM    7  N   UNL     1     -11.434  13.325  66.546  1.00  0.00    -0.323 NA 
HETATM    8  C   UNL     1     -11.764  11.731  68.739  1.00  0.00    -0.329 A  
HETATM    9  C   UNL     1     -12.524  13.591  70.100  1.00  0.00    -0.276 A  
HETATM   10  N   UNL     1     -11.337  11.187  67.594  1.00  0.00    -0.410 NA 
HETATM   11  C   UNL     1     -12.032  13.094  68.868  1.00  0.00    -0.317 A  
HETATM   12  C   UNL     1     -11.206  12.009  66.548  1.00  0.00    -0.334 A  
BRANCH   4  13
HETATM   13  O   UNL     1     -12.586  10.383  71.990  1.00  0.00    -0.351 OA 
BRANCH  13  14
HETATM   14  C   UNL     1     -13.012   9.096  71.551  1.00  0.00    -0.346 C  
BRANCH  14  15
HETATM   15  C   UNL     1     -12.055   8.009  72.109  1.00  0.00    -0.391 C  
HETATM   16  N   UNL     1      -9.777   7.197  70.334  1.00  0.00    -0.176 NA 
HETATM   17  C   UNL     1     -10.602   8.463  72.377  1.00  0.00    -0.405 C  
HETATM   18  C   UNL     1      -9.145   6.015  70.920  1.00  0.00    -0.153 C  
HETATM   19  C   UNL     1      -9.656   8.396  71.170  1.00  0.00    -0.177 C  
HETATM   20  C   UNL     1     -12.074   6.773  71.201  1.00  0.00    -0.422 C  
HETATM   21  C   UNL     1     -11.177   6.957  69.978  1.00  0.00    -0.299 C  
ENDBRANCH  14  15
ENDBRANCH  13  14
ENDBRANCH   4  13
BRANCH   5  22
HETATM   22  N   UNL     1     -12.034  15.269  67.770  1.00  0.00    -0.383 NA 
HETATM   23  H   UNL     1     -12.995  15.597  67.866  1.00  0.00     0.000 HD 
BRANCH  22  24
HETATM   24  C   UNL     1     -11.021  16.254  67.711  1.00  0.00    -0.281 A  
HETATM   25  C   UNL     1     -10.632  16.941  68.869  1.00  0.00    -0.353 A  
HETATM   26  F   UNL     1     -11.162  16.599  70.053  1.00  0.00    -0.332 F  
HETATM   27  C   UNL     1      -9.704  17.986  68.829  1.00  0.00    -0.336 A  
HETATM   28  C   UNL     1      -9.166  18.365  67.606  1.00  0.00    -0.266 A  
HETATM   29 BR   UNL     1      -7.931  19.794  67.512  1.00  0.00    -0.332 Br 
HETATM   30  C   UNL     1      -9.558  17.721  66.432  1.00  0.00    -0.293 A  
HETATM   31  C   UNL     1     -10.485  16.676  66.488  1.00  0.00    -0.262 A  
ENDBRANCH  22  24
ENDBRANCH   5  22
ENDBRANCH   2   3
TORSDOF 6
ENDMDL
MODEL        8
REMARK 921   NORMALIZED FREE ENERGY PREDICTED BY IDOCK:   -7.40 KCAL/MOL
REMARK 922        TOTAL FREE ENERGY PREDICTED BY IDOCK:  -11.04 KCAL/MOL
REMARK 923 INTER-LIGAND FREE ENERGY PREDICTED BY IDOCK:  -10.01 KCAL/MOL
REMARK 924 INTRA-LIGAND FREE ENERGY PREDICTED BY IDOCK:   -1.03 KCAL/MOL
REMARK 927      BINDING AFFINITY PREDICTED BY RF-SCORE:    0.00 PKD
ROOT
HETATM    1  C   UNL     1     -11.203  12.188  66.201  1.00  0.00    -0.338 C  
HETATM    2  O   UNL     1     -11.580  11.564  67.430  1.00  0.00    -0.495 OA 
ENDROOT
BRANCH   2   3
HETATM    3  C   UNL     1     -11.746  12.374  68.523  1.00  0.00    -0.326 A  
HETATM    4  C   UNL     1     -12.132  11.816  69.749  1.00  0.00    -0.269 A  
HETATM    5  C   UNL     1     -11.378  15.966  69.648  1.00  0.00    -0.342 A  
HETATM    6  C   UNL     1     -12.293  12.655  70.866  1.00  0.00    -0.352 A  
HETATM    7  N   UNL     1     -11.462  16.687  70.778  1.00  0.00    -0.030 NA 
HETATM    8  C   UNL     1     -12.037  14.018  70.831  1.00  0.00    -0.329 A  
HETATM    9  C   UNL     1     -11.511  13.757  68.476  1.00  0.00    -0.342 A  
HETATM   10  N   UNL     1     -12.151  14.734  71.956  1.00  0.00    -0.348 NA 
HETATM   11  C   UNL     1     -11.652  14.586  69.617  1.00  0.00    -0.346 A  
HETATM   12  C   UNL     1     -11.844  16.032  71.878  1.00  0.00    -0.534 A  
BRANCH   4  13
HETATM   13  O   UNL     1     -12.449  10.513  70.048  1.00  0.00    -0.278 OA 
BRANCH  13  14
HETATM   14  C   UNL     1     -12.452  10.110  71.415  1.00  0.00    -0.423 C  
BRANCH  14  15
HETATM   15  C   UNL     1     -11.257   9.157  71.682  1.00  0.00    -0.447 C  
HETATM   16  N   UNL     1     -11.544   6.344  70.680  1.00  0.00    -0.369 NA 
HETATM   17  C   UNL     1     -10.507   8.649  70.430  1.00  0.00    -0.233 C  
HETATM   18  C   UNL     1     -10.444   5.553  71.231  1.00  0.00    -0.239 C  
HETATM   19  C   UNL     1     -11.099   7.399  69.765  1.00  0.00    -0.152 C  
HETATM   20  C   UNL     1     -11.707   7.978  72.554  1.00  0.00    -0.446 C  
HETATM   21  C   UNL     1     -12.405   6.898  71.727  1.00  0.00    -0.361 C  
ENDBRANCH  14  15
ENDBRANCH  13  14
ENDBRANCH   4  13
BRANCH   5  22
HETATM   22  N   UNL     1     -11.031  16.629  68.444  1.00  0.00    -0.357 NA 
HETATM   23  H   UNL     1     -11.616  16.448  67.629  1.00  0.00     0.000 HD 
BRANCH  22  24
HETATM   24  C   UNL     1      -9.947  17.521  68.273  1.00  0.00    -0.330 A  
HETATM   25  C   UNL     1     -10.156  18.796  67.727  1.00  0.00    -0.368 A  
HETATM   26  F   UNL     1     -11.405  19.201  67.451  1.00  0.00    -0.473 F  
HETATM   27  C   UNL     1      -9.096  19.664  67.454  1.00  0.00    -0.392 A  
HETATM   28  C   UNL     1      -7.797  19.246  67.714  1.00  0.00    -0.275 A  
HETATM   29 BR   UNL     1      -6.337  20.384  67.329  1.00  0.00    -0.283 Br 
HETATM   30  C   UNL     1      -7.554  17.971  68.226  1.00  0.00    -0.278 A  
HETATM   31  C   UNL     1      -8.625  17.114  68.497  1.00  0.00    -0.258 A  
ENDBRANCH  22  24
ENDBRANCH   5  22
ENDBRANCH   2   3
TORSDOF 6
ENDMDL
MODEL        9
REMARK 921   NORMALIZED FREE ENERGY PREDICTED BY IDOCK:   -7.36 KCAL/MOL
REMARK 922        TOTAL FREE ENERGY PREDICTED BY IDOCK:  -11.00 KCAL/MOL
REMARK 923 INTER-LIGAND FREE ENERGY PREDICTED BY IDOCK:  -10.16 KCAL/MOL
REMARK 924 INTRA-LIGAND FREE ENERGY PREDICTED BY IDOCK:   -0.84 KCAL/MOL
REMARK 927      BINDING AFFINITY PREDICTED BY RF-SCORE:    0.00 PKD
ROOT
HETATM    1  C   UNL     1     -11.764  12.561  65.289  1.00  0.00    -0.386 C  
HETATM    2  O   UNL     1     -10.833  12.598  66.373  1.00  0.00    -0.261 OA 
ENDROOT
BRANCH   2   3
HETATM    3  C   UNL     1     -11.342  12.747  67.636  1.00  0.00    -0.310 A  
HETATM    4  C   UNL     1     -11.670  14.026  68.107  1.00  0.00    -0.352 A  
HETATM    5  C   UNL     1     -12.465  10.753  70.647  1.00  0.00    -0.370 A  
HETATM    6  C   UNL     1     -12.198  14.168  69.402  1.00  0.00    -0.329 A  
HETATM    7  N   UNL     1     -13.060  10.959  71.834  1.00  0.00    -0.487 NA 
HETATM    8  C   UNL     1     -12.465  13.089  70.232  1.00  0.00    -0.147 A  
HETATM    9  C   UNL     1     -11.587  11.654  68.482  1.00  0.00    -0.379 A  
HETATM   10  N   UNL     1     -13.032  13.306  71.425  1.00  0.00    -0.343 NA 
HETATM   11  C   UNL     1     -12.145  11.810  69.776  1.00  0.00    -0.338 A  
HETATM   12  C   UNL     1     -13.315  12.229  72.163  1.00  0.00    -0.368 A  
BRANCH   4  13
HETATM   13  O   UNL     1     -11.500  15.245  67.496  1.00  0.00    -0.333 OA 
BRANCH  13  14
HETATM   14  C   UNL     1     -10.885  16.297  68.235  1.00  0.00    -0.340 C  
BRANCH  14  15
HETATM   15  C   UNL     1     -10.100  17.223  67.269  1.00  0.00    -0.300 C  
HETATM   16  N   UNL     1      -8.452  19.385  68.539  1.00  0.00    -0.358 NA 
HETATM   17  C   UNL     1      -8.559  17.139  67.357  1.00  0.00    -0.212 C  
HETATM   18  C   UNL     1      -7.993  20.285  67.482  1.00  0.00    -0.311 C  
HETATM   19  C   UNL     1      -7.908  18.028  68.425  1.00  0.00    -0.295 C  
HETATM   20  C   UNL     1     -10.569  18.675  67.433  1.00  0.00    -0.490 C  
HETATM   21  C   UNL     1      -9.912  19.348  68.638  1.00  0.00    -0.444 C  
ENDBRANCH  14  15
ENDBRANCH  13  14
ENDBRANCH   4  13
BRANCH   5  22
HETATM   22  N   UNL     1     -12.124   9.427  70.280  1.00  0.00    -0.465 NA 
HETATM   23  H   UNL     1     -12.296   9.155  69.313  1.00  0.00     0.000 HD 
BRANCH  22  24
HETATM   24  C   UNL     1     -11.567   8.448  71.136  1.00  0.00    -0.279 A  
HETATM   25  C   UNL     1     -12.217   7.220  71.326  1.00  0.00    -0.354 A  
HETATM   26  F   UNL     1     -13.325   6.941  70.622  1.00  0.00    -0.286 F  
HETATM   27  C   UNL     1     -11.746   6.270  72.237  1.00  0.00    -0.344 A  
HETATM   28  C   UNL     1     -10.613   6.558  72.988  1.00  0.00    -0.250 A  
HETATM   29 BR   UNL     1      -9.966   5.308  74.250  1.00  0.00    -0.263 Br 
HETATM   30  C   UNL     1      -9.964   7.785  72.844  1.00  0.00    -0.341 A  
HETATM   31  C   UNL     1     -10.445   8.724  71.927  1.00  0.00    -0.423 A  
ENDBRANCH  22  24
ENDBRANCH   5  22
ENDBRANCH   2   3
TORSDOF 6
ENDMDL
MODEL       10
REMARK 921   NORMALIZED FREE ENERGY PREDICTED BY IDOCK:   -7.33 KCAL/MOL
REMARK 922        TOTAL FREE ENERGY PREDICTED BY IDOCK:  -10.96 KCAL/MOL
REMARK 923 INTER-LIGAND FREE ENERGY PREDICTED BY IDOCK:   -9.75 KCAL/MOL
REMARK 924 INTRA-LIGAND FREE ENERGY PREDICTED BY IDOCK:   -1.20 KCAL/MOL
REMARK 927      BINDING AFFINITY PREDICTED BY RF-SCORE:    0.00 PKD
ROOT
HETATM    1  C   UNL     1     -10.500  10.893  67.378  1.00  0.00    -0.224 C  
HETATM    2  O   UNL     1     -11.814  11.013  67.927  1.00  0.00    -0.600 OA 
ENDROOT
BRANCH   2   3
HETATM    3  C   UNL     1     -11.985  11.890  68.966  1.00  0.00    -0.262 A  
HETATM    4  C   UNL     1     -12.407  11.414  70.215  1.00  0.00    -0.297 A  
HETATM    5  C   UNL     1     -11.562  15.534  69.886  1.00  0.00    -0.335 A  
HETATM    6  C   UNL     1     -12.572  12.320  71.277  1.00  0.00    -0.336 A  
HETATM    7  N   UNL     1     -11.652  16.322  70.970  1.00  0.00    -0.384 NA 
HETATM    8  C   UNL     1     -12.286  13.674  71.167  1.00  0.00    -0.318 A  
HETATM    9  C   UNL     1     -11.719  13.262  68.843  1.00  0.00    -0.369 A  
HETATM   10  N   UNL     1     -12.407  14.457  72.245  1.00  0.00    -0.242 NA 
HETATM   11  C   UNL     1     -11.865  14.161  69.930  1.00  0.00    -0.387 A  
HETATM   12  C   UNL     1     -12.070  15.742  72.098  1.00  0.00    -0.478 A  
BRANCH   4  13
HETATM   13  O   UNL     1     -12.758  10.138  70.583  1.00  0.00    -0.307 OA 
BRANCH  13  14
HETATM   14  C   UNL     1     -12.204   9.598  71.780  1.00  0.00    -0.384 C  
BRANCH  14  15
HETATM   15  C   UNL     1     -10.856   8.898  71.463  1.00  0.00    -0.396 C  
HETATM   16  N   UNL     1     -10.836   5.903  71.625  1.00  0.00    -0.256 NA 
HETATM   17  C   UNL     1     -10.839   8.007  70.201  1.00  0.00    -0.242 C  
HETATM   18  C   UNL     1      -9.448   5.453  71.535  1.00  0.00    -0.149 C  
HETATM   19  C   UNL     1     -11.314   6.562  70.406  1.00  0.00    -0.383 C  
HETATM   20  C   UNL     1     -10.371   8.109  72.686  1.00  0.00    -0.398 C  
HETATM   21  C   UNL     1     -11.068   6.753  72.795  1.00  0.00    -0.257 C  
ENDBRANCH  14  15
ENDBRANCH  13  14
ENDBRANCH   4  13
BRANCH   5  22
HETATM   22  N   UNL     1     -11.176  16.118  68.652  1.00  0.00    -0.355 NA 
HETATM   23  H   UNL     1     -11.716  15.858  67.827  1.00  0.00     0.000 HD 
BRANCH  22  24
HETATM   24  C   UNL     1     -10.111  17.029  68.464  1.00  0.00    -0.303 A  
HETATM   25  C   UNL     1      -8.783  16.611  68.631  1.00  0.00    -0.250 A  
HETATM   26  F   UNL     1      -8.522  15.319  68.883  1.00  0.00    -0.151 F  
HETATM   27  C   UNL     1      -7.713  17.506  68.548  1.00  0.00    -0.272 A  
HETATM   28  C   UNL     1      -7.973  18.850  68.311  1.00  0.00    -0.310 A  
HETATM   29 BR   UNL     1      -6.551  20.092  68.222  1.00  0.00    -0.335 Br 
HETATM   30  C   UNL     1      -9.286  19.301  68.172  1.00  0.00    -0.387 A  
HETATM   31  C   UNL     1     -10.346  18.393  68.255  1.00  0.00    -0.384 A  
ENDBRANCH  22  24
ENDBRANCH   5  22
ENDBRANCH   2   3
TORSDOF 6
ENDMDL
MODEL       11
REMARK 921   NORMALIZED FREE ENERGY PREDICTED BY IDOCK:   -7.33 KCAL/MOL
REMARK 922        TOTAL FREE ENERGY PREDICTED BY IDOCK:  -10.94 KCAL/MOL
REMARK 923 INTER-LIGAND FREE ENERGY PREDICTED BY IDOCK:   -9.89 KCAL/MOL
REMARK 924 INTRA-LIGAND FREE ENERGY PREDICTED BY IDOCK:   -1.05 KCAL/MOL
REMARK 927      BINDING AFFINITY PREDICTED BY RF-SCORE:    0.00 PKD
ROOT
HETATM    1  C   UNL     1     -13.058  15.226  70.787  1.00  0.00    -0.414 C  
HETATM    2  O   UNL     1     -11.901  15.808  70.185  1.00  0.00    -0.338 OA 
ENDROOT
BRANCH   2   3
HETATM    3  C   UNL     1     -11.585  15.409  68.912  1.00  0.00    -0.354 A  
HETATM    4  C   UNL     1     -11.058  16.338  68.004  1.00  0.00    -0.299 A  
HETATM    5  C   UNL     1     -11.453  12.344  66.701  1.00  0.00    -0.370 A  
HETATM    6  C   UNL     1     -10.731  15.917  66.703  1.00  0.00    -0.270 A  
HETATM    7  N   UNL     1     -11.030  11.998  65.474  1.00  0.00    -0.290 NA 
HETATM    8  C   UNL     1     -10.855  14.601  66.280  1.00  0.00    -0.321 A  
HETATM    9  C   UNL     1     -11.736  14.082  68.481  1.00  0.00    -0.387 A  
HETATM   10  N   UNL     1     -10.458  14.271  65.045  1.00  0.00    -0.414 NA 
HETATM   11  C   UNL     1     -11.378  13.667  67.174  1.00  0.00    -0.340 A  
HETATM   12  C   UNL     1     -10.552  12.982  64.707  1.00  0.00    -0.362 A  
BRANCH   4  13
HETATM   13  O   UNL     1     -10.845  17.685  68.166  1.00  0.00    -0.349 OA 
BRANCH  13  14
HETATM   14  C   UNL     1     -10.520  18.465  67.019  1.00  0.00    -0.399 C  
BRANCH  14  15
HETATM   15  C   UNL     1      -9.739  19.734  67.453  1.00  0.00    -0.498 C  
HETATM   16  N   UNL     1      -6.758  19.463  67.654  1.00  0.00    -0.213 NA 
HETATM   17  C   UNL     1      -8.785  20.334  66.395  1.00  0.00    -0.247 C  
HETATM   18  C   UNL     1      -6.236  20.667  68.299  1.00  0.00    -0.327 C  
HETATM   19  C   UNL     1      -7.378  19.723  66.351  1.00  0.00    -0.271 C  
HETATM   20  C   UNL     1      -8.989  19.468  68.764  1.00  0.00    -0.364 C  
HETATM   21  C   UNL     1      -7.676  18.723  68.523  1.00  0.00    -0.327 C  
ENDBRANCH  14  15
ENDBRANCH  13  14
ENDBRANCH   4  13
BRANCH   5  22
HETATM   22  N   UNL     1     -12.020  11.344  67.530  1.00  0.00    -0.601 NA 
HETATM   23  H   UNL     1     -13.028  11.204  67.464  1.00  0.00     0.000 HD 
BRANCH  22  24
HETATM   24  C   UNL     1     -11.314  10.524  68.440  1.00  0.00    -0.262 A  
HETATM   25  C   UNL     1     -10.596   9.410  67.981  1.00  0.00    -0.226 A  
HETATM   26  F   UNL     1     -10.507   9.177  66.662  1.00  0.00    -0.323 F  
HETATM   27  C   UNL     1      -9.968   8.524  68.860  1.00  0.00    -0.197 A  
HETATM   28  C   UNL     1     -10.073   8.742  70.229  1.00  0.00    -0.191 A  
HETATM   29 BR   UNL     1      -9.261   7.546  71.447  1.00  0.00    -0.156 Br 
HETATM   30  C   UNL     1     -10.809   9.823  70.717  1.00  0.00    -0.403 A  
HETATM   31  C   UNL     1     -11.429  10.703  69.824  1.00  0.00    -0.375 A  
ENDBRANCH  22  24
ENDBRANCH   5  22
ENDBRANCH   2   3
TORSDOF 6
ENDMDL
MODEL       12
REMARK 921   NORMALIZED FREE ENERGY PREDICTED BY IDOCK:   -7.29 KCAL/MOL
REMARK 922        TOTAL FREE ENERGY PREDICTED BY IDOCK:  -10.89 KCAL/MOL
REMARK 923 INTER-LIGAND FREE ENERGY PREDICTED BY IDOCK:   -9.65 KCAL/MOL
REMARK 924 INTRA-LIGAND FREE ENERGY PREDICTED BY IDOCK:   -1.25 KCAL/MOL
REMARK 927      BINDING AFFINITY PREDICTED BY RF-SCORE:    0.00 PKD
ROOT
HETATM    1  C   UNL     1     -10.570  10.759  67.971  1.00  0.00    -0.207 C  
HETATM    2  O   UNL     1     -11.934  10.770  68.397  1.00  0.00    -0.508 OA 
ENDROOT
BRANCH   2   3
HETATM    3  C   UNL     1     -12.265  11.610  69.428  1.00  0.00    -0.182 A  
HETATM    4  C   UNL     1     -12.824  11.083  70.601  1.00  0.00    -0.220 A  
HETATM    5  C   UNL     1     -12.088  15.236  70.488  1.00  0.00    -0.354 A  
HETATM    6  C   UNL     1     -13.153  11.952  71.656  1.00  0.00    -0.433 A  
HETATM    7  N   UNL     1     -12.341  15.988  71.572  1.00  0.00    -0.435 NA 
HETATM    8  C   UNL     1     -12.903  13.316  71.618  1.00  0.00    -0.302 A  
HETATM    9  C   UNL     1     -12.033  12.993  69.376  1.00  0.00    -0.338 A  
HETATM   10  N   UNL     1     -13.185  14.062  72.693  1.00  0.00    -0.503 NA 
HETATM   11  C   UNL     1     -12.346  13.853  70.458  1.00  0.00    -0.439 A  
HETATM   12  C   UNL     1     -12.878  15.361  72.622  1.00  0.00    -0.402 A  
BRANCH   4  13
HETATM   13  O   UNL     1     -13.174   9.786  70.888  1.00  0.00    -0.315 OA 
BRANCH  13  14
HETATM   14  C   UNL     1     -12.605   9.167  72.039  1.00  0.00    -0.390 C  
BRANCH  14  15
HETATM   15  C   UNL     1     -11.181   8.649  71.704  1.00  0.00    -0.379 C  
HETATM   16  N   UNL     1     -10.862   5.675  71.474  1.00  0.00    -0.250 NA 
HETATM   17  C   UNL     1     -11.024   7.942  70.339  1.00  0.00    -0.251 C  
HETATM   18  C   UNL     1      -9.432   5.378  71.399  1.00  0.00    -0.149 C  
HETATM   19  C   UNL     1     -11.357   6.443  70.328  1.00  0.00    -0.403 C  
HETATM   20  C   UNL     1     -10.666   7.752  72.837  1.00  0.00    -0.446 C  
HETATM   21  C   UNL     1     -11.224   6.333  72.731  1.00  0.00    -0.237 C  
ENDBRANCH  14  15
ENDBRANCH  13  14
ENDBRANCH   4  13
BRANCH   5  22
HETATM   22  N   UNL     1     -11.571  15.868  69.329  1.00  0.00    -0.371 NA 
HETATM   23  H   UNL     1     -12.216  16.012  68.553  1.00  0.00     0.000 HD 
BRANCH  22  24
HETATM   24  C   UNL     1     -10.242  16.318  69.154  1.00  0.00    -0.266 A  
HETATM   25  C   UNL     1      -9.985  17.540  68.516  1.00  0.00    -0.344 A  
HETATM   26  F   UNL     1     -11.010  18.326  68.152  1.00  0.00    -0.327 F  
HETATM   27  C   UNL     1      -8.684  17.968  68.240  1.00  0.00    -0.289 A  
HETATM   28  C   UNL     1      -7.615  17.152  68.591  1.00  0.00    -0.258 A  
HETATM   29 BR   UNL     1      -5.844  17.687  68.205  1.00  0.00    -0.162 Br 
HETATM   30  C   UNL     1      -7.841  15.916  69.197  1.00  0.00    -0.227 A  
HETATM   31  C   UNL     1      -9.148  15.502  69.470  1.00  0.00    -0.260 A  
ENDBRANCH  22  24
ENDBRANCH   5  22
ENDBRANCH   2   3
TORSDOF 6
ENDMDL
MODEL       13
REMARK 921   NORMALIZED FREE ENERGY PREDICTED BY IDOCK:   -7.28 KCAL/MOL
REMARK 922        TOTAL FREE ENERGY PREDICTED BY IDOCK:  -10.88 KCAL/MOL
REMARK 923 INTER-LIGAND FREE ENERGY PREDICTED BY IDOCK:   -9.92 KCAL/MOL
REMARK 924 INTRA-LIGAND FREE ENERGY PREDICTED BY IDOCK:   -0.96 KCAL/MOL
REMARK 927      BINDING AFFINITY PREDICTED BY RF-SCORE:    0.00 PKD
ROOT
HETATM    1  C   UNL     1     -10.799  11.767  65.418  1.00  0.00    -0.295 C  
HETATM    2  O   UNL     1     -11.406  11.362  66.647  1.00  0.00    -0.355 OA 
ENDROOT
BRANCH   2   3
HETATM    3  C   UNL     1     -11.493  12.299  67.644  1.00  0.00    -0.336 A  
HETATM    4  C   UNL     1     -11.878  11.907  68.934  1.00  0.00    -0.307 A  
HETATM    5  C   UNL     1     -10.879  15.964  68.348  1.00  0.00    -0.316 A  
HETATM    6  C   UNL     1     -11.959  12.874  69.951  1.00  0.00    -0.377 A  
HETATM    7  N   UNL     1     -10.889  16.810  69.391  1.00  0.00    -0.300 NA 
HETATM    8  C   UNL     1     -11.622  14.206  69.756  1.00  0.00    -0.290 A  
HETATM    9  C   UNL     1     -11.176  13.650  67.437  1.00  0.00    -0.323 A  
HETATM   10  N   UNL     1     -11.663  15.048  70.795  1.00  0.00    -0.299 NA 
HETATM   11  C   UNL     1     -11.237  14.609  68.478  1.00  0.00    -0.288 A  
HETATM   12  C   UNL     1     -11.280  16.308  70.565  1.00  0.00    -0.309 A  
BRANCH   4  13
HETATM   13  O   UNL     1     -12.265  10.668  69.384  1.00  0.00    -0.252 OA 
BRANCH  13  14
HETATM   14  C   UNL     1     -12.753  10.552  70.718  1.00  0.00    -0.381 C  
BRANCH  14  15
HETATM   15  C   UNL     1     -11.815   9.626  71.538  1.00  0.00    -0.483 C  
HETATM   16  N   UNL     1     -11.843   6.715  70.812  1.00  0.00    -0.388 NA 
HETATM   17  C   UNL     1     -10.662   8.964  70.750  1.00  0.00    -0.287 C  
HETATM   18  C   UNL     1     -11.095   5.986  71.836  1.00  0.00    -0.277 C  
HETATM   19  C   UNL     1     -11.015   7.649  70.042  1.00  0.00    -0.228 C  
HETATM   20  C   UNL     1     -12.638   8.565  72.281  1.00  0.00    -0.438 C  
HETATM   21  C   UNL     1     -13.013   7.400  71.365  1.00  0.00    -0.356 C  
ENDBRANCH  14  15
ENDBRANCH  13  14
ENDBRANCH   4  13
BRANCH   5  22
HETATM   22  N   UNL     1     -10.525  16.465  67.070  1.00  0.00    -0.301 NA 
HETATM   23  H   UNL     1     -11.068  16.131  66.274  1.00  0.00     0.000 HD 
BRANCH  22  24
HETATM   24  C   UNL     1      -9.488  17.388  66.800  1.00  0.00    -0.273 A  
HETATM   25  C   UNL     1      -9.758  18.762  66.745  1.00  0.00    -0.329 A  
HETATM   26  F   UNL     1     -10.989  19.208  67.039  1.00  0.00    -0.505 F  
HETATM   27  C   UNL     1      -8.778  19.693  66.386  1.00  0.00    -0.404 A  
HETATM   28  C   UNL     1      -7.506  19.240  66.057  1.00  0.00    -0.276 A  
HETATM   29 BR   UNL     1      -6.165  20.468  65.538  1.00  0.00    -0.284 Br 
HETATM   30  C   UNL     1      -7.216  17.876  66.071  1.00  0.00    -0.325 A  
HETATM   31  C   UNL     1      -8.206  16.957  66.435  1.00  0.00    -0.342 A  
ENDBRANCH  22  24
ENDBRANCH   5  22
ENDBRANCH   2   3
TORSDOF 6
ENDMDL
MODEL       14
REMARK 921   NORMALIZED FREE ENERGY PREDICTED BY IDOCK:   -7.27 KCAL/MOL
REMARK 922        TOTAL FREE ENERGY PREDICTED BY IDOCK:  -10.87 KCAL/MOL
REMARK 923 INTER-LIGAND FREE ENERGY PREDICTED BY IDOCK:   -9.67 KCAL/MOL
REMARK 924 INTRA-LIGAND FREE ENERGY PREDICTED BY IDOCK:   -1.20 KCAL/MOL
REMARK 927      BINDING AFFINITY PREDICTED BY RF-SCORE:    0.00 PKD
ROOT
HETATM    1  C   UNL     1      -9.815  10.898  66.059  1.00  0.00    -0.233 C  
HETATM    2  O   UNL     1     -10.532  12.133  66.006  1.00  0.00    -0.236 OA 
ENDROOT
BRANCH   2   3
HETATM    3  C   UNL     1     -11.005  12.637  67.190  1.00  0.00    -0.261 A  
HETATM    4  C   UNL     1     -11.075  14.025  67.375  1.00  0.00    -0.303 A  
HETATM    5  C   UNL     1     -12.505  11.567  70.493  1.00  0.00    -0.280 A  
HETATM    6  C   UNL     1     -11.569  14.532  68.590  1.00  0.00    -0.346 A  
HETATM    7  N   UNL     1     -13.050  12.126  71.586  1.00  0.00    -0.388 NA 
HETATM    8  C   UNL     1     -12.045  13.721  69.611  1.00  0.00    -0.336 A  
HETATM    9  C   UNL     1     -11.462  11.812  68.229  1.00  0.00    -0.370 A  
HETATM   10  N   UNL     1     -12.559  14.286  70.709  1.00  0.00    -0.337 NA 
HETATM   11  C   UNL     1     -11.981  12.338  69.439  1.00  0.00    -0.318 A  
HETATM   12  C   UNL     1     -13.050  13.461  71.638  1.00  0.00    -0.375 A  
BRANCH   4  13
HETATM   13  O   UNL     1     -10.669  15.033  66.537  1.00  0.00    -0.300 OA 
BRANCH  13  14
HETATM   14  C   UNL     1      -9.301  15.431  66.565  1.00  0.00    -0.282 C  
BRANCH  14  15
HETATM   15  C   UNL     1      -9.174  16.904  66.091  1.00  0.00    -0.270 C  
HETATM   16  N   UNL     1      -9.254  19.006  68.230  1.00  0.00    -0.320 NA 
HETATM   17  C   UNL     1      -7.906  17.655  66.553  1.00  0.00    -0.307 C  
HETATM   18  C   UNL     1      -9.365  20.310  67.578  1.00  0.00    -0.383 C  
HETATM   19  C   UNL     1      -7.995  18.315  67.936  1.00  0.00    -0.254 C  
HETATM   20  C   UNL     1     -10.435  17.691  66.473  1.00  0.00    -0.283 C  
HETATM   21  C   UNL     1     -10.398  18.141  67.933  1.00  0.00    -0.396 C  
ENDBRANCH  14  15
ENDBRANCH  13  14
ENDBRANCH   4  13
BRANCH   5  22
HETATM   22  N   UNL     1     -12.430  10.154  70.419  1.00  0.00    -0.489 NA 
HETATM   23  H   UNL     1     -13.052   9.690  69.757  1.00  0.00     0.000 HD 
BRANCH  22  24
HETATM   24  C   UNL     1     -11.571   9.328  71.181  1.00  0.00    -0.327 A  
HETATM   25  C   UNL     1     -12.095   8.477  72.165  1.00  0.00    -0.383 A  
HETATM   26  F   UNL     1     -13.424   8.382  72.320  1.00  0.00    -0.325 F  
HETATM   27  C   UNL     1     -11.268   7.721  73.002  1.00  0.00    -0.380 A  
HETATM   28  C   UNL     1      -9.890   7.829  72.866  1.00  0.00    -0.264 A  
HETATM   29 BR   UNL     1      -8.743   6.844  74.000  1.00  0.00    -0.202 Br 
HETATM   30  C   UNL     1      -9.339   8.692  71.918  1.00  0.00    -0.357 A  
HETATM   31  C   UNL     1     -10.179   9.440  71.086  1.00  0.00    -0.361 A  
ENDBRANCH  22  24
ENDBRANCH   5  22
ENDBRANCH   2   3
TORSDOF 6
ENDMDL
MODEL       15
REMARK 921   NORMALIZED FREE ENERGY PREDICTED BY IDOCK:   -7.27 KCAL/MOL
REMARK 922        TOTAL FREE ENERGY PREDICTED BY IDOCK:  -10.87 KCAL/MOL
REMARK 923 INTER-LIGAND FREE ENERGY PREDICTED BY IDOCK:  -10.51 KCAL/MOL
REMARK 924 INTRA-LIGAND FREE ENERGY PREDICTED BY IDOCK:   -0.36 KCAL/MOL
REMARK 927      BINDING AFFINITY PREDICTED BY RF-SCORE:    0.00 PKD
ROOT
HETATM    1  C   UNL     1     -13.233  14.529  72.800  1.00  0.00    -0.508 C  
HETATM    2  O   UNL     1     -12.316  15.195  71.930  1.00  0.00    -0.310 OA 
ENDROOT
BRANCH   2   3
HETATM    3  C   UNL     1     -12.017  14.582  70.741  1.00  0.00    -0.322 A  
HETATM    4  C   UNL     1     -11.430  15.323  69.706  1.00  0.00    -0.313 A  
HETATM    5  C   UNL     1     -12.058  11.204  69.042  1.00  0.00    -0.246 A  
HETATM    6  C   UNL     1     -11.121  14.683  68.492  1.00  0.00    -0.273 A  
HETATM    7  N   UNL     1     -11.649  10.644  67.891  1.00  0.00    -0.489 NA 
HETATM    8  C   UNL     1     -11.323  13.327  68.280  1.00  0.00    -0.300 A  
HETATM    9  C   UNL     1     -12.246  13.215  70.522  1.00  0.00    -0.405 A  
HETATM   10  N   UNL     1     -10.939  12.783  67.119  1.00  0.00    -0.256 NA 
HETATM   11  C   UNL     1     -11.905  12.578  69.302  1.00  0.00    -0.360 A  
HETATM   12  C   UNL     1     -11.108  11.464  66.986  1.00  0.00    -0.303 A  
BRANCH   4  13
HETATM   13  O   UNL     1     -11.136  16.664  69.657  1.00  0.00    -0.289 OA 
BRANCH  13  14
HETATM   14  C   UNL     1     -10.662  17.212  68.430  1.00  0.00    -0.347 C  
BRANCH  14  15
HETATM   15  C   UNL     1      -9.741  18.426  68.722  1.00  0.00    -0.369 C  
HETATM   16  N   UNL     1      -8.298  19.603  66.370  1.00  0.00    -0.340 NA 
HETATM   17  C   UNL     1     -10.168  19.766  68.082  1.00  0.00    -0.577 C  
HETATM   18  C   UNL     1      -7.313  20.560  66.875  1.00  0.00    -0.296 C  
HETATM   19  C   UNL     1      -9.683  19.996  66.643  1.00  0.00    -0.442 C  
HETATM   20  C   UNL     1      -8.291  18.090  68.350  1.00  0.00    -0.305 C  
HETATM   21  C   UNL     1      -8.044  18.243  66.849  1.00  0.00    -0.245 C  
ENDBRANCH  14  15
ENDBRANCH  13  14
ENDBRANCH   4  13
BRANCH   5  22
HETATM   22  N   UNL     1     -12.690  10.382  70.009  1.00  0.00    -0.549 NA 
HETATM   23  H   UNL     1     -13.708  10.347  69.994  1.00  0.00     0.000 HD 
BRANCH  22  24
HETATM   24  C   UNL     1     -12.034   9.608  70.994  1.00  0.00    -0.343 A  
HETATM   25  C   UNL     1     -10.633   9.569  71.049  1.00  0.00    -0.322 A  
HETATM   26  F   UNL     1      -9.916  10.342  70.219  1.00  0.00    -0.282 F  
HETATM   27  C   UNL     1      -9.953   8.740  71.945  1.00  0.00    -0.401 A  
HETATM   28  C   UNL     1     -10.685   7.918  72.793  1.00  0.00    -0.371 A  
HETATM   29 BR   UNL     1      -9.797   6.762  73.997  1.00  0.00    -0.362 Br 
HETATM   30  C   UNL     1     -12.079   7.910  72.740  1.00  0.00    -0.154 A  
HETATM   31  C   UNL     1     -12.746   8.748  71.839  1.00  0.00    -0.427 A  
ENDBRANCH  22  24
ENDBRANCH   5  22
ENDBRANCH   2   3
TORSDOF 6
ENDMDL
MODEL       16
REMARK 921   NORMALIZED FREE ENERGY PREDICTED BY IDOCK:   -7.24 KCAL/MOL
REMARK 922        TOTAL FREE ENERGY PREDICTED BY IDOCK:  -10.83 KCAL/MOL
REMARK 923 INTER-LIGAND FREE ENERGY PREDICTED BY IDOCK:   -9.72 KCAL/MOL
REMARK 924 INTRA-LIGAND FREE ENERGY PREDICTED BY IDOCK:   -1.11 KCAL/MOL
REMARK 927      BINDING AFFINITY PREDICTED BY RF-SCORE:    0.00 PKD
ROOT
HETATM    1  C   UNL     1      -9.559  12.957  66.728  1.00  0.00    -0.246 C  
HETATM    2  O   UNL     1     -10.479  14.023  66.971  1.00  0.00    -0.271 OA 
ENDROOT
BRANCH   2   3
HETATM    3  C   UNL     1     -11.127  14.033  68.178  1.00  0.00    -0.260 A  
HETATM    4  C   UNL     1     -11.551  15.250  68.729  1.00  0.00    -0.362 A  
HETATM    5  C   UNL     1     -12.491  11.722  70.843  1.00  0.00    -0.318 A  
HETATM    6  C   UNL     1     -12.221  15.249  69.965  1.00  0.00    -0.385 A  
HETATM    7  N   UNL     1     -13.217  11.793  71.971  1.00  0.00    -0.464 NA 
HETATM    8  C   UNL     1     -12.535  14.086  70.654  1.00  0.00    -0.365 A  
HETATM    9  C   UNL     1     -11.420  12.856  68.884  1.00  0.00    -0.350 A  
HETATM   10  N   UNL     1     -13.234  14.169  71.792  1.00  0.00    -0.350 NA 
HETATM   11  C   UNL     1     -12.119  12.868  70.117  1.00  0.00    -0.373 A  
HETATM   12  C   UNL     1     -13.554  13.017  72.388  1.00  0.00    -0.529 A  
BRANCH   4  13
HETATM   13  O   UNL     1     -11.364  16.527  68.259  1.00  0.00    -0.331 OA 
BRANCH  13  14
HETATM   14  C   UNL     1     -10.358  17.334  68.865  1.00  0.00    -0.352 C  
BRANCH  14  15
HETATM   15  C   UNL     1      -9.102  17.376  67.955  1.00  0.00    -0.255 C  
HETATM   16  N   UNL     1      -8.428  20.031  66.731  1.00  0.00    -0.318 NA 
HETATM   17  C   UNL     1      -7.928  18.242  68.464  1.00  0.00    -0.324 C  
HETATM   18  C   UNL     1      -7.380  19.817  65.734  1.00  0.00    -0.315 C  
HETATM   19  C   UNL     1      -7.998  19.731  68.100  1.00  0.00    -0.299 C  
HETATM   20  C   UNL     1      -9.497  17.789  66.531  1.00  0.00    -0.300 C  
HETATM   21  C   UNL     1      -9.657  19.303  66.406  1.00  0.00    -0.371 C  
ENDBRANCH  14  15
ENDBRANCH  13  14
ENDBRANCH   4  13
BRANCH   5  22
HETATM   22  N   UNL     1     -12.062  10.448  70.392  1.00  0.00    -0.304 NA 
HETATM   23  H   UNL     1     -12.387  10.148  69.473  1.00  0.00     0.000 HD 
BRANCH  22  24
HETATM   24  C   UNL     1     -11.225   9.556  71.101  1.00  0.00    -0.376 A  
HETATM   25  C   UNL     1      -9.873   9.425  70.752  1.00  0.00    -0.279 A  
HETATM   26  F   UNL     1      -9.354  10.215  69.800  1.00  0.00    -0.210 F  
HETATM   27  C   UNL     1      -9.041   8.484  71.367  1.00  0.00    -0.266 A  
HETATM   28  C   UNL     1      -9.573   7.645  72.338  1.00  0.00    -0.168 A  
HETATM   29 BR   UNL     1      -8.484   6.342  73.169  1.00  0.00    -0.121 Br 
HETATM   30  C   UNL     1     -10.922   7.730  72.684  1.00  0.00    -0.422 A  
HETATM   31  C   UNL     1     -11.741   8.678  72.062  1.00  0.00    -0.439 A  
ENDBRANCH  22  24
ENDBRANCH   5  22
ENDBRANCH   2   3
TORSDOF 6
ENDMDL
MODEL       17
REMARK 921   NORMALIZED FREE ENERGY PREDICTED BY IDOCK:   -7.14 KCAL/MOL
REMARK 922        TOTAL FREE ENERGY PREDICTED BY IDOCK:  -10.69 KCAL/MOL
REMARK 923 INTER-LIGAND FREE ENERGY PREDICTED BY IDOCK:   -9.71 KCAL/MOL
REMARK 924 INTRA-LIGAND FREE ENERGY PREDICTED BY IDOCK:   -0.98 KCAL/MOL
REMARK 927      BINDING AFFINITY PREDICTED BY RF-SCORE:    0.00 PKD
ROOT
HETATM    1  C   UNL     1     -14.233  14.708  71.856  1.00  0.00    -0.542 C  
HETATM    2  O   UNL     1     -12.824  14.756  71.621  1.00  0.00    -0.301 OA 
ENDROOT
BRANCH   2   3
HETATM    3  C   UNL     1     -12.326  13.967  70.617  1.00  0.00    -0.381 A  
HETATM    4  C   UNL     1     -11.756  14.562  69.483  1.00  0.00    -0.314 A  
HETATM    5  C   UNL     1     -11.712  10.349  69.704  1.00  0.00    -0.212 A  
HETATM    6  C   UNL     1     -11.242  13.743  68.462  1.00  0.00    -0.304 A  
HETATM    7  N   UNL     1     -11.117   9.636  68.732  1.00  0.00    -0.112 NA 
HETATM    8  C   UNL     1     -11.222  12.358  68.542  1.00  0.00    -0.279 A  
HETATM    9  C   UNL     1     -12.332  12.565  70.690  1.00  0.00    -0.369 A  
HETATM   10  N   UNL     1     -10.654  11.655  67.555  1.00  0.00    -0.202 NA 
HETATM   11  C   UNL     1     -11.786  11.753  69.665  1.00  0.00    -0.407 A  
HETATM   12  C   UNL     1     -10.616  10.327  67.705  1.00  0.00    -0.250 A  
BRANCH   4  13
HETATM   13  O   UNL     1     -11.656  15.893  69.159  1.00  0.00    -0.362 OA 
BRANCH  13  14
HETATM   14  C   UNL     1     -10.468  16.593  69.519  1.00  0.00    -0.281 C  
BRANCH  14  15
HETATM   15  C   UNL     1      -9.616  16.863  68.250  1.00  0.00    -0.258 C  
HETATM   16  N   UNL     1      -9.332  19.730  67.416  1.00  0.00    -0.324 NA 
HETATM   17  C   UNL     1      -8.310  17.658  68.471  1.00  0.00    -0.291 C  
HETATM   18  C   UNL     1      -8.713  19.757  66.091  1.00  0.00    -0.332 C  
HETATM   19  C   UNL     1      -8.455  19.186  68.457  1.00  0.00    -0.364 C  
HETATM   20  C   UNL     1     -10.476  17.530  67.169  1.00  0.00    -0.312 C  
HETATM   21  C   UNL     1     -10.620  19.033  67.410  1.00  0.00    -0.474 C  
ENDBRANCH  14  15
ENDBRANCH  13  14
ENDBRANCH   4  13
BRANCH   5  22
HETATM   22  N   UNL     1     -12.308   9.654  70.787  1.00  0.00    -0.451 NA 
HETATM   23  H   UNL     1     -13.227   9.973  71.092  1.00  0.00     0.000 HD 
BRANCH  22  24
HETATM   24  C   UNL     1     -11.743   8.559  71.480  1.00  0.00    -0.297 A  
HETATM   25  C   UNL     1     -12.480   7.381  71.666  1.00  0.00    -0.349 A  
HETATM   26  F   UNL     1     -13.693   7.263  71.104  1.00  0.00    -0.437 F  
HETATM   27  C   UNL     1     -11.990   6.317  72.429  1.00  0.00    -0.234 A  
HETATM   28  C   UNL     1     -10.745   6.438  73.035  1.00  0.00    -0.259 A  
HETATM   29 BR   UNL     1     -10.065   5.030  74.097  1.00  0.00    -0.280 Br 
HETATM   30  C   UNL     1     -10.002   7.611  72.895  1.00  0.00    -0.319 A  
HETATM   31  C   UNL     1     -10.505   8.665  72.126  1.00  0.00    -0.411 A  
ENDBRANCH  22  24
ENDBRANCH   5  22
ENDBRANCH   2   3
TORSDOF 6
ENDMDL
MODEL       18
REMARK 921   NORMALIZED FREE ENERGY PREDICTED BY IDOCK:   -7.13 KCAL/MOL
REMARK 922        TOTAL FREE ENERGY PREDICTED BY IDOCK:  -10.68 KCAL/MOL
REMARK 923 INTER-LIGAND FREE ENERGY PREDICTED BY IDOCK:   -9.88 KCAL/MOL
REMARK 924 INTRA-LIGAND FREE ENERGY PREDICTED BY IDOCK:   -0.80 KCAL/MOL
REMARK 927      BINDING AFFINITY PREDICTED BY RF-SCORE:    0.00 PKD
ROOT
HETATM    1  C   UNL     1     -13.635  14.173  71.754  1.00  0.00    -0.399 C  
HETATM    2  O   UNL     1     -12.593  13.249  71.434  1.00  0.00    -0.342 OA 
ENDROOT
BRANCH   2   3
HETATM    3  C   UNL     1     -12.106  13.269  70.153  1.00  0.00    -0.333 A  
HETATM    4  C   UNL     1     -12.019  12.075  69.424  1.00  0.00    -0.275 A  
HETATM    5  C   UNL     1     -10.891  15.638  67.467  1.00  0.00    -0.316 A  
HETATM    6  C   UNL     1     -11.524  12.107  68.108  1.00  0.00    -0.375 A  
HETATM    7  N   UNL     1     -10.518  15.602  66.177  1.00  0.00    -0.305 NA 
HETATM    8  C   UNL     1     -11.161  13.282  67.465  1.00  0.00    -0.281 A  
HETATM    9  C   UNL     1     -11.716  14.457  69.515  1.00  0.00    -0.362 A  
HETATM   10  N   UNL     1     -10.764  13.232  66.188  1.00  0.00    -0.277 NA 
HETATM   11  C   UNL     1     -11.244  14.477  68.179  1.00  0.00    -0.301 A  
HETATM   12  C   UNL     1     -10.475  14.397  65.601  1.00  0.00    -0.334 A  
BRANCH   4  13
HETATM   13  O   UNL     1     -12.304  10.792  69.824  1.00  0.00    -0.327 OA 
BRANCH  13  14
HETATM   14  C   UNL     1     -11.742  10.319  71.045  1.00  0.00    -0.370 C  
BRANCH  14  15
HETATM   15  C   UNL     1     -10.566   9.353  70.741  1.00  0.00    -0.371 C  
HETATM   16  N   UNL     1     -10.941   6.493  71.564  1.00  0.00    -0.246 NA 
HETATM   17  C   UNL     1     -10.860   8.235  69.716  1.00  0.00    -0.186 C  
HETATM   18  C   UNL     1      -9.657   5.808  71.419  1.00  0.00    -0.158 C  
HETATM   19  C   UNL     1     -11.497   6.962  70.291  1.00  0.00    -0.323 C  
HETATM   20  C   UNL     1     -10.021   8.758  72.046  1.00  0.00    -0.391 C  
HETATM   21  C   UNL     1     -10.877   7.589  72.533  1.00  0.00    -0.299 C  
ENDBRANCH  14  15
ENDBRANCH  13  14
ENDBRANCH   4  13
BRANCH   5  22
HETATM   22  N   UNL     1     -10.898  16.888  68.136  1.00  0.00    -0.370 NA 
HETATM   23  H   UNL     1     -11.708  17.098  68.718  1.00  0.00     0.000 HD 
BRANCH  22  24
HETATM   24  C   UNL     1      -9.881  17.869  68.069  1.00  0.00    -0.320 A  
HETATM   25  C   UNL     1     -10.130  19.107  67.458  1.00  0.00    -0.376 A  
HETATM   26  F   UNL     1     -11.365  19.392  67.017  1.00  0.00    -0.485 F  
HETATM   27  C   UNL     1      -9.122  20.061  67.288  1.00  0.00    -0.459 A  
HETATM   28  C   UNL     1      -7.835  19.767  67.721  1.00  0.00    -0.291 A  
HETATM   29 BR   UNL     1      -6.442  21.022  67.480  1.00  0.00    -0.427 Br 
HETATM   30  C   UNL     1      -7.550  18.531  68.302  1.00  0.00    -0.305 A  
HETATM   31  C   UNL     1      -8.569  17.588  68.468  1.00  0.00    -0.276 A  
ENDBRANCH  22  24
ENDBRANCH   5  22
ENDBRANCH   2   3
TORSDOF 6
ENDMDL
MODEL       19
REMARK 921   NORMALIZED FREE ENERGY PREDICTED BY IDOCK:   -7.05 KCAL/MOL
REMARK 922        TOTAL FREE ENERGY PREDICTED BY IDOCK:  -10.57 KCAL/MOL
REMARK 923 INTER-LIGAND FREE ENERGY PREDICTED BY IDOCK:   -9.55 KCAL/MOL
REMARK 924 INTRA-LIGAND FREE ENERGY PREDICTED BY IDOCK:   -1.02 KCAL/MOL
REMARK 927      BINDING AFFINITY PREDICTED BY RF-SCORE:    0.00 PKD
ROOT
HETATM    1  C   UNL     1      -6.837  14.684  67.699  1.00  0.00    -0.183 C  
HETATM    2  O   UNL     1      -7.588  15.703  67.036  1.00  0.00    -0.212 OA 
ENDROOT
BRANCH   2   3
HETATM    3  C   UNL     1      -8.801  15.347  66.506  1.00  0.00    -0.312 A  
HETATM    4  C   UNL     1      -9.579  16.308  65.845  1.00  0.00    -0.301 A  
HETATM    5  C   UNL     1     -11.051  12.356  65.968  1.00  0.00    -0.308 A  
HETATM    6  C   UNL     1     -10.818  15.931  65.299  1.00  0.00    -0.401 A  
HETATM    7  N   UNL     1     -12.200  12.052  65.341  1.00  0.00    -0.407 NA 
HETATM    8  C   UNL     1     -11.296  14.629  65.335  1.00  0.00    -0.344 A  
HETATM    9  C   UNL     1      -9.292  14.034  66.567  1.00  0.00    -0.274 A  
HETATM   10  N   UNL     1     -12.456  14.342  64.732  1.00  0.00    -0.608 NA 
HETATM   11  C   UNL     1     -10.532  13.663  65.989  1.00  0.00    -0.300 A  
HETATM   12  C   UNL     1     -12.845  13.063  64.752  1.00  0.00    -0.265 A  
BRANCH   4  13
HETATM   13  O   UNL     1      -9.342  17.650  65.678  1.00  0.00    -0.435 OA 
BRANCH  13  14
HETATM   14  C   UNL     1     -10.303  18.578  66.174  1.00  0.00    -0.426 C  
BRANCH  14  15
HETATM   15  C   UNL     1      -9.592  19.661  67.029  1.00  0.00    -0.462 C  
HETATM   16  N   UNL     1      -7.244  18.747  68.657  1.00  0.00    -0.294 NA 
HETATM   17  C   UNL     1      -8.136  19.988  66.628  1.00  0.00    -0.351 C  
HETATM   18  C   UNL     1      -6.870  19.834  69.562  1.00  0.00    -0.305 C  
HETATM   19  C   UNL     1      -7.061  19.081  67.242  1.00  0.00    -0.207 C  
HETATM   20  C   UNL     1      -9.671  19.294  68.516  1.00  0.00    -0.481 C  
HETATM   21  C   UNL     1      -8.606  18.268  68.902  1.00  0.00    -0.132 C  
ENDBRANCH  14  15
ENDBRANCH  13  14
ENDBRANCH   4  13
BRANCH   5  22
HETATM   22  N   UNL     1     -10.361  11.326  66.655  1.00  0.00    -0.229 NA 
HETATM   23  H   UNL     1      -9.561  10.908  66.181  1.00  0.00     0.000 HD 
BRANCH  22  24
HETATM   24  C   UNL     1     -10.682  10.827  67.939  1.00  0.00    -0.239 A  
HETATM   25  C   UNL     1     -10.246   9.555  68.335  1.00  0.00    -0.194 A  
HETATM   26  F   UNL     1      -9.445   8.847  67.523  1.00  0.00    -0.145 F  
HETATM   27  C   UNL     1     -10.626   8.992  69.557  1.00  0.00    -0.231 A  
HETATM   28  C   UNL     1     -11.473   9.707  70.395  1.00  0.00    -0.263 A  
HETATM   29 BR   UNL     1     -12.030   8.963  72.042  1.00  0.00    -0.430 Br 
HETATM   30  C   UNL     1     -11.949  10.962  70.014  1.00  0.00    -0.429 A  
HETATM   31  C   UNL     1     -11.558  11.513  68.790  1.00  0.00    -0.379 A  
ENDBRANCH  22  24
ENDBRANCH   5  22
ENDBRANCH   2   3
TORSDOF 6
ENDMDL
MODEL       20
REMARK 921   NORMALIZED FREE ENERGY PREDICTED BY IDOCK:   -7.05 KCAL/MOL
REMARK 922        TOTAL FREE ENERGY PREDICTED BY IDOCK:  -10.57 KCAL/MOL
REMARK 923 INTER-LIGAND FREE ENERGY PREDICTED BY IDOCK:   -9.61 KCAL/MOL
REMARK 924 INTRA-LIGAND FREE ENERGY PREDICTED BY IDOCK:   -0.96 KCAL/MOL
REMARK 927      BINDING AFFINITY PREDICTED BY RF-SCORE:    0.00 PKD
ROOT
HETATM    1  C   UNL     1      -7.167  15.502  67.201  1.00  0.00    -0.172 C  
HETATM    2  O   UNL     1      -8.314  16.306  66.918  1.00  0.00    -0.188 OA 
ENDROOT
BRANCH   2   3
HETATM    3  C   UNL     1      -9.311  15.739  66.167  1.00  0.00    -0.346 A  
HETATM    4  C   UNL     1     -10.351  16.540  65.675  1.00  0.00    -0.322 A  
HETATM    5  C   UNL     1     -10.368  12.455  64.617  1.00  0.00    -0.307 A  
HETATM    6  C   UNL     1     -11.364  15.950  64.900  1.00  0.00    -0.259 A  
HETATM    7  N   UNL     1     -11.319  11.983  63.794  1.00  0.00    -0.409 NA 
HETATM    8  C   UNL     1     -11.363  14.607  64.548  1.00  0.00    -0.310 A  
HETATM    9  C   UNL     1      -9.318  14.376  65.835  1.00  0.00    -0.100 A  
HETATM   10  N   UNL     1     -12.331  14.140  63.751  1.00  0.00    -0.759 NA 
HETATM   11  C   UNL     1     -10.333  13.800  65.031  1.00  0.00    -0.402 A  
HETATM   12  C   UNL     1     -12.254  12.852  63.401  1.00  0.00    -0.490 A  
BRANCH   4  13
HETATM   13  O   UNL     1     -10.588  17.877  65.880  1.00  0.00    -0.440 OA 
BRANCH  13  14
HETATM   14  C   UNL     1     -10.668  18.356  67.220  1.00  0.00    -0.353 C  
BRANCH  14  15
HETATM   15  C   UNL     1      -9.935  19.719  67.333  1.00  0.00    -0.531 C  
HETATM   16  N   UNL     1      -6.949  19.610  67.596  1.00  0.00    -0.235 NA 
HETATM   17  C   UNL     1      -8.993  20.077  66.162  1.00  0.00    -0.338 C  
HETATM   18  C   UNL     1      -6.474  20.952  67.930  1.00  0.00    -0.332 C  
HETATM   19  C   UNL     1      -7.565  19.524  66.269  1.00  0.00    -0.291 C  
HETATM   20  C   UNL     1      -9.188  19.806  68.670  1.00  0.00    -0.295 C  
HETATM   21  C   UNL     1      -7.849  19.072  68.618  1.00  0.00    -0.348 C  
ENDBRANCH  14  15
ENDBRANCH  13  14
ENDBRANCH   4  13
BRANCH   5  22
HETATM   22  N   UNL     1      -9.386  11.556  65.106  1.00  0.00    -0.371 NA 
HETATM   23  H   UNL     1      -8.417  11.745  64.853  1.00  0.00     0.000 HD 
BRANCH  22  24
HETATM   24  C   UNL     1      -9.631  10.422  65.915  1.00  0.00    -0.206 A  
HETATM   25  C   UNL     1      -9.229   9.148  65.489  1.00  0.00    -0.224 A  
HETATM   26  F   UNL     1      -8.529   9.020  64.352  1.00  0.00    -0.153 F  
HETATM   27  C   UNL     1      -9.541   7.995  66.216  1.00  0.00    -0.223 A  
HETATM   28  C   UNL     1     -10.285   8.114  67.384  1.00  0.00    -0.258 A  
HETATM   29 BR   UNL     1     -10.749   6.573  68.375  1.00  0.00    -0.366 Br 
HETATM   30  C   UNL     1     -10.727   9.365  67.815  1.00  0.00    -0.290 A  
HETATM   31  C   UNL     1     -10.405  10.509  67.079  1.00  0.00    -0.289 A  
ENDBRANCH  22  24
ENDBRANCH   5  22
ENDBRANCH   2   3
TORSDOF 6
ENDMDL
MODEL       21
REMARK 921   NORMALIZED FREE ENERGY PREDICTED BY IDOCK:   -7.01 KCAL/MOL
REMARK 922        TOTAL FREE ENERGY PREDICTED BY IDOCK:  -10.52 KCAL/MOL
REMARK 923 INTER-LIGAND FREE ENERGY PREDICTED BY IDOCK:   -9.44 KCAL/MOL
REMARK 924 INTRA-LIGAND FREE ENERGY PREDICTED BY IDOCK:   -1.07 KCAL/MOL
REMARK 927      BINDING AFFINITY PREDICTED BY RF-SCORE:    0.00 PKD
ROOT
HETATM    1  C   UNL     1     -13.187  13.366  71.810  1.00  0.00    -0.407 C  
HETATM    2  O   UNL     1     -12.636  14.319  70.898  1.00  0.00    -0.314 OA 
ENDROOT
BRANCH   2   3
HETATM    3  C   UNL     1     -12.107  13.838  69.729  1.00  0.00    -0.340 A  
HETATM    4  C   UNL     1     -11.692  14.734  68.734  1.00  0.00    -0.323 A  
HETATM    5  C   UNL     1     -11.093  10.619  68.023  1.00  0.00    -0.301 A  
HETATM    6  C   UNL     1     -11.143  14.231  67.541  1.00  0.00    -0.309 A  
HETATM    7  N   UNL     1     -10.476  10.218  66.899  1.00  0.00    -0.237 NA 
HETATM    8  C   UNL     1     -10.941  12.877  67.314  1.00  0.00    -0.261 A  
HETATM    9  C   UNL     1     -11.927  12.466  69.493  1.00  0.00    -0.324 A  
HETATM   10  N   UNL     1     -10.352  12.486  66.178  1.00  0.00    -0.248 NA 
HETATM   11  C   UNL     1     -11.350  11.975  68.296  1.00  0.00    -0.342 A  
HETATM   12  C   UNL     1     -10.135  11.176  66.032  1.00  0.00    -0.244 A  
BRANCH   4  13
HETATM   13  O   UNL     1     -11.785  16.104  68.707  1.00  0.00    -0.364 OA 
BRANCH  13  14
HETATM   14  C   UNL     1     -10.628  16.871  69.028  1.00  0.00    -0.338 C  
BRANCH  14  15
HETATM   15  C   UNL     1     -10.480  18.042  68.021  1.00  0.00    -0.388 C  
HETATM   16  N   UNL     1      -7.703  19.093  67.591  1.00  0.00    -0.241 NA 
HETATM   17  C   UNL     1      -9.673  17.733  66.740  1.00  0.00    -0.309 C  
HETATM   18  C   UNL     1      -7.801  20.326  66.812  1.00  0.00    -0.287 C  
HETATM   19  C   UNL     1      -8.152  17.905  66.859  1.00  0.00    -0.229 C  
HETATM   20  C   UNL     1      -9.912  19.279  68.729  1.00  0.00    -0.511 C  
HETATM   21  C   UNL     1      -8.394  19.196  68.879  1.00  0.00    -0.290 C  
ENDBRANCH  14  15
ENDBRANCH  13  14
ENDBRANCH   4  13
BRANCH   5  22
HETATM   22  N   UNL     1     -11.524   9.634  68.948  1.00  0.00    -0.456 NA 
HETATM   23  H   UNL     1     -12.449   9.231  68.799  1.00  0.00     0.000 HD 
BRANCH  22  24
HETATM   24  C   UNL     1     -10.786   9.159  70.057  1.00  0.00    -0.234 A  
HETATM   25  C   UNL     1     -11.448   8.623  71.171  1.00  0.00    -0.280 A  
HETATM   26  F   UNL     1     -12.782   8.478  71.144  1.00  0.00    -0.302 F  
HETATM   27  C   UNL     1     -10.757   8.235  72.323  1.00  0.00    -0.399 A  
HETATM   28  C   UNL     1      -9.378   8.402  72.371  1.00  0.00    -0.285 A  
HETATM   29 BR   UNL     1      -8.416   7.915  73.924  1.00  0.00    -0.323 Br 
HETATM   30  C   UNL     1      -8.696   8.963  71.291  1.00  0.00    -0.279 A  
HETATM   31  C   UNL     1      -9.401   9.344  70.145  1.00  0.00    -0.276 A  
ENDBRANCH  22  24
ENDBRANCH   5  22
ENDBRANCH   2   3
TORSDOF 6
ENDMDL
MODEL       22
REMARK 921   NORMALIZED FREE ENERGY PREDICTED BY IDOCK:   -6.96 KCAL/MOL
REMARK 922        TOTAL FREE ENERGY PREDICTED BY IDOCK:  -10.44 KCAL/MOL
REMARK 923 INTER-LIGAND FREE ENERGY PREDICTED BY IDOCK:   -9.13 KCAL/MOL
REMARK 924 INTRA-LIGAND FREE ENERGY PREDICTED BY IDOCK:   -1.31 KCAL/MOL
REMARK 927      BINDING AFFINITY PREDICTED BY RF-SCORE:    0.00 PKD
ROOT
HETATM    1  C   UNL     1     -13.387  13.433  72.431  1.00  0.00    -0.528 C  
HETATM    2  O   UNL     1     -13.276  12.015  72.290  1.00  0.00    -0.455 OA 
ENDROOT
BRANCH   2   3
HETATM    3  C   UNL     1     -12.604  11.542  71.193  1.00  0.00    -0.359 A  
HETATM    4  C   UNL     1     -12.016  10.270  71.234  1.00  0.00    -0.363 A  
HETATM    5  C   UNL     1     -11.750  12.425  67.616  1.00  0.00    -0.346 A  
HETATM    6  C   UNL     1     -11.334   9.792  70.101  1.00  0.00    -0.305 A  
HETATM    7  N   UNL     1     -11.164  11.863  66.546  1.00  0.00    -0.314 NA 
HETATM    8  C   UNL     1     -11.255  10.500  68.911  1.00  0.00    -0.266 A  
HETATM    9  C   UNL     1     -12.504  12.273  69.999  1.00  0.00    -0.041 A  
HETATM   10  N   UNL     1     -10.644   9.943  67.858  1.00  0.00    -0.237 NA 
HETATM   11  C   UNL     1     -11.836  11.767  68.857  1.00  0.00    -0.381 A  
HETATM   12  C   UNL     1     -10.641  10.646  66.722  1.00  0.00    -0.237 A  
BRANCH   4  13
HETATM   13  O   UNL     1     -11.946   9.380  72.277  1.00  0.00    -0.258 OA 
BRANCH  13  14
HETATM   14  C   UNL     1     -12.138   7.995  72.004  1.00  0.00    -0.331 C  
BRANCH  14  15
HETATM   15  C   UNL     1     -11.031   7.165  72.707  1.00  0.00    -0.346 C  
HETATM   16  N   UNL     1      -8.577   6.570  71.087  1.00  0.00    -0.130 NA 
HETATM   17  C   UNL     1      -9.690   7.895  72.947  1.00  0.00    -0.339 C  
HETATM   18  C   UNL     1      -7.775   5.592  71.821  1.00  0.00    -0.101 C  
HETATM   19  C   UNL     1      -8.698   7.858  71.776  1.00  0.00    -0.123 C  
HETATM   20  C   UNL     1     -10.800   5.849  71.953  1.00  0.00    -0.307 C  
HETATM   21  C   UNL     1      -9.899   6.048  70.734  1.00  0.00    -0.181 C  
ENDBRANCH  14  15
ENDBRANCH  13  14
ENDBRANCH   4  13
BRANCH   5  22
HETATM   22  N   UNL     1     -12.270  13.739  67.493  1.00  0.00    -0.439 NA 
HETATM   23  H   UNL     1     -13.284  13.836  67.468  1.00  0.00     0.000 HD 
BRANCH  22  24
HETATM   24  C   UNL     1     -11.507  14.926  67.402  1.00  0.00    -0.343 A  
HETATM   25  C   UNL     1     -11.483  15.837  68.468  1.00  0.00    -0.379 A  
HETATM   26  F   UNL     1     -12.115  15.534  69.613  1.00  0.00    -0.324 F  
HETATM   27  C   UNL     1     -10.819  17.064  68.375  1.00  0.00    -0.333 A  
HETATM   28  C   UNL     1     -10.181  17.397  67.187  1.00  0.00    -0.323 A  
HETATM   29 BR   UNL     1      -9.299  19.061  67.016  1.00  0.00    -0.367 Br 
HETATM   30  C   UNL     1     -10.216  16.526  66.097  1.00  0.00    -0.360 A  
HETATM   31  C   UNL     1     -10.881  15.301  66.207  1.00  0.00    -0.312 A  
ENDBRANCH  22  24
ENDBRANCH   5  22
ENDBRANCH   2   3
TORSDOF 6
ENDMDL
MODEL       23
REMARK 921   NORMALIZED FREE ENERGY PREDICTED BY IDOCK:   -6.94 KCAL/MOL
REMARK 922        TOTAL FREE ENERGY PREDICTED BY IDOCK:  -10.42 KCAL/MOL
REMARK 923 INTER-LIGAND FREE ENERGY PREDICTED BY IDOCK:   -9.37 KCAL/MOL
REMARK 924 INTRA-LIGAND FREE ENERGY PREDICTED BY IDOCK:   -1.05 KCAL/MOL
REMARK 927      BINDING AFFINITY PREDICTED BY RF-SCORE:    0.00 PKD
ROOT
HETATM    1  C   UNL     1     -13.092  10.526  71.411  1.00  0.00    -0.410 C  
HETATM    2  O   UNL     1     -11.916  11.227  71.004  1.00  0.00    -0.284 OA 
ENDROOT
BRANCH   2   3
HETATM    3  C   UNL     1     -11.536  11.110  69.692  1.00  0.00    -0.310 A  
HETATM    4  C   UNL     1     -10.978   9.908  69.235  1.00  0.00    -0.211 A  
HETATM    5  C   UNL     1     -11.556  12.987  66.409  1.00  0.00    -0.363 A  
HETATM    6  C   UNL     1     -10.598   9.796  67.886  1.00  0.00    -0.310 A  
HETATM    7  N   UNL     1     -11.255  12.772  65.117  1.00  0.00    -0.285 NA 
HETATM    8  C   UNL     1     -10.796  10.808  66.958  1.00  0.00    -0.252 A  
HETATM    9  C   UNL     1     -11.715  12.146  68.762  1.00  0.00    -0.374 A  
HETATM   10  N   UNL     1     -10.466  10.595  65.678  1.00  0.00    -0.207 NA 
HETATM   11  C   UNL     1     -11.351  12.009  67.399  1.00  0.00    -0.393 A  
HETATM   12  C   UNL     1     -10.725  11.583  64.817  1.00  0.00    -0.306 A  
BRANCH   4  13
HETATM   13  O   UNL     1     -10.673   8.770  69.941  1.00  0.00    -0.223 OA 
BRANCH  13  14
HETATM   14  C   UNL     1     -10.508   7.549  69.225  1.00  0.00    -0.214 C  
BRANCH  14  15
HETATM   15  C   UNL     1     -11.293   6.416  69.937  1.00  0.00    -0.500 C  
HETATM   16  N   UNL     1     -10.750   6.052  72.865  1.00  0.00    -0.234 NA 
HETATM   17  C   UNL     1     -12.296   6.868  71.022  1.00  0.00    -0.401 C  
HETATM   18  C   UNL     1     -11.386   4.806  73.292  1.00  0.00    -0.322 C  
HETATM   19  C   UNL     1     -11.707   7.071  72.424  1.00  0.00    -0.213 C  
HETATM   20  C   UNL     1     -10.318   5.376  70.506  1.00  0.00    -0.344 C  
HETATM   21  C   UNL     1      -9.727   5.828  71.841  1.00  0.00    -0.159 C  
ENDBRANCH  14  15
ENDBRANCH  13  14
ENDBRANCH   4  13
BRANCH   5  22
HETATM   22  N   UNL     1     -12.068  14.255  66.784  1.00  0.00    -0.456 NA 
HETATM   23  H   UNL     1     -13.080  14.372  66.758  1.00  0.00     0.000 HD 
BRANCH  22  24
HETATM   24  C   UNL     1     -11.300  15.370  67.192  1.00  0.00    -0.203 A  
HETATM   25  C   UNL     1     -11.453  15.903  68.479  1.00  0.00    -0.377 A  
HETATM   26  F   UNL     1     -12.266  15.295  69.356  1.00  0.00    -0.329 F  
HETATM   27  C   UNL     1     -10.782  17.062  68.882  1.00  0.00    -0.300 A  
HETATM   28  C   UNL     1      -9.955  17.713  67.975  1.00  0.00    -0.326 A  
HETATM   29 BR   UNL     1      -9.057  19.299  68.477  1.00  0.00    -0.436 Br 
HETATM   30  C   UNL     1      -9.808  17.225  66.676  1.00  0.00    -0.299 A  
HETATM   31  C   UNL     1     -10.483  16.063  66.289  1.00  0.00    -0.326 A  
ENDBRANCH  22  24
ENDBRANCH   5  22
ENDBRANCH   2   3
TORSDOF 6
ENDMDL
MODEL       24
REMARK 921   NORMALIZED FREE ENERGY PREDICTED BY IDOCK:   -6.90 KCAL/MOL
REMARK 922        TOTAL FREE ENERGY PREDICTED BY IDOCK:  -10.37 KCAL/MOL
REMARK 923 INTER-LIGAND FREE ENERGY PREDICTED BY IDOCK:   -9.38 KCAL/MOL
REMARK 924 INTRA-LIGAND FREE ENERGY PREDICTED BY IDOCK:   -0.99 KCAL/MOL
REMARK 927      BINDING AFFINITY PREDICTED BY RF-SCORE:    0.00 PKD
ROOT
HETATM    1  C   UNL     1     -13.097  10.481  71.024  1.00  0.00    -0.330 C  
HETATM    2  O   UNL     1     -11.797  10.977  70.697  1.00  0.00    -0.332 OA 
ENDROOT
BRANCH   2   3
HETATM    3  C   UNL     1     -11.369  10.817  69.405  1.00  0.00    -0.285 A  
HETATM    4  C   UNL     1     -10.652   9.667  69.049  1.00  0.00    -0.218 A  
HETATM    5  C   UNL     1     -11.530  12.439  65.993  1.00  0.00    -0.382 A  
HETATM    6  C   UNL     1     -10.222   9.508  67.720  1.00  0.00    -0.265 A  
HETATM    7  N   UNL     1     -11.168  12.173  64.727  1.00  0.00    -0.314 NA 
HETATM    8  C   UNL     1     -10.519  10.419  66.716  1.00  0.00    -0.225 A  
HETATM    9  C   UNL     1     -11.650  11.753  68.398  1.00  0.00    -0.380 A  
HETATM   10  N   UNL     1     -10.130  10.159  65.462  1.00  0.00    -0.289 NA 
HETATM   11  C   UNL     1     -11.233  11.568  67.057  1.00  0.00    -0.365 A  
HETATM   12  C   UNL     1     -10.486  11.043  64.525  1.00  0.00    -0.342 A  
BRANCH   4  13
HETATM   13  O   UNL     1     -10.227   8.629  69.843  1.00  0.00    -0.193 OA 
BRANCH  13  14
HETATM   14  C   UNL     1     -10.168   7.322  69.279  1.00  0.00    -0.193 C  
BRANCH  14  15
HETATM   15  C   UNL     1     -11.129   6.377  70.048  1.00  0.00    -0.442 C  
HETATM   16  N   UNL     1     -10.498   5.897  72.941  1.00  0.00    -0.210 NA 
HETATM   17  C   UNL     1     -11.947   7.027  71.187  1.00  0.00    -0.398 C  
HETATM   18  C   UNL     1     -11.355   4.812  73.418  1.00  0.00    -0.312 C  
HETATM   19  C   UNL     1     -11.244   7.097  72.549  1.00  0.00    -0.290 C  
HETATM   20  C   UNL     1     -10.362   5.153  70.567  1.00  0.00    -0.314 C  
HETATM   21  C   UNL     1      -9.610   5.466  71.860  1.00  0.00    -0.154 C  
ENDBRANCH  14  15
ENDBRANCH  13  14
ENDBRANCH   4  13
BRANCH   5  22
HETATM   22  N   UNL     1     -12.207  13.655  66.264  1.00  0.00    -0.438 NA 
HETATM   23  H   UNL     1     -13.214  13.671  66.106  1.00  0.00     0.000 HD 
BRANCH  22  24
HETATM   24  C   UNL     1     -11.611  14.848  66.734  1.00  0.00    -0.269 A  
HETATM   25  C   UNL     1     -10.832  15.637  65.876  1.00  0.00    -0.293 A  
HETATM   26  F   UNL     1     -10.728  15.303  64.580  1.00  0.00    -0.406 F  
HETATM   27  C   UNL     1     -10.150  16.769  66.331  1.00  0.00    -0.327 A  
HETATM   28  C   UNL     1     -10.231  17.112  67.675  1.00  0.00    -0.329 A  
HETATM   29 BR   UNL     1      -9.297  18.619  68.330  1.00  0.00    -0.388 Br 
HETATM   30  C   UNL     1     -10.972  16.327  68.560  1.00  0.00    -0.345 A  
HETATM   31  C   UNL     1     -11.651  15.199  68.089  1.00  0.00    -0.358 A  
ENDBRANCH  22  24
ENDBRANCH   5  22
ENDBRANCH   2   3
TORSDOF 6
ENDMDL
MODEL       25
REMARK 921   NORMALIZED FREE ENERGY PREDICTED BY IDOCK:   -6.81 KCAL/MOL
REMARK 922        TOTAL FREE ENERGY PREDICTED BY IDOCK:  -10.25 KCAL/MOL
REMARK 923 INTER-LIGAND FREE ENERGY PREDICTED BY IDOCK:   -9.18 KCAL/MOL
REMARK 924 INTRA-LIGAND FREE ENERGY PREDICTED BY IDOCK:   -1.07 KCAL/MOL
REMARK 927      BINDING AFFINITY PREDICTED BY RF-SCORE:    0.00 PKD
ROOT
HETATM    1  C   UNL     1     -11.708  11.268  70.096  1.00  0.00    -0.343 C  
HETATM    2  O   UNL     1     -11.411  10.103  69.323  1.00  0.00    -0.197 OA 
ENDROOT
BRANCH   2   3
HETATM    3  C   UNL     1     -10.997  10.294  68.031  1.00  0.00    -0.289 A  
HETATM    4  C   UNL     1     -10.265   9.291  67.381  1.00  0.00    -0.243 A  
HETATM    5  C   UNL     1     -11.229  12.748  65.163  1.00  0.00    -0.292 A  
HETATM    6  C   UNL     1      -9.851   9.493  66.053  1.00  0.00    -0.353 A  
HETATM    7  N   UNL     1     -10.879  12.829  63.868  1.00  0.00    -0.412 NA 
HETATM    8  C   UNL     1     -10.175  10.629  65.324  1.00  0.00    -0.282 A  
HETATM    9  C   UNL     1     -11.306  11.455  67.306  1.00  0.00    -0.347 A  
HETATM   10  N   UNL     1      -9.798  10.713  64.043  1.00  0.00    -0.317 NA 
HETATM   11  C   UNL     1     -10.903  11.635  65.959  1.00  0.00    -0.339 A  
HETATM   12  C   UNL     1     -10.180  11.804  63.373  1.00  0.00    -0.449 A  
BRANCH   4  13
HETATM   13  O   UNL     1      -9.813   8.090  67.872  1.00  0.00    -0.155 OA 
BRANCH  13  14
HETATM   14  C   UNL     1      -8.973   8.100  69.023  1.00  0.00    -0.144 C  
BRANCH  14  15
HETATM   15  C   UNL     1      -9.196   6.801  69.843  1.00  0.00    -0.147 C  
HETATM   16  N   UNL     1     -11.384   6.875  71.894  1.00  0.00    -0.252 NA 
HETATM   17  C   UNL     1     -10.551   6.090  69.626  1.00  0.00    -0.367 C  
HETATM   18  C   UNL     1     -11.278   5.668  72.713  1.00  0.00    -0.299 C  
HETATM   19  C   UNL     1     -11.711   6.600  70.492  1.00  0.00    -0.394 C  
HETATM   20  C   UNL     1      -8.964   7.073  71.335  1.00  0.00    -0.139 C  
HETATM   21  C   UNL     1     -10.187   7.714  71.989  1.00  0.00    -0.197 C  
ENDBRANCH  14  15
ENDBRANCH  13  14
ENDBRANCH   4  13
BRANCH   5  22
HETATM   22  N   UNL     1     -11.922  13.837  65.748  1.00  0.00    -0.376 NA 
HETATM   23  H   UNL     1     -12.941  13.806  65.723  1.00  0.00     0.000 HD 
BRANCH  22  24
HETATM   24  C   UNL     1     -11.328  14.964  66.362  1.00  0.00    -0.308 A  
HETATM   25  C   UNL     1     -11.535  15.221  67.724  1.00  0.00    -0.303 A  
HETATM   26  F   UNL     1     -12.228  14.343  68.466  1.00  0.00    -0.350 F  
HETATM   27  C   UNL     1     -11.044  16.375  68.340  1.00  0.00    -0.351 A  
HETATM   28  C   UNL     1     -10.345  17.303  67.577  1.00  0.00    -0.346 A  
HETATM   29 BR   UNL     1      -9.692  18.889  68.371  1.00  0.00    -0.461 Br 
HETATM   30  C   UNL     1     -10.151  17.091  66.211  1.00  0.00    -0.330 A  
HETATM   31  C   UNL     1     -10.646  15.930  65.610  1.00  0.00    -0.393 A  
ENDBRANCH  22  24
ENDBRANCH   5  22
ENDBRANCH   2   3
TORSDOF 6
ENDMDL
MODEL       26
REMARK 921   NORMALIZED FREE ENERGY PREDICTED BY IDOCK:   -6.78 KCAL/MOL
REMARK 922        TOTAL FREE ENERGY PREDICTED BY IDOCK:  -10.21 KCAL/MOL
REMARK 923 INTER-LIGAND FREE ENERGY PREDICTED BY IDOCK:   -8.97 KCAL/MOL
REMARK 924 INTRA-LIGAND FREE ENERGY PREDICTED BY IDOCK:   -1.24 KCAL/MOL
REMARK 927      BINDING AFFINITY PREDICTED BY RF-SCORE:    0.00 PKD
ROOT
HETATM    1  C   UNL     1     -10.260  11.336  65.976  1.00  0.00    -0.247 C  
HETATM    2  O   UNL     1     -10.716  12.643  66.331  1.00  0.00    -0.250 OA 
ENDROOT
BRANCH   2   3
HETATM    3  C   UNL     1     -11.246  12.806  67.585  1.00  0.00    -0.280 A  
HETATM    4  C   UNL     1     -11.551  14.093  68.049  1.00  0.00    -0.334 A  
HETATM    5  C   UNL     1     -12.476  10.842  70.573  1.00  0.00    -0.360 A  
HETATM    6  C   UNL     1     -12.102  14.248  69.333  1.00  0.00    -0.361 A  
HETATM    7  N   UNL     1     -13.088  11.063  71.748  1.00  0.00    -0.480 NA 
HETATM    8  C   UNL     1     -12.411  13.176  70.158  1.00  0.00    -0.213 A  
HETATM    9  C   UNL     1     -11.534  11.720  68.426  1.00  0.00    -0.354 A  
HETATM   10  N   UNL     1     -12.995  13.408  71.339  1.00  0.00    -0.349 NA 
HETATM   11  C   UNL     1     -12.113  11.890  69.708  1.00  0.00    -0.321 A  
HETATM   12  C   UNL     1     -13.318  12.338  72.072  1.00  0.00    -0.386 A  
BRANCH   4  13
HETATM   13  O   UNL     1     -11.340  15.306  67.441  1.00  0.00    -0.333 OA 
BRANCH  13  14
HETATM   14  C   UNL     1     -10.732  16.349  68.197  1.00  0.00    -0.336 C  
BRANCH  14  15
HETATM   15  C   UNL     1      -9.388  16.758  67.538  1.00  0.00    -0.231 C  
HETATM   16  N   UNL     1      -7.000  15.074  68.216  1.00  0.00    -0.108 NA 
HETATM   17  C   UNL     1      -8.789  15.741  66.540  1.00  0.00    -0.345 C  
HETATM   18  C   UNL     1      -5.809  15.749  67.703  1.00  0.00    -0.138 C  
HETATM   19  C   UNL     1      -7.921  14.638  67.161  1.00  0.00    -0.154 C  
HETATM   20  C   UNL     1      -8.360  17.123  68.616  1.00  0.00    -0.257 C  
HETATM   21  C   UNL     1      -7.705  15.879  69.216  1.00  0.00    -0.222 C  
ENDBRANCH  14  15
ENDBRANCH  13  14
ENDBRANCH   4  13
BRANCH   5  22
HETATM   22  N   UNL     1     -12.160   9.507  70.213  1.00  0.00    -0.464 NA 
HETATM   23  H   UNL     1     -12.179   9.278  69.220  1.00  0.00     0.000 HD 
BRANCH  22  24
HETATM   24  C   UNL     1     -11.822   8.466  71.108  1.00  0.00    -0.282 A  
HETATM   25  C   UNL     1     -10.599   8.490  71.794  1.00  0.00    -0.301 A  
HETATM   26  F   UNL     1      -9.789   9.553  71.667  1.00  0.00    -0.321 F  
HETATM   27  C   UNL     1     -10.190   7.432  72.611  1.00  0.00    -0.274 A  
HETATM   28  C   UNL     1     -11.010   6.317  72.731  1.00  0.00    -0.260 A  
HETATM   29 BR   UNL     1     -10.475   4.854  73.803  1.00  0.00    -0.335 Br 
HETATM   30  C   UNL     1     -12.218   6.249  72.035  1.00  0.00    -0.270 A  
HETATM   31  C   UNL     1     -12.614   7.317  71.225  1.00  0.00    -0.402 A  
ENDBRANCH  22  24
ENDBRANCH   5  22
ENDBRANCH   2   3
TORSDOF 6
ENDMDL
MODEL       27
REMARK 921   NORMALIZED FREE ENERGY PREDICTED BY IDOCK:   -6.72 KCAL/MOL
REMARK 922        TOTAL FREE ENERGY PREDICTED BY IDOCK:  -10.13 KCAL/MOL
REMARK 923 INTER-LIGAND FREE ENERGY PREDICTED BY IDOCK:   -9.00 KCAL/MOL
REMARK 924 INTRA-LIGAND FREE ENERGY PREDICTED BY IDOCK:   -1.13 KCAL/MOL
REMARK 927      BINDING AFFINITY PREDICTED BY RF-SCORE:    0.00 PKD
ROOT
HETATM    1  C   UNL     1     -12.084  13.028  63.646  1.00  0.00    -0.531 C  
HETATM    2  O   UNL     1     -10.916  13.435  64.363  1.00  0.00    -0.370 OA 
ENDROOT
BRANCH   2   3
HETATM    3  C   UNL     1     -11.067  13.742  65.690  1.00  0.00    -0.295 A  
HETATM    4  C   UNL     1     -10.898  15.065  66.120  1.00  0.00    -0.329 A  
HETATM    5  C   UNL     1     -12.018  12.205  69.011  1.00  0.00    -0.247 A  
HETATM    6  C   UNL     1     -11.061  15.372  67.482  1.00  0.00    -0.315 A  
HETATM    7  N   UNL     1     -12.249  12.591  70.277  1.00  0.00    -0.310 NA 
HETATM    8  C   UNL     1     -11.437  14.429  68.429  1.00  0.00    -0.301 A  
HETATM    9  C   UNL     1     -11.422  12.781  66.648  1.00  0.00    -0.404 A  
HETATM   10  N   UNL     1     -11.636  14.818  69.694  1.00  0.00    -0.286 NA 
HETATM   11  C   UNL     1     -11.609  13.109  68.014  1.00  0.00    -0.371 A  
HETATM   12  C   UNL     1     -12.047  13.882  70.555  1.00  0.00    -0.356 A  
BRANCH   4  13
HETATM   13  O   UNL     1     -10.525  16.171  65.396  1.00  0.00    -0.426 OA 
BRANCH  13  14
HETATM   14  C   UNL     1     -10.612  17.451  66.017  1.00  0.00    -0.210 C  
BRANCH  14  15
HETATM   15  C   UNL     1      -9.211  18.118  66.039  1.00  0.00    -0.007 C  
HETATM   16  N   UNL     1      -7.705  17.976  68.629  1.00  0.00    -0.300 NA 
HETATM   17  C   UNL     1      -8.012  17.164  66.242  1.00  0.00    -0.339 C  
HETATM   18  C   UNL     1      -6.539  18.853  68.524  1.00  0.00    -0.246 C  
HETATM   19  C   UNL     1      -7.663  16.842  67.702  1.00  0.00    -0.167 C  
HETATM   20  C   UNL     1      -9.180  19.248  67.076  1.00  0.00    -0.357 C  
HETATM   21  C   UNL     1      -8.964  18.710  68.490  1.00  0.00    -0.334 C  
ENDBRANCH  14  15
ENDBRANCH  13  14
ENDBRANCH   4  13
BRANCH   5  22
HETATM   22  N   UNL     1     -12.165  10.833  68.683  1.00  0.00    -0.827 NA 
HETATM   23  H   UNL     1     -13.096  10.518  68.412  1.00  0.00     0.000 HD 
BRANCH  22  24
HETATM   24  C   UNL     1     -11.136   9.863  68.698  1.00  0.00    -0.134 A  
HETATM   25  C   UNL     1     -10.523   9.499  69.905  1.00  0.00    -0.240 A  
HETATM   26  F   UNL     1     -10.978  10.008  71.060  1.00  0.00    -0.369 F  
HETATM   27  C   UNL     1      -9.438   8.617  69.944  1.00  0.00    -0.168 A  
HETATM   28  C   UNL     1      -8.944   8.102  68.752  1.00  0.00    -0.144 A  
HETATM   29 BR   UNL     1      -7.460   6.930  68.767  1.00  0.00    -0.101 Br 
HETATM   30  C   UNL     1      -9.512   8.472  67.533  1.00  0.00    -0.182 A  
HETATM   31  C   UNL     1     -10.598   9.352  67.510  1.00  0.00    -0.333 A  
ENDBRANCH  22  24
ENDBRANCH   5  22
ENDBRANCH   2   3
TORSDOF 6
ENDMDL
MODEL       28
REMARK 921   NORMALIZED FREE ENERGY PREDICTED BY IDOCK:   -6.71 KCAL/MOL
REMARK 922        TOTAL FREE ENERGY PREDICTED BY IDOCK:  -10.11 KCAL/MOL
REMARK 923 INTER-LIGAND FREE ENERGY PREDICTED BY IDOCK:   -9.12 KCAL/MOL
REMARK 924 INTRA-LIGAND FREE ENERGY PREDICTED BY IDOCK:   -0.99 KCAL/MOL
REMARK 927      BINDING AFFINITY PREDICTED BY RF-SCORE:    0.00 PKD
ROOT
HETATM    1  C   UNL     1      -9.490  15.225  65.875  1.00  0.00    -0.316 C  
HETATM    2  O   UNL     1     -10.838  15.193  66.351  1.00  0.00    -0.319 OA 
ENDROOT
BRANCH   2   3
HETATM    3  C   UNL     1     -11.034  15.362  67.697  1.00  0.00    -0.315 A  
HETATM    4  C   UNL     1     -10.698  16.582  68.300  1.00  0.00    -0.345 A  
HETATM    5  C   UNL     1     -12.438  13.615  70.742  1.00  0.00    -0.359 A  
HETATM    6  C   UNL     1     -10.910  16.748  69.680  1.00  0.00    -0.205 A  
HETATM    7  N   UNL     1     -12.697  13.881  72.034  1.00  0.00    -0.279 NA 
HETATM    8  C   UNL     1     -11.489  15.773  70.479  1.00  0.00    -0.381 A  
HETATM    9  C   UNL     1     -11.597  14.363  68.506  1.00  0.00    -0.347 A  
HETATM   10  N   UNL     1     -11.716  16.037  71.771  1.00  0.00    -0.487 NA 
HETATM   11  C   UNL     1     -11.828  14.554  69.891  1.00  0.00    -0.373 A  
HETATM   12  C   UNL     1     -12.323  15.082  72.483  1.00  0.00    -0.357 A  
BRANCH   4  13
HETATM   13  O   UNL     1     -10.112  17.693  67.743  1.00  0.00    -0.307 OA 
BRANCH  13  14
HETATM   14  C   UNL     1      -9.217  18.463  68.541  1.00  0.00    -0.328 C  
BRANCH  14  15
HETATM   15  C   UNL     1      -8.633  19.626  67.697  1.00  0.00    -0.365 C  
HETATM   16  N   UNL     1      -5.984  19.123  66.382  1.00  0.00    -0.165 NA 
HETATM   17  C   UNL     1      -8.505  19.362  66.180  1.00  0.00    -0.303 C  
HETATM   18  C   UNL     1      -5.495  20.393  65.848  1.00  0.00    -0.178 C  
HETATM   19  C   UNL     1      -7.215  18.657  65.738  1.00  0.00    -0.193 C  
HETATM   20  C   UNL     1      -7.287  20.076  68.280  1.00  0.00    -0.295 C  
HETATM   21  C   UNL     1      -6.146  19.161  67.837  1.00  0.00    -0.206 C  
ENDBRANCH  14  15
ENDBRANCH  13  14
ENDBRANCH   4  13
BRANCH   5  22
HETATM   22  N   UNL     1     -12.766  12.332  70.235  1.00  0.00     0.081 NA 
HETATM   23  H   UNL     1     -13.592  12.266  69.641  1.00  0.00     0.000 HD 
BRANCH  22  24
HETATM   24  C   UNL     1     -12.050  11.137  70.479  1.00  0.00    -0.381 A  
HETATM   25  C   UNL     1     -12.413  10.298  71.542  1.00  0.00    -0.422 A  
HETATM   26  F   UNL     1     -13.500  10.587  72.273  1.00  0.00    -0.513 F  
HETATM   27  C   UNL     1     -11.669   9.161  71.871  1.00  0.00    -0.436 A  
HETATM   28  C   UNL     1     -10.528   8.865  71.135  1.00  0.00    -0.266 A  
HETATM   29 BR   UNL     1      -9.483   7.351  71.572  1.00  0.00    -0.166 Br 
HETATM   30  C   UNL     1     -10.124   9.699  70.093  1.00  0.00    -0.311 A  
HETATM   31  C   UNL     1     -10.880  10.831  69.774  1.00  0.00    -0.284 A  
ENDBRANCH  22  24
ENDBRANCH   5  22
ENDBRANCH   2   3
TORSDOF 6
ENDMDL
MODEL       29
REMARK 921   NORMALIZED FREE ENERGY PREDICTED BY IDOCK:   -6.69 KCAL/MOL
REMARK 922        TOTAL FREE ENERGY PREDICTED BY IDOCK:  -10.08 KCAL/MOL
REMARK 923 INTER-LIGAND FREE ENERGY PREDICTED BY IDOCK:   -8.92 KCAL/MOL
REMARK 924 INTRA-LIGAND FREE ENERGY PREDICTED BY IDOCK:   -1.16 KCAL/MOL
REMARK 927      BINDING AFFINITY PREDICTED BY RF-SCORE:    0.00 PKD
ROOT
HETATM    1  C   UNL     1     -10.235   8.615  66.475  1.00  0.00    -0.225 C  
HETATM    2  O   UNL     1      -9.798   9.953  66.725  1.00  0.00    -0.181 OA 
ENDROOT
BRANCH   2   3
HETATM    3  C   UNL     1     -10.414  10.637  67.740  1.00  0.00    -0.221 A  
HETATM    4  C   UNL     1     -10.343  12.036  67.778  1.00  0.00    -0.197 A  
HETATM    5  C   UNL     1     -12.616  10.119  70.771  1.00  0.00    -0.317 A  
HETATM    6  C   UNL     1     -10.983  12.729  68.820  1.00  0.00    -0.289 A  
HETATM    7  N   UNL     1     -13.278  10.854  71.679  1.00  0.00    -0.401 NA 
HETATM    8  C   UNL     1     -11.736  12.096  69.799  1.00  0.00    -0.310 A  
HETATM    9  C   UNL     1     -11.153   9.990  68.743  1.00  0.00    -0.219 A  
HETATM   10  N   UNL     1     -12.369  12.835  70.717  1.00  0.00    -0.354 NA 
HETATM   11  C   UNL     1     -11.815  10.704  69.772  1.00  0.00    -0.377 A  
HETATM   12  C   UNL     1     -13.122  12.179  71.605  1.00  0.00    -0.310 A  
BRANCH   4  13
HETATM   13  O   UNL     1      -9.666  12.893  66.945  1.00  0.00    -0.227 OA 
BRANCH  13  14
HETATM   14  C   UNL     1      -8.799  13.864  67.526  1.00  0.00    -0.196 C  
BRANCH  14  15
HETATM   15  C   UNL     1      -8.927  15.206  66.756  1.00  0.00    -0.293 C  
HETATM   16  N   UNL     1     -10.292  17.451  68.205  1.00  0.00    -0.347 NA 
HETATM   17  C   UNL     1      -8.144  16.399  67.347  1.00  0.00    -0.175 C  
HETATM   18  C   UNL     1     -10.528  18.530  67.247  1.00  0.00    -0.419 C  
HETATM   19  C   UNL     1      -8.870  17.188  68.446  1.00  0.00    -0.255 C  
HETATM   20  C   UNL     1     -10.406  15.570  66.574  1.00  0.00    -0.293 C  
HETATM   21  C   UNL     1     -10.987  16.217  67.831  1.00  0.00    -0.310 C  
ENDBRANCH  14  15
ENDBRANCH  13  14
ENDBRANCH   4  13
BRANCH   5  22
HETATM   22  N   UNL     1     -12.706   8.706  70.845  1.00  0.00    -0.490 NA 
HETATM   23  H   UNL     1     -13.513   8.269  70.401  1.00  0.00     0.000 HD 
BRANCH  22  24
HETATM   24  C   UNL     1     -11.778   7.849  71.481  1.00  0.00    -0.283 A  
HETATM   25  C   UNL     1     -11.479   6.595  70.929  1.00  0.00    -0.347 A  
HETATM   26  F   UNL     1     -12.009   6.247  69.747  1.00  0.00    -0.479 F  
HETATM   27  C   UNL     1     -10.641   5.684  71.580  1.00  0.00    -0.301 A  
HETATM   28  C   UNL     1     -10.104   6.024  72.816  1.00  0.00    -0.183 A  
HETATM   29 BR   UNL     1      -8.992   4.805  73.737  1.00  0.00    -0.105 Br 
HETATM   30  C   UNL     1     -10.410   7.252  73.405  1.00  0.00    -0.410 A  
HETATM   31  C   UNL     1     -11.247   8.154  72.740  1.00  0.00    -0.407 A  
ENDBRANCH  22  24
ENDBRANCH   5  22
ENDBRANCH   2   3
TORSDOF 6
ENDMDL
MODEL       30
REMARK 921   NORMALIZED FREE ENERGY PREDICTED BY IDOCK:   -6.68 KCAL/MOL
REMARK 922        TOTAL FREE ENERGY PREDICTED BY IDOCK:  -10.07 KCAL/MOL
REMARK 923 INTER-LIGAND FREE ENERGY PREDICTED BY IDOCK:   -9.19 KCAL/MOL
REMARK 924 INTRA-LIGAND FREE ENERGY PREDICTED BY IDOCK:   -0.88 KCAL/MOL
REMARK 927      BINDING AFFINITY PREDICTED BY RF-SCORE:    0.00 PKD
ROOT
HETATM    1  C   UNL     1     -10.573  13.606  64.482  1.00  0.00    -0.411 C  
HETATM    2  O   UNL     1     -10.941  12.552  65.375  1.00  0.00    -0.280 OA 
ENDROOT
BRANCH   2   3
HETATM    3  C   UNL     1     -11.210  12.894  66.674  1.00  0.00    -0.304 A  
HETATM    4  C   UNL     1     -11.491  11.891  67.612  1.00  0.00    -0.317 A  
HETATM    5  C   UNL     1     -11.366  15.874  68.998  1.00  0.00    -0.371 A  
HETATM    6  C   UNL     1     -11.759  12.251  68.945  1.00  0.00    -0.380 A  
HETATM    7  N   UNL     1     -11.540  16.131  70.305  1.00  0.00    -0.314 NA 
HETATM    8  C   UNL     1     -11.711  13.561  69.398  1.00  0.00    -0.325 A  
HETATM    9  C   UNL     1     -11.184  14.223  67.123  1.00  0.00    -0.333 A  
HETATM   10  N   UNL     1     -11.914  13.811  70.697  1.00  0.00    -0.301 NA 
HETATM   11  C   UNL     1     -11.432  14.569  68.475  1.00  0.00    -0.327 A  
HETATM   12  C   UNL     1     -11.805  15.083  71.090  1.00  0.00    -0.333 A  
BRANCH   4  13
HETATM   13  O   UNL     1     -11.606  10.535  67.424  1.00  0.00    -0.383 OA 
BRANCH  13  14
HETATM   14  C   UNL     1     -10.952   9.663  68.342  1.00  0.00    -0.113 C  
BRANCH  14  15
HETATM   15  C   UNL     1     -10.205   8.548  67.563  1.00  0.00    -0.307 C  
HETATM   16  N   UNL     1      -9.400   6.126  69.140  1.00  0.00    -0.126 NA 
HETATM   17  C   UNL     1     -10.949   7.199  67.436  1.00  0.00    -0.296 C  
HETATM   18  C   UNL     1      -8.512   5.317  68.306  1.00  0.00    -0.096 C  
HETATM   19  C   UNL     1     -10.763   6.229  68.611  1.00  0.00    -0.298 C  
HETATM   20  C   UNL     1      -8.806   8.337  68.155  1.00  0.00    -0.139 C  
HETATM   21  C   UNL     1      -8.848   7.457  69.404  1.00  0.00    -0.137 C  
ENDBRANCH  14  15
ENDBRANCH  13  14
ENDBRANCH   4  13
BRANCH   5  22
HETATM   22  N   UNL     1     -11.140  16.961  68.117  1.00  0.00    -0.293 NA 
HETATM   23  H   UNL     1     -11.821  17.104  67.372  1.00  0.00     0.000 HD 
BRANCH  22  24
HETATM   24  C   UNL     1     -10.054  17.865  68.178  1.00  0.00    -0.366 A  
HETATM   25  C   UNL     1     -10.174  19.155  67.644  1.00  0.00    -0.403 A  
HETATM   26  F   UNL     1     -11.355  19.562  67.153  1.00  0.00    -0.540 F  
HETATM   27  C   UNL     1      -9.092  20.039  67.600  1.00  0.00    -0.441 A  
HETATM   28  C   UNL     1      -7.859  19.621  68.084  1.00  0.00    -0.311 A  
HETATM   29 BR   UNL     1      -6.367  20.781  68.014  1.00  0.00    -0.368 Br 
HETATM   30  C   UNL     1      -7.700  18.332  68.593  1.00  0.00    -0.318 A  
HETATM   31  C   UNL     1      -8.792  17.459  68.632  1.00  0.00    -0.258 A  
ENDBRANCH  22  24
ENDBRANCH   5  22
ENDBRANCH   2   3
TORSDOF 6
ENDMDL
MODEL       31
REMARK 921   NORMALIZED FREE ENERGY PREDICTED BY IDOCK:   -6.66 KCAL/MOL
REMARK 922        TOTAL FREE ENERGY PREDICTED BY IDOCK:  -10.04 KCAL/MOL
REMARK 923 INTER-LIGAND FREE ENERGY PREDICTED BY IDOCK:   -8.78 KCAL/MOL
REMARK 924 INTRA-LIGAND FREE ENERGY PREDICTED BY IDOCK:   -1.26 KCAL/MOL
REMARK 927      BINDING AFFINITY PREDICTED BY RF-SCORE:    0.00 PKD
ROOT
HETATM    1  C   UNL     1      -9.013  10.953  65.554  1.00  0.00    -0.197 C  
HETATM    2  O   UNL     1     -10.243  10.346  65.956  1.00  0.00    -0.243 OA 
ENDROOT
BRANCH   2   3
HETATM    3  C   UNL     1     -10.764  10.721  67.167  1.00  0.00    -0.272 A  
HETATM    4  C   UNL     1     -10.821   9.794  68.216  1.00  0.00    -0.210 A  
HETATM    5  C   UNL     1     -12.149  13.719  69.010  1.00  0.00    -0.322 A  
HETATM    6  C   UNL     1     -11.351  10.190  69.456  1.00  0.00    -0.260 A  
HETATM    7  N   UNL     1     -12.554  14.048  70.248  1.00  0.00    -0.327 NA 
HETATM    8  C   UNL     1     -11.780  11.484  69.716  1.00  0.00    -0.353 A  
HETATM    9  C   UNL     1     -11.221  12.024  67.417  1.00  0.00    -0.368 A  
HETATM   10  N   UNL     1     -12.210  11.796  70.944  1.00  0.00    -0.337 NA 
HETATM   11  C   UNL     1     -11.729  12.417  68.680  1.00  0.00    -0.372 A  
HETATM   12  C   UNL     1     -12.563  13.067  71.155  1.00  0.00    -0.297 A  
BRANCH   4  13
HETATM   13  O   UNL     1     -10.471   8.465  68.220  1.00  0.00    -0.206 OA 
BRANCH  13  14
HETATM   14  C   UNL     1      -9.369   8.054  69.023  1.00  0.00    -0.147 C  
BRANCH  14  15
HETATM   15  C   UNL     1      -9.698   6.702  69.710  1.00  0.00    -0.168 C  
HETATM   16  N   UNL     1     -11.490   6.826  72.113  1.00  0.00    -0.271 NA 
HETATM   17  C   UNL     1     -11.178   6.261  69.656  1.00  0.00    -0.506 C  
HETATM   18  C   UNL     1     -11.484   5.510  72.751  1.00  0.00    -0.280 C  
HETATM   19  C   UNL     1     -12.076   6.818  70.770  1.00  0.00    -0.347 C  
HETATM   20  C   UNL     1      -9.191   6.709  71.158  1.00  0.00    -0.159 C  
HETATM   21  C   UNL     1     -10.159   7.436  72.092  1.00  0.00    -0.190 C  
ENDBRANCH  14  15
ENDBRANCH  13  14
ENDBRANCH   4  13
BRANCH   5  22
HETATM   22  N   UNL     1     -12.177  14.713  68.000  1.00  0.00    -0.601 NA 
HETATM   23  H   UNL     1     -13.044  14.816  67.474  1.00  0.00     0.000 HD 
BRANCH  22  24
HETATM   24  C   UNL     1     -11.109  15.575  67.657  1.00  0.00    -0.311 A  
HETATM   25  C   UNL     1     -10.790  16.668  68.475  1.00  0.00    -0.356 A  
HETATM   26  F   UNL     1     -11.443  16.842  69.634  1.00  0.00    -0.164 F  
HETATM   27  C   UNL     1      -9.806  17.595  68.117  1.00  0.00    -0.318 A  
HETATM   28  C   UNL     1      -9.140  17.438  66.908  1.00  0.00    -0.245 A  
HETATM   29 BR   UNL     1      -7.825  18.689  66.379  1.00  0.00    -0.300 Br 
HETATM   30  C   UNL     1      -9.458  16.379  66.057  1.00  0.00    -0.345 A  
HETATM   31  C   UNL     1     -10.443  15.458  66.431  1.00  0.00    -0.307 A  
ENDBRANCH  22  24
ENDBRANCH   5  22
ENDBRANCH   2   3
TORSDOF 6
ENDMDL
MODEL       32
REMARK 921   NORMALIZED FREE ENERGY PREDICTED BY IDOCK:   -6.65 KCAL/MOL
REMARK 922        TOTAL FREE ENERGY PREDICTED BY IDOCK:  -10.02 KCAL/MOL
REMARK 923 INTER-LIGAND FREE ENERGY PREDICTED BY IDOCK:   -8.92 KCAL/MOL
REMARK 924 INTRA-LIGAND FREE ENERGY PREDICTED BY IDOCK:   -1.10 KCAL/MOL
REMARK 927      BINDING AFFINITY PREDICTED BY RF-SCORE:    0.00 PKD
ROOT
HETATM    1  C   UNL     1     -12.208  14.437  70.533  1.00  0.00    -0.341 C  
HETATM    2  O   UNL     1     -12.425  14.334  69.124  1.00  0.00    -0.212 OA 
ENDROOT
BRANCH   2   3
HETATM    3  C   UNL     1     -11.897  13.243  68.484  1.00  0.00    -0.349 A  
HETATM    4  C   UNL     1     -11.348  13.387  67.203  1.00  0.00    -0.315 A  
HETATM    5  C   UNL     1     -11.148   9.571  68.990  1.00  0.00    -0.027 A  
HETATM    6  C   UNL     1     -10.803  12.263  66.558  1.00  0.00    -0.297 A  
HETATM    7  N   UNL     1     -10.527   8.566  68.350  1.00  0.00    -0.200 NA 
HETATM    8  C   UNL     1     -10.733  11.011  67.151  1.00  0.00    -0.265 A  
HETATM    9  C   UNL     1     -11.850  11.972  69.079  1.00  0.00    -0.372 A  
HETATM   10  N   UNL     1     -10.137  10.009  66.494  1.00  0.00    -0.225 NA 
HETATM   11  C   UNL     1     -11.275  10.854  68.427  1.00  0.00    -0.347 A  
HETATM   12  C   UNL     1     -10.051   8.837  67.131  1.00  0.00    -0.252 A  
BRANCH   4  13
HETATM   13  O   UNL     1     -11.298  14.501  66.401  1.00  0.00    -0.335 OA 
BRANCH  13  14
HETATM   14  C   UNL     1     -10.043  15.150  66.216  1.00  0.00    -0.283 C  
BRANCH  14  15
HETATM   15  C   UNL     1      -9.686  15.971  67.484  1.00  0.00    -0.228 C  
HETATM   16  N   UNL     1      -9.125  18.889  67.072  1.00  0.00    -0.287 NA 
HETATM   17  C   UNL     1     -10.698  17.067  67.885  1.00  0.00    -0.348 C  
HETATM   18  C   UNL     1      -8.581  19.426  68.319  1.00  0.00    -0.338 C  
HETATM   19  C   UNL     1     -10.510  18.425  67.195  1.00  0.00    -0.404 C  
HETATM   20  C   UNL     1      -8.277  16.562  67.350  1.00  0.00    -0.183 C  
HETATM   21  C   UNL     1      -8.278  17.837  66.506  1.00  0.00    -0.269 C  
ENDBRANCH  14  15
ENDBRANCH  13  14
ENDBRANCH   4  13
BRANCH   5  22
HETATM   22  N   UNL     1     -11.719   9.314  70.262  1.00  0.00    -0.461 NA 
HETATM   23  H   UNL     1     -12.496   9.908  70.550  1.00  0.00     0.000 HD 
BRANCH  22  24
HETATM   24  C   UNL     1     -11.308   8.308  71.167  1.00  0.00    -0.263 A  
HETATM   25  C   UNL     1     -11.948   7.061  71.179  1.00  0.00    -0.356 A  
HETATM   26  F   UNL     1     -12.895   6.793  70.267  1.00  0.00    -0.238 F  
HETATM   27  C   UNL     1     -11.633   6.080  72.124  1.00  0.00    -0.348 A  
HETATM   28  C   UNL     1     -10.671   6.354  73.088  1.00  0.00    -0.268 A  
HETATM   29 BR   UNL     1     -10.242   5.061  74.398  1.00  0.00    -0.324 Br 
HETATM   30  C   UNL     1     -10.040   7.598  73.121  1.00  0.00    -0.382 A  
HETATM   31  C   UNL     1     -10.363   8.569  72.168  1.00  0.00    -0.409 A  
ENDBRANCH  22  24
ENDBRANCH   5  22
ENDBRANCH   2   3
TORSDOF 6
ENDMDL
MODEL       33
REMARK 921   NORMALIZED FREE ENERGY PREDICTED BY IDOCK:   -6.58 KCAL/MOL
REMARK 922        TOTAL FREE ENERGY PREDICTED BY IDOCK:   -9.94 KCAL/MOL
REMARK 923 INTER-LIGAND FREE ENERGY PREDICTED BY IDOCK:   -8.99 KCAL/MOL
REMARK 924 INTRA-LIGAND FREE ENERGY PREDICTED BY IDOCK:   -0.95 KCAL/MOL
REMARK 927      BINDING AFFINITY PREDICTED BY RF-SCORE:    0.00 PKD
ROOT
HETATM    1  C   UNL     1     -12.572  12.357  64.373  1.00  0.00    -0.399 C  
HETATM    2  O   UNL     1     -12.481  12.746  65.746  1.00  0.00    -0.579 OA 
ENDROOT
BRANCH   2   3
HETATM    3  C   UNL     1     -11.334  12.416  66.419  1.00  0.00    -0.342 A  
HETATM    4  C   UNL     1     -10.198  13.228  66.296  1.00  0.00    -0.296 A  
HETATM    5  C   UNL     1      -9.950   9.914  68.895  1.00  0.00    -0.181 A  
HETATM    6  C   UNL     1      -9.028  12.885  66.996  1.00  0.00    -0.225 A  
HETATM    7  N   UNL     1      -8.828   9.704  69.603  1.00  0.00    -0.185 NA 
HETATM    8  C   UNL     1      -8.953  11.798  67.855  1.00  0.00    -0.180 A  
HETATM    9  C   UNL     1     -11.254  11.301  67.268  1.00  0.00    -0.364 A  
HETATM   10  N   UNL     1      -7.821  11.581  68.535  1.00  0.00    -0.135 NA 
HETATM   11  C   UNL     1     -10.076  10.982  67.988  1.00  0.00    -0.198 A  
HETATM   12  C   UNL     1      -7.818  10.551  69.388  1.00  0.00    -0.147 A  
BRANCH   4  13
HETATM   13  O   UNL     1     -10.010  14.342  65.515  1.00  0.00    -0.339 OA 
BRANCH  13  14
HETATM   14  C   UNL     1     -10.655  15.555  65.894  1.00  0.00    -0.339 C  
BRANCH  14  15
HETATM   15  C   UNL     1      -9.617  16.707  65.942  1.00  0.00    -0.248 C  
HETATM   16  N   UNL     1      -9.458  18.256  68.507  1.00  0.00    -0.321 NA 
HETATM   17  C   UNL     1      -8.452  16.525  66.942  1.00  0.00    -0.244 C  
HETATM   18  C   UNL     1      -8.614  19.428  68.276  1.00  0.00    -0.338 C  
HETATM   19  C   UNL     1      -8.736  16.986  68.378  1.00  0.00    -0.247 C  
HETATM   20  C   UNL     1     -10.325  18.047  66.180  1.00  0.00    -0.368 C  
HETATM   21  C   UNL     1     -10.651  18.258  67.658  1.00  0.00    -0.405 C  
ENDBRANCH  14  15
ENDBRANCH  13  14
ENDBRANCH   4  13
BRANCH   5  22
HETATM   22  N   UNL     1     -11.029   9.007  69.048  1.00  0.00    -0.431 NA 
HETATM   23  H   UNL     1     -11.814   9.107  68.405  1.00  0.00     0.000 HD 
BRANCH  22  24
HETATM   24  C   UNL     1     -11.114   7.976  70.013  1.00  0.00    -0.154 A  
HETATM   25  C   UNL     1     -11.425   8.278  71.347  1.00  0.00    -0.269 A  
HETATM   26  F   UNL     1     -11.730   9.539  71.687  1.00  0.00    -0.392 F  
HETATM   27  C   UNL     1     -11.422   7.298  72.344  1.00  0.00    -0.327 A  
HETATM   28  C   UNL     1     -11.084   5.993  72.007  1.00  0.00    -0.274 A  
HETATM   29 BR   UNL     1     -11.041   4.649  73.336  1.00  0.00    -0.423 Br 
HETATM   30  C   UNL     1     -10.739   5.669  70.695  1.00  0.00    -0.333 A  
HETATM   31  C   UNL     1     -10.749   6.659  69.707  1.00  0.00    -0.304 A  
ENDBRANCH  22  24
ENDBRANCH   5  22
ENDBRANCH   2   3
TORSDOF 6
ENDMDL
MODEL       34
REMARK 921   NORMALIZED FREE ENERGY PREDICTED BY IDOCK:   -6.58 KCAL/MOL
REMARK 922        TOTAL FREE ENERGY PREDICTED BY IDOCK:   -9.94 KCAL/MOL
REMARK 923 INTER-LIGAND FREE ENERGY PREDICTED BY IDOCK:   -9.67 KCAL/MOL
REMARK 924 INTRA-LIGAND FREE ENERGY PREDICTED BY IDOCK:   -0.27 KCAL/MOL
REMARK 927      BINDING AFFINITY PREDICTED BY RF-SCORE:    0.00 PKD
ROOT
HETATM    1  C   UNL     1      -9.484   9.681  69.823  1.00  0.00    -0.220 C  
HETATM    2  O   UNL     1     -10.896   9.637  69.610  1.00  0.00    -0.230 OA 
ENDROOT
BRANCH   2   3
HETATM    3  C   UNL     1     -11.659  10.581  70.247  1.00  0.00    -0.332 A  
HETATM    4  C   UNL     1     -12.524  10.193  71.280  1.00  0.00    -0.406 A  
HETATM    5  C   UNL     1     -12.282  14.308  70.381  1.00  0.00    -0.342 A  
HETATM    6  C   UNL     1     -13.297  11.170  71.932  1.00  0.00    -0.409 A  
HETATM    7  N   UNL     1     -12.981  15.193  71.111  1.00  0.00    -0.385 NA 
HETATM    8  C   UNL     1     -13.209  12.524  71.638  1.00  0.00    -0.284 A  
HETATM    9  C   UNL     1     -11.585  11.946  69.930  1.00  0.00    -0.333 A  
HETATM   10  N   UNL     1     -13.932  13.395  72.353  1.00  0.00    -0.694 NA 
HETATM   11  C   UNL     1     -12.352  12.922  70.614  1.00  0.00    -0.385 A  
HETATM   12  C   UNL     1     -13.771  14.690  72.064  1.00  0.00    -0.430 A  
BRANCH   4  13
HETATM   13  O   UNL     1     -12.799   8.934  71.755  1.00  0.00    -0.324 OA 
BRANCH  13  14
HETATM   14  C   UNL     1     -11.766   8.221  72.429  1.00  0.00    -0.397 C  
BRANCH  14  15
HETATM   15  C   UNL     1     -11.885   6.706  72.114  1.00  0.00    -0.337 C  
HETATM   16  N   UNL     1      -9.384   5.332  71.189  1.00  0.00    -0.147 NA 
HETATM   17  C   UNL     1     -11.079   5.760  73.032  1.00  0.00    -0.305 C  
HETATM   18  C   UNL     1      -9.748   3.997  70.719  1.00  0.00    -0.193 C  
HETATM   19  C   UNL     1      -9.618   5.528  72.623  1.00  0.00    -0.150 C  
HETATM   20  C   UNL     1     -11.545   6.445  70.641  1.00  0.00    -0.412 C  
HETATM   21  C   UNL     1     -10.035   6.389  70.412  1.00  0.00    -0.183 C  
ENDBRANCH  14  15
ENDBRANCH  13  14
ENDBRANCH   4  13
BRANCH   5  22
HETATM   22  N   UNL     1     -11.473  14.792  69.322  1.00  0.00    -0.279 NA 
HETATM   23  H   UNL     1     -10.961  15.658  69.487  1.00  0.00     0.000 HD 
BRANCH  22  24
HETATM   24  C   UNL     1     -11.312  14.181  68.056  1.00  0.00    -0.299 A  
HETATM   25  C   UNL     1     -10.035  13.831  67.595  1.00  0.00    -0.238 A  
HETATM   26  F   UNL     1      -8.972  13.997  68.397  1.00  0.00    -0.174 F  
HETATM   27  C   UNL     1      -9.831  13.315  66.312  1.00  0.00    -0.288 A  
HETATM   28  C   UNL     1     -10.921  13.161  65.464  1.00  0.00    -0.277 A  
HETATM   29 BR   UNL     1     -10.676  12.494  63.712  1.00  0.00    -0.474 Br 
HETATM   30  C   UNL     1     -12.199  13.531  65.884  1.00  0.00    -0.507 A  
HETATM   31  C   UNL     1     -12.389  14.043  67.171  1.00  0.00    -0.234 A  
ENDBRANCH  22  24
ENDBRANCH   5  22
ENDBRANCH   2   3
TORSDOF 6
ENDMDL
MODEL       35
REMARK 921   NORMALIZED FREE ENERGY PREDICTED BY IDOCK:   -6.47 KCAL/MOL
REMARK 922        TOTAL FREE ENERGY PREDICTED BY IDOCK:   -9.79 KCAL/MOL
REMARK 923 INTER-LIGAND FREE ENERGY PREDICTED BY IDOCK:   -9.07 KCAL/MOL
REMARK 924 INTRA-LIGAND FREE ENERGY PREDICTED BY IDOCK:   -0.72 KCAL/MOL
REMARK 927      BINDING AFFINITY PREDICTED BY RF-SCORE:    0.00 PKD
ROOT
HETATM    1  C   UNL     1     -11.368  15.996  70.767  1.00  0.00    -0.398 C  
HETATM    2  O   UNL     1     -10.720  14.724  70.689  1.00  0.00    -0.018 OA 
ENDROOT
BRANCH   2   3
HETATM    3  C   UNL     1     -10.956  13.965  69.573  1.00  0.00    -0.063 A  
HETATM    4  C   UNL     1     -11.836  12.876  69.647  1.00  0.00    -0.320 A  
HETATM    5  C   UNL     1     -10.137  13.757  65.887  1.00  0.00    -0.313 A  
HETATM    6  C   UNL     1     -12.077  12.108  68.494  1.00  0.00    -0.115 A  
HETATM    7  N   UNL     1     -10.489  13.035  64.810  1.00  0.00    -0.346 NA 
HETATM    8  C   UNL     1     -11.522  12.405  67.258  1.00  0.00    -0.354 A  
HETATM    9  C   UNL     1     -10.373  14.254  68.330  1.00  0.00    -0.242 A  
HETATM   10  N   UNL     1     -11.856  11.662  66.196  1.00  0.00    -0.338 NA 
HETATM   11  C   UNL     1     -10.645  13.486  67.170  1.00  0.00    -0.264 A  
HETATM   12  C   UNL     1     -11.334  12.022  65.020  1.00  0.00    -0.310 A  
BRANCH   4  13
HETATM   13  O   UNL     1     -12.503  12.372  70.737  1.00  0.00    -0.349 OA 
BRANCH  13  14
HETATM   14  C   UNL     1     -13.000  11.038  70.673  1.00  0.00    -0.131 C  
BRANCH  14  15
HETATM   15  C   UNL     1     -12.260  10.154  71.711  1.00  0.00    -0.338 C  
HETATM   16  N   UNL     1     -12.124   7.218  71.109  1.00  0.00    -0.329 NA 
HETATM   17  C   UNL     1     -10.963   9.475  71.216  1.00  0.00    -0.440 C  
HETATM   18  C   UNL     1     -11.613   6.535  72.297  1.00  0.00    -0.292 C  
HETATM   19  C   UNL     1     -11.151   8.130  70.500  1.00  0.00    -0.253 C  
HETATM   20  C   UNL     1     -13.222   9.113  72.298  1.00  0.00    -0.528 C  
HETATM   21  C   UNL     1     -13.388   7.910  71.369  1.00  0.00    -0.239 C  
ENDBRANCH  14  15
ENDBRANCH  13  14
ENDBRANCH   4  13
BRANCH   5  22
HETATM   22  N   UNL     1      -9.199  14.807  65.722  1.00  0.00    -0.488 NA 
HETATM   23  H   UNL     1      -8.325  14.579  65.250  1.00  0.00     0.000 HD 
BRANCH  22  24
HETATM   24  C   UNL     1      -9.366  16.143  66.155  1.00  0.00    -0.336 A  
HETATM   25  C   UNL     1     -10.393  16.937  65.623  1.00  0.00    -0.237 A  
HETATM   26  F   UNL     1     -11.273  16.396  64.767  1.00  0.00    -0.415 F  
HETATM   27  C   UNL     1     -10.527  18.288  65.955  1.00  0.00    -0.380 A  
HETATM   28  C   UNL     1      -9.608  18.865  66.823  1.00  0.00    -0.324 A  
HETATM   29 BR   UNL     1      -9.742  20.697  67.270  1.00  0.00    -0.438 Br 
HETATM   30  C   UNL     1      -8.556  18.109  67.343  1.00  0.00    -0.244 A  
HETATM   31  C   UNL     1      -8.437  16.757  67.003  1.00  0.00    -0.225 A  
ENDBRANCH  22  24
ENDBRANCH   5  22
ENDBRANCH   2   3
TORSDOF 6
ENDMDL
MODEL       36
REMARK 921   NORMALIZED FREE ENERGY PREDICTED BY IDOCK:   -6.43 KCAL/MOL
REMARK 922        TOTAL FREE ENERGY PREDICTED BY IDOCK:   -9.74 KCAL/MOL
REMARK 923 INTER-LIGAND FREE ENERGY PREDICTED BY IDOCK:   -8.84 KCAL/MOL
REMARK 924 INTRA-LIGAND FREE ENERGY PREDICTED BY IDOCK:   -0.90 KCAL/MOL
REMARK 927      BINDING AFFINITY PREDICTED BY RF-SCORE:    0.00 PKD
ROOT
HETATM    1  C   UNL     1      -7.943  13.934  68.615  1.00  0.00    -0.109 C  
HETATM    2  O   UNL     1      -9.350  14.082  68.819  1.00  0.00    -0.164 OA 
ENDROOT
BRANCH   2   3
HETATM    3  C   UNL     1     -10.174  13.774  67.768  1.00  0.00    -0.241 A  
HETATM    4  C   UNL     1     -11.327  14.538  67.542  1.00  0.00    -0.340 A  
HETATM    5  C   UNL     1     -10.475  11.442  64.806  1.00  0.00    -0.308 A  
HETATM    6  C   UNL     1     -12.163  14.218  66.458  1.00  0.00    -0.419 A  
HETATM    7  N   UNL     1     -11.271  11.256  63.739  1.00  0.00    -0.280 NA 
HETATM    8  C   UNL     1     -11.876  13.203  65.556  1.00  0.00    -0.380 A  
HETATM    9  C   UNL     1      -9.893  12.730  66.873  1.00  0.00    -0.236 A  
HETATM   10  N   UNL     1     -12.690  13.008  64.512  1.00  0.00    -0.701 NA 
HETATM   11  C   UNL     1     -10.731  12.436  65.769  1.00  0.00    -0.301 A  
HETATM   12  C   UNL     1     -12.340  12.052  63.646  1.00  0.00    -0.539 A  
BRANCH   4  13
HETATM   13  O   UNL     1     -11.837  15.579  68.280  1.00  0.00    -0.330 OA 
BRANCH  13  14
HETATM   14  C   UNL     1     -10.939  16.577  68.758  1.00  0.00    -0.330 C  
BRANCH  14  15
HETATM   15  C   UNL     1     -10.344  17.362  67.558  1.00  0.00    -0.351 C  
HETATM   16  N   UNL     1      -8.581  19.694  68.231  1.00  0.00    -0.329 NA 
HETATM   17  C   UNL     1      -8.807  17.301  67.408  1.00  0.00    -0.222 C  
HETATM   18  C   UNL     1      -8.322  20.436  66.998  1.00  0.00    -0.284 C  
HETATM   19  C   UNL     1      -8.021  18.339  68.221  1.00  0.00    -0.300 C  
HETATM   20  C   UNL     1     -10.824  18.818  67.590  1.00  0.00    -0.382 C  
HETATM   21  C   UNL     1     -10.005  19.661  68.568  1.00  0.00    -0.443 C  
ENDBRANCH  14  15
ENDBRANCH  13  14
ENDBRANCH   4  13
BRANCH   5  22
HETATM   22  N   UNL     1      -9.360  10.584  64.978  1.00  0.00    -0.203 NA 
HETATM   23  H   UNL     1      -8.457  10.926  64.651  1.00  0.00     0.000 HD 
BRANCH  22  24
HETATM   24  C   UNL     1      -9.388   9.296  65.562  1.00  0.00    -0.238 A  
HETATM   25  C   UNL     1      -8.509   8.297  65.118  1.00  0.00    -0.146 A  
HETATM   26  F   UNL     1      -7.578   8.594  64.198  1.00  0.00    -0.100 F  
HETATM   27  C   UNL     1      -8.574   6.988  65.605  1.00  0.00    -0.121 A  
HETATM   28  C   UNL     1      -9.548   6.664  66.540  1.00  0.00    -0.140 A  
HETATM   29 BR   UNL     1      -9.684   4.896  67.197  1.00  0.00    -0.217 Br 
HETATM   30  C   UNL     1     -10.458   7.628  66.976  1.00  0.00    -0.419 A  
HETATM   31  C   UNL     1     -10.378   8.934  66.483  1.00  0.00    -0.267 A  
ENDBRANCH  22  24
ENDBRANCH   5  22
ENDBRANCH   2   3
TORSDOF 6
ENDMDL
MODEL       37
REMARK 921   NORMALIZED FREE ENERGY PREDICTED BY IDOCK:   -6.42 KCAL/MOL
REMARK 922        TOTAL FREE ENERGY PREDICTED BY IDOCK:   -9.72 KCAL/MOL
REMARK 923 INTER-LIGAND FREE ENERGY PREDICTED BY IDOCK:   -8.74 KCAL/MOL
REMARK 924 INTRA-LIGAND FREE ENERGY PREDICTED BY IDOCK:   -0.98 KCAL/MOL
REMARK 927      BINDING AFFINITY PREDICTED BY RF-SCORE:    0.00 PKD
ROOT
HETATM    1  C   UNL     1      -6.040  11.381  66.743  1.00  0.00    -0.145 C  
HETATM    2  O   UNL     1      -7.289  11.058  67.358  1.00  0.00    -0.096 OA 
ENDROOT
BRANCH   2   3
HETATM    3  C   UNL     1      -8.430  11.339  66.652  1.00  0.00    -0.168 A  
HETATM    4  C   UNL     1      -8.842  10.476  65.627  1.00  0.00    -0.182 A  
HETATM    5  C   UNL     1     -11.308  13.787  66.497  1.00  0.00    -0.325 A  
HETATM    6  C   UNL     1     -10.017  10.769  64.913  1.00  0.00    -0.374 A  
HETATM    7  N   UNL     1     -12.465  13.950  65.835  1.00  0.00    -0.481 NA 
HETATM    8  C   UNL     1     -10.829  11.855  65.207  1.00  0.00    -0.297 A  
HETATM    9  C   UNL     1      -9.235  12.453  66.936  1.00  0.00    -0.209 A  
HETATM   10  N   UNL     1     -11.966  12.025  64.522  1.00  0.00    -0.304 NA 
HETATM   11  C   UNL     1     -10.431  12.721  66.224  1.00  0.00    -0.273 A  
HETATM   12  C   UNL     1     -12.737  13.057  64.879  1.00  0.00    -0.390 A  
BRANCH   4  13
HETATM   13  O   UNL     1      -8.224   9.350  65.139  1.00  0.00    -0.123 OA 
BRANCH  13  14
HETATM   14  C   UNL     1      -8.661   8.077  65.608  1.00  0.00    -0.145 C  
BRANCH  14  15
HETATM   15  C   UNL     1      -9.319   8.232  67.005  1.00  0.00    -0.203 C  
HETATM   16  N   UNL     1     -10.303   5.713  68.303  1.00  0.00    -0.192 NA 
HETATM   17  C   UNL     1      -8.570   7.566  68.181  1.00  0.00    -0.123 C  
HETATM   18  C   UNL     1     -11.094   6.087  69.475  1.00  0.00    -0.398 C  
HETATM   19  C   UNL     1      -8.889   6.083  68.414  1.00  0.00    -0.112 C  
HETATM   20  C   UNL     1     -10.777   7.755  66.956  1.00  0.00    -0.316 C  
HETATM   21  C   UNL     1     -10.877   6.234  67.060  1.00  0.00    -0.383 C  
ENDBRANCH  14  15
ENDBRANCH  13  14
ENDBRANCH   4  13
BRANCH   5  22
HETATM   22  N   UNL     1     -10.950  14.742  67.482  1.00  0.00    -0.294 NA 
HETATM   23  H   UNL     1     -10.268  15.452  67.214  1.00  0.00     0.000 HD 
BRANCH  22  24
HETATM   24  C   UNL     1     -11.453  14.800  68.802  1.00  0.00    -0.301 A  
HETATM   25  C   UNL     1     -11.363  15.986  69.544  1.00  0.00    -0.344 A  
HETATM   26  F   UNL     1     -10.877  17.095  68.965  1.00  0.00    -0.310 F  
HETATM   27  C   UNL     1     -11.762  16.050  70.883  1.00  0.00    -0.438 A  
HETATM   28  C   UNL     1     -12.245  14.903  71.499  1.00  0.00    -0.343 A  
HETATM   29 BR   UNL     1     -12.765  14.947  73.316  1.00  0.00    -0.626 Br 
HETATM   30  C   UNL     1     -12.316  13.700  70.796  1.00  0.00    -0.446 A  
HETATM   31  C   UNL     1     -11.916  13.651  69.457  1.00  0.00    -0.397 A  
ENDBRANCH  22  24
ENDBRANCH   5  22
ENDBRANCH   2   3
TORSDOF 6
ENDMDL
MODEL       38
REMARK 921   NORMALIZED FREE ENERGY PREDICTED BY IDOCK:   -6.42 KCAL/MOL
REMARK 922        TOTAL FREE ENERGY PREDICTED BY IDOCK:   -9.72 KCAL/MOL
REMARK 923 INTER-LIGAND FREE ENERGY PREDICTED BY IDOCK:   -8.53 KCAL/MOL
REMARK 924 INTRA-LIGAND FREE ENERGY PREDICTED BY IDOCK:   -1.19 KCAL/MOL
REMARK 927      BINDING AFFINITY PREDICTED BY RF-SCORE:    0.00 PKD
ROOT
HETATM    1  C   UNL     1     -14.266   9.073  72.429  1.00  0.00    -0.339 C  
HETATM    2  O   UNL     1     -13.356  10.162  72.267  1.00  0.00    -0.415 OA 
ENDROOT
BRANCH   2   3
HETATM    3  C   UNL     1     -12.287   9.970  71.431  1.00  0.00    -0.415 A  
HETATM    4  C   UNL     1     -11.293   9.045  71.775  1.00  0.00    -0.377 A  
HETATM    5  C   UNL     1     -10.912  11.024  68.069  1.00  0.00    -0.258 A  
HETATM    6  C   UNL     1     -10.204   8.850  70.907  1.00  0.00    -0.304 A  
HETATM    7  N   UNL     1      -9.893  10.716  67.250  1.00  0.00    -0.172 NA 
HETATM    8  C   UNL     1     -10.086   9.498  69.686  1.00  0.00    -0.212 A  
HETATM    9  C   UNL     1     -12.159  10.646  70.207  1.00  0.00    -0.423 A  
HETATM   10  N   UNL     1      -9.051   9.205  68.889  1.00  0.00    -0.139 NA 
HETATM   11  C   UNL     1     -11.068  10.421  69.331  1.00  0.00    -0.304 A  
HETATM   12  C   UNL     1      -9.012   9.819  67.702  1.00  0.00    -0.128 A  
BRANCH   4  13
HETATM   13  O   UNL     1     -11.170   8.287  72.915  1.00  0.00    -0.337 OA 
BRANCH  13  14
HETATM   14  C   UNL     1      -9.899   7.719  73.220  1.00  0.00    -0.299 C  
BRANCH  14  15
HETATM   15  C   UNL     1     -10.080   6.245  73.671  1.00  0.00    -0.241 C  
HETATM   16  N   UNL     1      -9.678   4.146  71.566  1.00  0.00    -0.164 NA 
HETATM   17  C   UNL     1      -8.812   5.364  73.620  1.00  0.00    -0.125 C  
HETATM   18  C   UNL     1     -10.123   2.865  72.113  1.00  0.00    -0.135 C  
HETATM   19  C   UNL     1      -8.518   4.705  72.265  1.00  0.00    -0.118 C  
HETATM   20  C   UNL     1     -11.223   5.590  72.885  1.00  0.00    -0.358 C  
HETATM   21  C   UNL     1     -10.764   5.127  71.502  1.00  0.00    -0.095 C  
ENDBRANCH  14  15
ENDBRANCH  13  14
ENDBRANCH   4  13
BRANCH   5  22
HETATM   22  N   UNL     1     -11.840  12.013  67.655  1.00  0.00    -0.564 NA 
HETATM   23  H   UNL     1     -12.737  11.686  67.298  1.00  0.00     0.000 HD 
BRANCH  22  24
HETATM   24  C   UNL     1     -11.633  13.411  67.694  1.00  0.00    -0.340 A  
HETATM   25  C   UNL     1     -11.090  14.078  66.587  1.00  0.00    -0.309 A  
HETATM   26  F   UNL     1     -10.851  13.398  65.455  1.00  0.00    -0.280 F  
HETATM   27  C   UNL     1     -10.782  15.442  66.625  1.00  0.00    -0.309 A  
HETATM   28  C   UNL     1     -11.004  16.151  67.799  1.00  0.00    -0.293 A  
HETATM   29 BR   UNL     1     -10.572  17.989  67.896  1.00  0.00    -0.333 Br 
HETATM   30  C   UNL     1     -11.513  15.507  68.928  1.00  0.00    -0.362 A  
HETATM   31  C   UNL     1     -11.818  14.143  68.873  1.00  0.00    -0.382 A  
ENDBRANCH  22  24
ENDBRANCH   5  22
ENDBRANCH   2   3
TORSDOF 6
ENDMDL
MODEL       39
REMARK 921   NORMALIZED FREE ENERGY PREDICTED BY IDOCK:   -6.41 KCAL/MOL
REMARK 922        TOTAL FREE ENERGY PREDICTED BY IDOCK:   -9.70 KCAL/MOL
REMARK 923 INTER-LIGAND FREE ENERGY PREDICTED BY IDOCK:   -8.36 KCAL/MOL
REMARK 924 INTRA-LIGAND FREE ENERGY PREDICTED BY IDOCK:   -1.34 KCAL/MOL
REMARK 927      BINDING AFFINITY PREDICTED BY RF-SCORE:    0.00 PKD
ROOT
HETATM    1  C   UNL     1     -13.264   9.936  71.425  1.00  0.00    -0.400 C  
HETATM    2  O   UNL     1     -12.025  10.585  71.127  1.00  0.00    -0.352 OA 
ENDROOT
BRANCH   2   3
HETATM    3  C   UNL     1     -11.541  10.460  69.851  1.00  0.00    -0.284 A  
HETATM    4  C   UNL     1     -10.866   9.291  69.475  1.00  0.00    -0.195 A  
HETATM    5  C   UNL     1     -11.447  12.241  66.516  1.00  0.00    -0.381 A  
HETATM    6  C   UNL     1     -10.379   9.170  68.162  1.00  0.00    -0.263 A  
HETATM    7  N   UNL     1     -11.035  12.014  65.258  1.00  0.00    -0.300 NA 
HETATM    8  C   UNL     1     -10.578  10.139  67.190  1.00  0.00    -0.246 A  
HETATM    9  C   UNL     1     -11.723  11.455  68.877  1.00  0.00    -0.409 A  
HETATM   10  N   UNL     1     -10.139   9.916  65.945  1.00  0.00    -0.268 NA 
HETATM   11  C   UNL     1     -11.248  11.308  67.550  1.00  0.00    -0.357 A  
HETATM   12  C   UNL     1     -10.402  10.859  65.036  1.00  0.00    -0.288 A  
BRANCH   4  13
HETATM   13  O   UNL     1     -10.535   8.197  70.238  1.00  0.00    -0.210 OA 
BRANCH  13  14
HETATM   14  C   UNL     1     -11.085   6.931  69.886  1.00  0.00    -0.288 C  
BRANCH  14  15
HETATM   15  C   UNL     1     -10.012   5.825  70.069  1.00  0.00    -0.251 C  
HETATM   16  N   UNL     1      -8.068   5.464  67.813  1.00  0.00    -0.100 NA 
HETATM   17  C   UNL     1      -8.549   6.313  70.158  1.00  0.00    -0.134 C  
HETATM   18  C   UNL     1      -7.308   4.240  68.062  1.00  0.00    -0.064 C  
HETATM   19  C   UNL     1      -7.833   6.508  68.814  1.00  0.00    -0.110 C  
HETATM   20  C   UNL     1     -10.158   4.761  68.973  1.00  0.00    -0.171 C  
HETATM   21  C   UNL     1      -9.502   5.204  67.666  1.00  0.00    -0.127 C  
ENDBRANCH  14  15
ENDBRANCH  13  14
ENDBRANCH   4  13
BRANCH   5  22
HETATM   22  N   UNL     1     -12.074  13.478  66.812  1.00  0.00    -0.390 NA 
HETATM   23  H   UNL     1     -13.088  13.519  66.716  1.00  0.00     0.000 HD 
BRANCH  22  24
HETATM   24  C   UNL     1     -11.419  14.660  67.229  1.00  0.00    -0.372 A  
HETATM   25  C   UNL     1     -11.619  15.163  68.523  1.00  0.00    -0.335 A  
HETATM   26  F   UNL     1     -12.366  14.468  69.395  1.00  0.00    -0.342 F  
HETATM   27  C   UNL     1     -11.065  16.378  68.936  1.00  0.00    -0.328 A  
HETATM   28  C   UNL     1     -10.310  17.117  68.033  1.00  0.00    -0.353 A  
HETATM   29 BR   UNL     1      -9.571  18.779  68.549  1.00  0.00    -0.436 Br 
HETATM   30  C   UNL     1     -10.120  16.658  66.729  1.00  0.00    -0.293 A  
HETATM   31  C   UNL     1     -10.678  15.439  66.332  1.00  0.00    -0.311 A  
ENDBRANCH  22  24
ENDBRANCH   5  22
ENDBRANCH   2   3
TORSDOF 6
ENDMDL
MODEL       40
REMARK 921   NORMALIZED FREE ENERGY PREDICTED BY IDOCK:   -6.31 KCAL/MOL
REMARK 922        TOTAL FREE ENERGY PREDICTED BY IDOCK:   -9.57 KCAL/MOL
REMARK 923 INTER-LIGAND FREE ENERGY PREDICTED BY IDOCK:   -8.35 KCAL/MOL
REMARK 924 INTRA-LIGAND FREE ENERGY PREDICTED BY IDOCK:   -1.22 KCAL/MOL
REMARK 927      BINDING AFFINITY PREDICTED BY RF-SCORE:    0.00 PKD
ROOT
HETATM    1  C   UNL     1     -10.876  13.928  64.743  1.00  0.00    -0.419 C  
HETATM    2  O   UNL     1     -11.164  14.855  65.792  1.00  0.00    -0.335 OA 
ENDROOT
BRANCH   2   3
HETATM    3  C   UNL     1     -11.413  14.339  67.037  1.00  0.00    -0.361 A  
HETATM    4  C   UNL     1     -11.707  15.203  68.101  1.00  0.00    -0.302 A  
HETATM    5  C   UNL     1     -11.789  11.057  68.878  1.00  0.00    -0.308 A  
HETATM    6  C   UNL     1     -11.968  14.664  69.373  1.00  0.00    -0.351 A  
HETATM    7  N   UNL     1     -12.139  10.614  70.097  1.00  0.00    -0.315 NA 
HETATM    8  C   UNL     1     -12.001  13.299  69.623  1.00  0.00    -0.314 A  
HETATM    9  C   UNL     1     -11.421  12.959  67.291  1.00  0.00    -0.388 A  
HETATM   10  N   UNL     1     -12.323  12.868  70.848  1.00  0.00    -0.350 NA 
HETATM   11  C   UNL     1     -11.711  12.428  68.573  1.00  0.00    -0.373 A  
HETATM   12  C   UNL     1     -12.391  11.544  71.022  1.00  0.00    -0.329 A  
BRANCH   4  13
HETATM   13  O   UNL     1     -11.732  16.576  68.121  1.00  0.00    -0.062 OA 
BRANCH  13  14
HETATM   14  C   UNL     1     -10.633  17.268  68.707  1.00  0.00    -0.305 C  
BRANCH  14  15
HETATM   15  C   UNL     1      -9.467  17.357  67.687  1.00  0.00    -0.251 C  
HETATM   16  N   UNL     1      -7.972  19.956  67.590  1.00  0.00    -0.286 NA 
HETATM   17  C   UNL     1      -8.053  17.516  68.290  1.00  0.00    -0.268 C  
HETATM   18  C   UNL     1      -7.091  19.929  66.423  1.00  0.00    -0.242 C  
HETATM   19  C   UNL     1      -7.626  18.956  68.604  1.00  0.00    -0.331 C  
HETATM   20  C   UNL     1      -9.744  18.467  66.665  1.00  0.00    -0.353 C  
HETATM   21  C   UNL     1      -9.385  19.846  67.219  1.00  0.00    -0.356 C  
ENDBRANCH  14  15
ENDBRANCH  13  14
ENDBRANCH   4  13
BRANCH   5  22
HETATM   22  N   UNL     1     -11.458  10.106  67.880  1.00  0.00    -0.636 NA 
HETATM   23  H   UNL     1     -12.066  10.061  67.063  1.00  0.00     0.000 HD 
BRANCH  22  24
HETATM   24  C   UNL     1     -10.360   9.215  67.916  1.00  0.00    -0.232 A  
HETATM   25  C   UNL     1      -9.098   9.627  67.464  1.00  0.00    -0.130 A  
HETATM   26  F   UNL     1      -8.914  10.899  67.080  1.00  0.00    -0.136 F  
HETATM   27  C   UNL     1      -8.016   8.744  67.395  1.00  0.00    -0.098 A  
HETATM   28  C   UNL     1      -8.201   7.419  67.768  1.00  0.00    -0.119 A  
HETATM   29 BR   UNL     1      -6.767   6.191  67.658  1.00  0.00    -0.060 Br 
HETATM   30  C   UNL     1      -9.454   6.972  68.190  1.00  0.00    -0.123 A  
HETATM   31  C   UNL     1     -10.526   7.867  68.257  1.00  0.00    -0.212 A  
ENDBRANCH  22  24
ENDBRANCH   5  22
ENDBRANCH   2   3
TORSDOF 6
ENDMDL
MODEL       41
REMARK 921   NORMALIZED FREE ENERGY PREDICTED BY IDOCK:   -6.29 KCAL/MOL
REMARK 922        TOTAL FREE ENERGY PREDICTED BY IDOCK:   -9.55 KCAL/MOL
REMARK 923 INTER-LIGAND FREE ENERGY PREDICTED BY IDOCK:   -8.22 KCAL/MOL
REMARK 924 INTRA-LIGAND FREE ENERGY PREDICTED BY IDOCK:   -1.33 KCAL/MOL
REMARK 927      BINDING AFFINITY PREDICTED BY RF-SCORE:    0.00 PKD
ROOT
HETATM    1  C   UNL     1     -12.657  13.758  65.534  1.00  0.00    -0.512 C  
HETATM    2  O   UNL     1     -12.128  14.130  66.809  1.00  0.00    -0.429 OA 
ENDROOT
BRANCH   2   3
HETATM    3  C   UNL     1     -10.765  14.134  66.948  1.00  0.00    -0.286 A  
HETATM    4  C   UNL     1     -10.067  15.350  66.920  1.00  0.00    -0.257 A  
HETATM    5  C   UNL     1      -7.833  11.836  67.596  1.00  0.00    -0.138 A  
HETATM    6  C   UNL     1      -8.669  15.344  67.071  1.00  0.00    -0.256 A  
HETATM    7  N   UNL     1      -6.512  11.919  67.825  1.00  0.00    -0.075 NA 
HETATM    8  C   UNL     1      -7.939  14.187  67.300  1.00  0.00    -0.150 A  
HETATM    9  C   UNL     1     -10.027  12.959  67.155  1.00  0.00    -0.240 A  
HETATM   10  N   UNL     1      -6.618  14.277  67.499  1.00  0.00    -0.287 NA 
HETATM   11  C   UNL     1      -8.621  12.971  67.330  1.00  0.00    -0.199 A  
HETATM   12  C   UNL     1      -5.970  13.139  67.766  1.00  0.00    -0.148 A  
BRANCH   4  13
HETATM   13  O   UNL     1     -10.545  16.619  66.704  1.00  0.00    -0.286 OA 
BRANCH  13  14
HETATM   14  C   UNL     1     -10.820  17.443  67.834  1.00  0.00    -0.270 C  
BRANCH  14  15
HETATM   15  C   UNL     1     -10.401  18.906  67.529  1.00  0.00    -0.496 C  
HETATM   16  N   UNL     1      -7.453  19.449  67.394  1.00  0.00    -0.229 NA 
HETATM   17  C   UNL     1      -9.666  19.131  66.188  1.00  0.00    -0.360 C  
HETATM   18  C   UNL     1      -7.262  20.898  67.341  1.00  0.00    -0.340 C  
HETATM   19  C   UNL     1      -8.148  18.911  66.220  1.00  0.00    -0.269 C  
HETATM   20  C   UNL     1      -9.579  19.473  68.694  1.00  0.00    -0.483 C  
HETATM   21  C   UNL     1      -8.120  19.024  68.627  1.00  0.00    -0.361 C  
ENDBRANCH  14  15
ENDBRANCH  13  14
ENDBRANCH   4  13
BRANCH   5  22
HETATM   22  N   UNL     1      -8.441  10.555  67.592  1.00  0.00    -0.115 NA 
HETATM   23  H   UNL     1      -8.448  10.047  66.708  1.00  0.00     0.000 HD 
BRANCH  22  24
HETATM   24  C   UNL     1      -9.039   9.919  68.705  1.00  0.00    -0.147 A  
HETATM   25  C   UNL     1     -10.417   9.657  68.716  1.00  0.00    -0.215 A  
HETATM   26  F   UNL     1     -11.152   9.931  67.627  1.00  0.00    -0.331 F  
HETATM   27  C   UNL     1     -11.056   9.119  69.836  1.00  0.00    -0.175 A  
HETATM   28  C   UNL     1     -10.309   8.853  70.977  1.00  0.00    -0.253 A  
HETATM   29 BR   UNL     1     -11.147   8.153  72.521  1.00  0.00    -0.439 Br 
HETATM   30  C   UNL     1      -8.943   9.134  71.008  1.00  0.00    -0.281 A  
HETATM   31  C   UNL     1      -8.316   9.669  69.878  1.00  0.00    -0.195 A  
ENDBRANCH  22  24
ENDBRANCH   5  22
ENDBRANCH   2   3
TORSDOF 6
ENDMDL
MODEL       42
REMARK 921   NORMALIZED FREE ENERGY PREDICTED BY IDOCK:   -6.27 KCAL/MOL
REMARK 922        TOTAL FREE ENERGY PREDICTED BY IDOCK:   -9.52 KCAL/MOL
REMARK 923 INTER-LIGAND FREE ENERGY PREDICTED BY IDOCK:   -8.59 KCAL/MOL
REMARK 924 INTRA-LIGAND FREE ENERGY PREDICTED BY IDOCK:   -0.93 KCAL/MOL
REMARK 927      BINDING AFFINITY PREDICTED BY RF-SCORE:    0.00 PKD
ROOT
HETATM    1  C   UNL     1      -6.834  11.882  68.809  1.00  0.00    -0.093 C  
HETATM    2  O   UNL     1      -8.062  11.201  69.073  1.00  0.00    -0.139 OA 
ENDROOT
BRANCH   2   3
HETATM    3  C   UNL     1      -9.139  11.517  68.287  1.00  0.00    -0.185 A  
HETATM    4  C   UNL     1     -10.307  10.747  68.367  1.00  0.00    -0.180 A  
HETATM    5  C   UNL     1     -10.344  14.080  65.780  1.00  0.00    -0.319 A  
HETATM    6  C   UNL     1     -11.409  11.084  67.562  1.00  0.00    -0.332 A  
HETATM    7  N   UNL     1     -11.467  14.394  65.113  1.00  0.00    -0.347 NA 
HETATM    8  C   UNL     1     -11.420  12.185  66.717  1.00  0.00    -0.356 A  
HETATM    9  C   UNL     1      -9.137  12.617  67.416  1.00  0.00    -0.191 A  
HETATM   10  N   UNL     1     -12.534  12.474  66.035  1.00  0.00    -0.469 NA 
HETATM   11  C   UNL     1     -10.264  12.960  66.629  1.00  0.00    -0.251 A  
HETATM   12  C   UNL     1     -12.508  13.574  65.276  1.00  0.00    -0.482 A  
BRANCH   4  13
HETATM   13  O   UNL     1     -10.552   9.617  69.108  1.00  0.00    -0.209 OA 
BRANCH  13  14
HETATM   14  C   UNL     1     -11.487   9.696  70.181  1.00  0.00    -0.189 C  
BRANCH  14  15
HETATM   15  C   UNL     1     -10.872   9.065  71.458  1.00  0.00    -0.416 C  
HETATM   16  N   UNL     1     -11.216   6.102  71.783  1.00  0.00    -0.274 NA 
HETATM   17  C   UNL     1      -9.711   8.072  71.228  1.00  0.00    -0.199 C  
HETATM   18  C   UNL     1     -10.793   5.743  73.135  1.00  0.00    -0.276 C  
HETATM   19  C   UNL     1     -10.126   6.620  70.951  1.00  0.00    -0.187 C  
HETATM   20  C   UNL     1     -11.972   8.418  72.309  1.00  0.00    -0.455 C  
HETATM   21  C   UNL     1     -12.348   7.032  71.786  1.00  0.00    -0.354 C  
ENDBRANCH  14  15
ENDBRANCH  13  14
ENDBRANCH   4  13
BRANCH   5  22
HETATM   22  N   UNL     1      -9.195  14.889  65.594  1.00  0.00    -0.422 NA 
HETATM   23  H   UNL     1      -8.636  14.717  64.759  1.00  0.00     0.000 HD 
BRANCH  22  24
HETATM   24  C   UNL     1      -8.755  15.915  66.463  1.00  0.00    -0.315 A  
HETATM   25  C   UNL     1      -9.477  17.112  66.569  1.00  0.00    -0.273 A  
HETATM   26  F   UNL     1     -10.638  17.247  65.910  1.00  0.00    -0.349 F  
HETATM   27  C   UNL     1      -9.020  18.183  67.343  1.00  0.00    -0.256 A  
HETATM   28  C   UNL     1      -7.807  18.064  68.011  1.00  0.00    -0.256 A  
HETATM   29 BR   UNL     1      -7.145  19.503  69.042  1.00  0.00    -0.390 Br 
HETATM   30  C   UNL     1      -7.051  16.897  67.899  1.00  0.00    -0.162 A  
HETATM   31  C   UNL     1      -7.523  15.833  67.123  1.00  0.00    -0.259 A  
ENDBRANCH  22  24
ENDBRANCH   5  22
ENDBRANCH   2   3
TORSDOF 6
ENDMDL
MODEL       43
REMARK 921   NORMALIZED FREE ENERGY PREDICTED BY IDOCK:   -6.27 KCAL/MOL
REMARK 922        TOTAL FREE ENERGY PREDICTED BY IDOCK:   -9.51 KCAL/MOL
REMARK 923 INTER-LIGAND FREE ENERGY PREDICTED BY IDOCK:   -8.60 KCAL/MOL
REMARK 924 INTRA-LIGAND FREE ENERGY PREDICTED BY IDOCK:   -0.91 KCAL/MOL
REMARK 927      BINDING AFFINITY PREDICTED BY RF-SCORE:    0.00 PKD
ROOT
HETATM    1  C   UNL     1     -10.258  10.884  64.674  1.00  0.00    -0.345 C  
HETATM    2  O   UNL     1      -9.859  10.210  65.869  1.00  0.00    -0.212 OA 
ENDROOT
BRANCH   2   3
HETATM    3  C   UNL     1     -10.449  10.605  67.041  1.00  0.00    -0.243 A  
HETATM    4  C   UNL     1     -10.515   9.713  68.120  1.00  0.00    -0.222 A  
HETATM    5  C   UNL     1     -12.033  13.605  68.713  1.00  0.00    -0.359 A  
HETATM    6  C   UNL     1     -11.116  10.130  69.321  1.00  0.00    -0.270 A  
HETATM    7  N   UNL     1     -12.506  13.960  69.919  1.00  0.00    -0.290 NA 
HETATM    8  C   UNL     1     -11.607  11.413  69.515  1.00  0.00    -0.331 A  
HETATM    9  C   UNL     1     -10.967  11.896  67.224  1.00  0.00    -0.319 A  
HETATM   10  N   UNL     1     -12.103  11.749  70.712  1.00  0.00    -0.327 NA 
HETATM   11  C   UNL     1     -11.547  12.311  68.449  1.00  0.00    -0.377 A  
HETATM   12  C   UNL     1     -12.516  13.011  70.860  1.00  0.00    -0.310 A  
BRANCH   4  13
HETATM   13  O   UNL     1     -10.113   8.401  68.187  1.00  0.00    -0.185 OA 
BRANCH  13  14
HETATM   14  C   UNL     1     -10.859   7.424  67.466  1.00  0.00    -0.187 C  
BRANCH  14  15
HETATM   15  C   UNL     1     -11.016   6.144  68.329  1.00  0.00    -0.397 C  
HETATM   16  N   UNL     1      -8.922   5.681  70.426  1.00  0.00    -0.139 NA 
HETATM   17  C   UNL     1     -11.293   6.374  69.832  1.00  0.00    -0.500 C  
HETATM   18  C   UNL     1      -9.103   4.331  70.957  1.00  0.00    -0.123 C  
HETATM   19  C   UNL     1     -10.050   6.574  70.710  1.00  0.00    -0.185 C  
HETATM   20  C   UNL     1      -9.801   5.227  68.139  1.00  0.00    -0.198 C  
HETATM   21  C   UNL     1      -8.616   5.676  68.994  1.00  0.00    -0.105 C  
ENDBRANCH  14  15
ENDBRANCH  13  14
ENDBRANCH   4  13
BRANCH   5  22
HETATM   22  N   UNL     1     -12.055  14.561  67.667  1.00  0.00    -0.588 NA 
HETATM   23  H   UNL     1     -12.837  14.517  67.014  1.00  0.00     0.000 HD 
BRANCH  22  24
HETATM   24  C   UNL     1     -11.090  15.572  67.448  1.00  0.00    -0.285 A  
HETATM   25  C   UNL     1     -10.223  15.498  66.349  1.00  0.00    -0.289 A  
HETATM   26  F   UNL     1     -10.371  14.510  65.454  1.00  0.00    -0.302 F  
HETATM   27  C   UNL     1      -9.196  16.427  66.157  1.00  0.00    -0.365 A  
HETATM   28  C   UNL     1      -9.018  17.441  67.091  1.00  0.00    -0.240 A  
HETATM   29 BR   UNL     1      -7.621  18.696  66.877  1.00  0.00    -0.243 Br 
HETATM   30  C   UNL     1      -9.845  17.521  68.212  1.00  0.00    -0.319 A  
HETATM   31  C   UNL     1     -10.870  16.586  68.389  1.00  0.00    -0.348 A  
ENDBRANCH  22  24
ENDBRANCH   5  22
ENDBRANCH   2   3
TORSDOF 6
ENDMDL
MODEL       44
REMARK 921   NORMALIZED FREE ENERGY PREDICTED BY IDOCK:   -6.25 KCAL/MOL
REMARK 922        TOTAL FREE ENERGY PREDICTED BY IDOCK:   -9.49 KCAL/MOL
REMARK 923 INTER-LIGAND FREE ENERGY PREDICTED BY IDOCK:   -8.29 KCAL/MOL
REMARK 924 INTRA-LIGAND FREE ENERGY PREDICTED BY IDOCK:   -1.20 KCAL/MOL
REMARK 927      BINDING AFFINITY PREDICTED BY RF-SCORE:    0.00 PKD
ROOT
HETATM    1  C   UNL     1      -7.140  14.699  69.226  1.00  0.00    -0.150 C  
HETATM    2  O   UNL     1      -8.450  15.183  69.528  1.00  0.00    -0.222 OA 
ENDROOT
BRANCH   2   3
HETATM    3  C   UNL     1      -9.458  14.854  68.659  1.00  0.00    -0.208 A  
HETATM    4  C   UNL     1     -10.434  15.806  68.335  1.00  0.00    -0.245 A  
HETATM    5  C   UNL     1     -10.667  12.051  66.426  1.00  0.00    -0.259 A  
HETATM    6  C   UNL     1     -11.460  15.462  67.437  1.00  0.00    -0.197 A  
HETATM    7  N   UNL     1     -11.622  11.828  65.508  1.00  0.00    -0.250 NA 
HETATM    8  C   UNL     1     -11.529  14.228  66.806  1.00  0.00    -0.367 A  
HETATM    9  C   UNL     1      -9.538  13.596  68.041  1.00  0.00    -0.216 A  
HETATM   10  N   UNL     1     -12.501  14.005  65.914  1.00  0.00    -0.491 NA 
HETATM   11  C   UNL     1     -10.564  13.272  67.119  1.00  0.00    -0.259 A  
HETATM   12  C   UNL     1     -12.492  12.819  65.297  1.00  0.00    -0.465 A  
BRANCH   4  13
HETATM   13  O   UNL     1     -10.596  17.082  68.819  1.00  0.00    -0.330 OA 
BRANCH  13  14
HETATM   14  C   UNL     1     -10.773  18.145  67.887  1.00  0.00    -0.311 C  
BRANCH  14  15
HETATM   15  C   UNL     1      -9.699  19.239  68.132  1.00  0.00    -0.441 C  
HETATM   16  N   UNL     1      -7.480  19.406  66.121  1.00  0.00    -0.272 NA 
HETATM   17  C   UNL     1      -9.630  20.365  67.076  1.00  0.00    -0.571 C  
HETATM   18  C   UNL     1      -6.460  20.314  66.647  1.00  0.00    -0.214 C  
HETATM   19  C   UNL     1      -8.760  20.066  65.847  1.00  0.00    -0.097 C  
HETATM   20  C   UNL     1      -8.321  18.593  68.321  1.00  0.00    -0.350 C  
HETATM   21  C   UNL     1      -7.676  18.238  66.982  1.00  0.00    -0.218 C  
ENDBRANCH  14  15
ENDBRANCH  13  14
ENDBRANCH   4  13
BRANCH   5  22
HETATM   22  N   UNL     1      -9.755  11.007  66.725  1.00  0.00    -0.190 NA 
HETATM   23  H   UNL     1      -8.799  11.115  66.386  1.00  0.00     0.000 HD 
BRANCH  22  24
HETATM   24  C   UNL     1     -10.052   9.830  67.450  1.00  0.00    -0.208 A  
HETATM   25  C   UNL     1      -9.819   9.771  68.831  1.00  0.00    -0.173 A  
HETATM   26  F   UNL     1      -9.397  10.867  69.480  1.00  0.00    -0.143 F  
HETATM   27  C   UNL     1     -10.010   8.594  69.561  1.00  0.00    -0.196 A  
HETATM   28  C   UNL     1     -10.424   7.447  68.896  1.00  0.00    -0.203 A  
HETATM   29 BR   UNL     1     -10.663   5.830  69.847  1.00  0.00    -0.406 Br 
HETATM   30  C   UNL     1     -10.633   7.466  67.517  1.00  0.00    -0.340 A  
HETATM   31  C   UNL     1     -10.441   8.652  66.800  1.00  0.00    -0.298 A  
ENDBRANCH  22  24
ENDBRANCH   5  22
ENDBRANCH   2   3
TORSDOF 6
ENDMDL
MODEL       45
REMARK 921   NORMALIZED FREE ENERGY PREDICTED BY IDOCK:   -6.23 KCAL/MOL
REMARK 922        TOTAL FREE ENERGY PREDICTED BY IDOCK:   -9.46 KCAL/MOL
REMARK 923 INTER-LIGAND FREE ENERGY PREDICTED BY IDOCK:   -8.33 KCAL/MOL
REMARK 924 INTRA-LIGAND FREE ENERGY PREDICTED BY IDOCK:   -1.13 KCAL/MOL
REMARK 927      BINDING AFFINITY PREDICTED BY RF-SCORE:    0.00 PKD
ROOT
HETATM    1  C   UNL     1      -7.844  10.988  68.799  1.00  0.00    -0.138 C  
HETATM    2  O   UNL     1      -9.214  10.642  68.584  1.00  0.00    -0.164 OA 
ENDROOT
BRANCH   2   3
HETATM    3  C   UNL     1      -9.755  10.942  67.361  1.00  0.00    -0.168 A  
HETATM    4  C   UNL     1      -9.522  10.091  66.271  1.00  0.00    -0.191 A  
HETATM    5  C   UNL     1     -12.028  13.426  65.641  1.00  0.00    -0.401 A  
HETATM    6  C   UNL     1     -10.087  10.404  65.022  1.00  0.00    -0.379 A  
HETATM    7  N   UNL     1     -12.609  13.608  64.443  1.00  0.00    -0.654 NA 
HETATM    8  C   UNL     1     -10.916  11.498  64.820  1.00  0.00    -0.273 A  
HETATM    9  C   UNL     1     -10.573  12.063  67.155  1.00  0.00    -0.255 A  
HETATM   10  N   UNL     1     -11.467  11.687  63.615  1.00  0.00    -0.416 NA 
HETATM   11  C   UNL     1     -11.157  12.352  65.897  1.00  0.00    -0.349 A  
HETATM   12  C   UNL     1     -12.299  12.725  63.489  1.00  0.00    -0.467 A  
BRANCH   4  13
HETATM   13  O   UNL     1      -8.743   8.962  66.203  1.00  0.00    -0.137 OA 
BRANCH  13  14
HETATM   14  C   UNL     1      -9.343   7.703  66.494  1.00  0.00    -0.189 C  
BRANCH  14  15
HETATM   15  C   UNL     1      -8.828   7.182  67.861  1.00  0.00    -0.124 C  
HETATM   16  N   UNL     1     -10.209   4.763  68.975  1.00  0.00    -0.109 NA 
HETATM   17  C   UNL     1      -8.174   5.782  67.847  1.00  0.00    -0.101 C  
HETATM   18  C   UNL     1      -9.756   4.576  70.352  1.00  0.00    -0.217 C  
HETATM   19  C   UNL     1      -9.141   4.598  67.984  1.00  0.00    -0.120 C  
HETATM   20  C   UNL     1      -9.951   7.240  68.905  1.00  0.00    -0.166 C  
HETATM   21  C   UNL     1     -10.894   6.043  68.786  1.00  0.00    -0.322 C  
ENDBRANCH  14  15
ENDBRANCH  13  14
ENDBRANCH   4  13
BRANCH   5  22
HETATM   22  N   UNL     1     -12.283  14.370  66.668  1.00  0.00    -0.481 NA 
HETATM   23  H   UNL     1     -13.181  14.304  67.145  1.00  0.00     0.000 HD 
BRANCH  22  24
HETATM   24  C   UNL     1     -11.403  15.393  67.089  1.00  0.00    -0.203 A  
HETATM   25  C   UNL     1     -11.389  15.810  68.428  1.00  0.00    -0.372 A  
HETATM   26  F   UNL     1     -12.151  15.171  69.329  1.00  0.00    -0.318 F  
HETATM   27  C   UNL     1     -10.603  16.883  68.858  1.00  0.00    -0.353 A  
HETATM   28  C   UNL     1      -9.828  17.567  67.930  1.00  0.00    -0.293 A  
HETATM   29 BR   UNL     1      -8.776  19.041  68.472  1.00  0.00    -0.392 Br 
HETATM   30  C   UNL     1      -9.846  17.196  66.585  1.00  0.00    -0.295 A  
HETATM   31  C   UNL     1     -10.635  16.119  66.170  1.00  0.00    -0.288 A  
ENDBRANCH  22  24
ENDBRANCH   5  22
ENDBRANCH   2   3
TORSDOF 6
ENDMDL
MODEL       46
REMARK 921   NORMALIZED FREE ENERGY PREDICTED BY IDOCK:   -6.22 KCAL/MOL
REMARK 922        TOTAL FREE ENERGY PREDICTED BY IDOCK:   -9.45 KCAL/MOL
REMARK 923 INTER-LIGAND FREE ENERGY PREDICTED BY IDOCK:   -8.59 KCAL/MOL
REMARK 924 INTRA-LIGAND FREE ENERGY PREDICTED BY IDOCK:   -0.86 KCAL/MOL
REMARK 927      BINDING AFFINITY PREDICTED BY RF-SCORE:    0.00 PKD
ROOT
HETATM    1  C   UNL     1      -8.340   7.991  69.374  1.00  0.00    -0.131 C  
HETATM    2  O   UNL     1      -9.721   7.649  69.241  1.00  0.00    -0.162 OA 
ENDROOT
BRANCH   2   3
HETATM    3  C   UNL     1     -10.630   8.437  69.899  1.00  0.00    -0.228 A  
HETATM    4  C   UNL     1     -11.497   7.861  70.838  1.00  0.00    -0.281 A  
HETATM    5  C   UNL     1     -11.722  12.037  70.283  1.00  0.00    -0.179 A  
HETATM    6  C   UNL     1     -12.421   8.678  71.512  1.00  0.00    -0.364 A  
HETATM    7  N   UNL     1     -12.565  12.765  71.033  1.00  0.00    -0.335 NA 
HETATM    8  C   UNL     1     -12.487  10.053  71.332  1.00  0.00    -0.411 A  
HETATM    9  C   UNL     1     -10.711   9.823  69.695  1.00  0.00    -0.264 A  
HETATM   10  N   UNL     1     -13.351  10.766  72.063  1.00  0.00    -0.401 NA 
HETATM   11  C   UNL     1     -11.630  10.638  70.401  1.00  0.00    -0.441 A  
HETATM   12  C   UNL     1     -13.339  12.091  71.888  1.00  0.00    -0.304 A  
BRANCH   4  13
HETATM   13  O   UNL     1     -11.638   6.542  71.193  1.00  0.00    -0.307 OA 
BRANCH  13  14
HETATM   14  C   UNL     1     -11.591   6.201  72.576  1.00  0.00    -0.250 C  
BRANCH  14  15
HETATM   15  C   UNL     1     -10.937   4.804  72.749  1.00  0.00    -0.268 C  
HETATM   16  N   UNL     1      -7.983   4.768  73.271  1.00  0.00    -0.099 NA 
HETATM   17  C   UNL     1     -10.353   4.501  74.147  1.00  0.00    -0.293 C  
HETATM   18  C   UNL     1      -7.521   3.385  73.162  1.00  0.00    -0.056 C  
HETATM   19  C   UNL     1      -8.915   4.984  74.382  1.00  0.00    -0.111 C  
HETATM   20  C   UNL     1      -9.877   4.580  71.663  1.00  0.00    -0.258 C  
HETATM   21  C   UNL     1      -8.555   5.261  72.016  1.00  0.00    -0.130 C  
ENDBRANCH  14  15
ENDBRANCH  13  14
ENDBRANCH   4  13
BRANCH   5  22
HETATM   22  N   UNL     1     -10.922  12.704  69.320  1.00  0.00    -0.436 NA 
HETATM   23  H   UNL     1     -10.088  13.182  69.661  1.00  0.00     0.000 HD 
BRANCH  22  24
HETATM   24  C   UNL     1     -11.176  12.764  67.930  1.00  0.00    -0.274 A  
HETATM   25  C   UNL     1     -11.962  13.796  67.398  1.00  0.00    -0.388 A  
HETATM   26  F   UNL     1     -12.398  14.778  68.201  1.00  0.00    -0.264 F  
HETATM   27  C   UNL     1     -12.313  13.832  66.045  1.00  0.00    -0.499 A  
HETATM   28  C   UNL     1     -11.886  12.808  65.209  1.00  0.00    -0.403 A  
HETATM   29 BR   UNL     1     -12.367  12.810  63.381  1.00  0.00    -0.414 Br 
HETATM   30  C   UNL     1     -11.130  11.750  65.717  1.00  0.00    -0.351 A  
HETATM   31  C   UNL     1     -10.784  11.729  67.072  1.00  0.00    -0.286 A  
ENDBRANCH  22  24
ENDBRANCH   5  22
ENDBRANCH   2   3
TORSDOF 6
ENDMDL
MODEL       47
REMARK 921   NORMALIZED FREE ENERGY PREDICTED BY IDOCK:   -6.21 KCAL/MOL
REMARK 922        TOTAL FREE ENERGY PREDICTED BY IDOCK:   -9.43 KCAL/MOL
REMARK 923 INTER-LIGAND FREE ENERGY PREDICTED BY IDOCK:   -8.37 KCAL/MOL
REMARK 924 INTRA-LIGAND FREE ENERGY PREDICTED BY IDOCK:   -1.06 KCAL/MOL
REMARK 927      BINDING AFFINITY PREDICTED BY RF-SCORE:    0.00 PKD
ROOT
HETATM    1  C   UNL     1     -13.399  11.513  71.987  1.00  0.00    -0.292 C  
HETATM    2  O   UNL     1     -13.248  10.590  70.906  1.00  0.00    -0.353 OA 
ENDROOT
BRANCH   2   3
HETATM    3  C   UNL     1     -11.972  10.220  70.568  1.00  0.00    -0.323 A  
HETATM    4  C   UNL     1     -11.439  10.617  69.334  1.00  0.00    -0.286 A  
HETATM    5  C   UNL     1      -8.930   8.436  71.932  1.00  0.00    -0.214 A  
HETATM    6  C   UNL     1     -10.126  10.239  68.999  1.00  0.00    -0.225 A  
HETATM    7  N   UNL     1      -7.656   8.193  71.581  1.00  0.00    -0.079 NA 
HETATM    8  C   UNL     1      -9.302   9.528  69.859  1.00  0.00    -0.223 A  
HETATM    9  C   UNL     1     -11.150   9.479  71.431  1.00  0.00    -0.438 A  
HETATM   10  N   UNL     1      -8.043   9.266  69.489  1.00  0.00    -0.104 NA 
HETATM   11  C   UNL     1      -9.820   9.127  71.090  1.00  0.00    -0.371 A  
HETATM   12  C   UNL     1      -7.276   8.623  70.375  1.00  0.00    -0.045 A  
BRANCH   4  13
HETATM   13  O   UNL     1     -12.039  11.311  68.312  1.00  0.00    -0.619 OA 
BRANCH  13  14
HETATM   14  C   UNL     1     -11.210  11.958  67.350  1.00  0.00    -0.305 C  
BRANCH  14  15
HETATM   15  C   UNL     1     -11.867  13.292  66.906  1.00  0.00    -0.446 C  
HETATM   16  N   UNL     1     -10.317  14.959  64.952  1.00  0.00    -0.376 NA 
HETATM   17  C   UNL     1     -12.258  13.387  65.414  1.00  0.00    -0.492 C  
HETATM   18  C   UNL     1     -10.974  16.261  64.847  1.00  0.00    -0.307 C  
HETATM   19  C   UNL     1     -11.143  13.850  64.466  1.00  0.00    -0.366 C  
HETATM   20  C   UNL     1     -10.979  14.477  67.306  1.00  0.00    -0.307 C  
HETATM   21  C   UNL     1      -9.839  14.689  66.310  1.00  0.00    -0.300 C  
ENDBRANCH  14  15
ENDBRANCH  13  14
ENDBRANCH   4  13
BRANCH   5  22
HETATM   22  N   UNL     1      -9.394   7.949  73.179  1.00  0.00    -0.248 NA 
HETATM   23  H   UNL     1      -9.454   8.619  73.945  1.00  0.00     0.000 HD 
BRANCH  22  24
HETATM   24  C   UNL     1      -9.782   6.617  73.456  1.00  0.00    -0.191 A  
HETATM   25  C   UNL     1      -8.872   5.718  74.030  1.00  0.00    -0.123 A  
HETATM   26  F   UNL     1      -7.656   6.151  74.398  1.00  0.00    -0.093 F  
HETATM   27  C   UNL     1      -9.190   4.371  74.227  1.00  0.00    -0.114 A  
HETATM   28  C   UNL     1     -10.437   3.907  73.828  1.00  0.00    -0.192 A  
HETATM   29 BR   UNL     1     -10.890   2.085  74.053  1.00  0.00    -0.249 Br 
HETATM   30  C   UNL     1     -11.352   4.770  73.225  1.00  0.00    -0.408 A  
HETATM   31  C   UNL     1     -11.021   6.116  73.036  1.00  0.00    -0.278 A  
ENDBRANCH  22  24
ENDBRANCH   5  22
ENDBRANCH   2   3
TORSDOF 6
ENDMDL
MODEL       48
REMARK 921   NORMALIZED FREE ENERGY PREDICTED BY IDOCK:   -6.18 KCAL/MOL
REMARK 922        TOTAL FREE ENERGY PREDICTED BY IDOCK:   -9.40 KCAL/MOL
REMARK 923 INTER-LIGAND FREE ENERGY PREDICTED BY IDOCK:   -8.00 KCAL/MOL
REMARK 924 INTRA-LIGAND FREE ENERGY PREDICTED BY IDOCK:   -1.40 KCAL/MOL
REMARK 927      BINDING AFFINITY PREDICTED BY RF-SCORE:    0.00 PKD
ROOT
HETATM    1  C   UNL     1      -7.258  10.828  68.340  1.00  0.00    -0.085 C  
HETATM    2  O   UNL     1      -8.449  10.214  67.843  1.00  0.00    -0.117 OA 
ENDROOT
BRANCH   2   3
HETATM    3  C   UNL     1      -9.585  10.339  68.600  1.00  0.00    -0.168 A  
HETATM    4  C   UNL     1     -10.652  11.116  68.128  1.00  0.00    -0.193 A  
HETATM    5  C   UNL     1     -11.172   9.119  71.808  1.00  0.00    -0.381 A  
HETATM    6  C   UNL     1     -11.816  11.232  68.909  1.00  0.00    -0.413 A  
HETATM    7  N   UNL     1     -12.348   9.202  72.452  1.00  0.00    -0.295 NA 
HETATM    8  C   UNL     1     -11.986  10.568  70.116  1.00  0.00    -0.316 A  
HETATM    9  C   UNL     1      -9.743   9.686  69.832  1.00  0.00    -0.262 A  
HETATM   10  N   UNL     1     -13.151  10.680  70.764  1.00  0.00    -0.298 NA 
HETATM   11  C   UNL     1     -10.932   9.792  70.596  1.00  0.00    -0.398 A  
HETATM   12  C   UNL     1     -13.281   9.980  71.895  1.00  0.00    -0.452 A  
BRANCH   4  13
HETATM   13  O   UNL     1     -10.736  11.871  66.984  1.00  0.00    -0.223 OA 
BRANCH  13  14
HETATM   14  C   UNL     1     -11.689  12.930  66.936  1.00  0.00    -0.382 C  
BRANCH  14  15
HETATM   15  C   UNL     1     -10.959  14.281  66.712  1.00  0.00    -0.304 C  
HETATM   16  N   UNL     1      -9.314  15.305  69.002  1.00  0.00    -0.218 NA 
HETATM   17  C   UNL     1      -9.415  14.220  66.707  1.00  0.00    -0.287 C  
HETATM   18  C   UNL     1      -8.913  16.677  68.694  1.00  0.00    -0.246 C  
HETATM   19  C   UNL     1      -8.745  14.313  68.085  1.00  0.00    -0.174 C  
HETATM   20  C   UNL     1     -11.454  15.321  67.725  1.00  0.00    -0.312 C  
HETATM   21  C   UNL     1     -10.769  15.158  69.082  1.00  0.00    -0.253 C  
ENDBRANCH  14  15
ENDBRANCH  13  14
ENDBRANCH   4  13
BRANCH   5  22
HETATM   22  N   UNL     1     -10.133   8.351  72.391  1.00  0.00    -0.311 NA 
HETATM   23  H   UNL     1      -9.275   8.843  72.638  1.00  0.00     0.000 HD 
BRANCH  22  24
HETATM   24  C   UNL     1     -10.180   6.964  72.661  1.00  0.00    -0.188 A  
HETATM   25  C   UNL     1     -10.057   6.034  71.618  1.00  0.00    -0.190 A  
HETATM   26  F   UNL     1      -9.805   6.465  70.373  1.00  0.00    -0.171 F  
HETATM   27  C   UNL     1     -10.196   4.660  71.835  1.00  0.00    -0.254 A  
HETATM   28  C   UNL     1     -10.480   4.204  73.116  1.00  0.00    -0.175 A  
HETATM   29 BR   UNL     1     -10.703   2.355  73.440  1.00  0.00    -0.287 Br 
HETATM   30  C   UNL     1     -10.640   5.107  74.168  1.00  0.00    -0.322 A  
HETATM   31  C   UNL     1     -10.496   6.479  73.936  1.00  0.00    -0.329 A  
ENDBRANCH  22  24
ENDBRANCH   5  22
ENDBRANCH   2   3
TORSDOF 6
ENDMDL
MODEL       49
REMARK 921   NORMALIZED FREE ENERGY PREDICTED BY IDOCK:   -6.16 KCAL/MOL
REMARK 922        TOTAL FREE ENERGY PREDICTED BY IDOCK:   -9.37 KCAL/MOL
REMARK 923 INTER-LIGAND FREE ENERGY PREDICTED BY IDOCK:   -8.62 KCAL/MOL
REMARK 924 INTRA-LIGAND FREE ENERGY PREDICTED BY IDOCK:   -0.75 KCAL/MOL
REMARK 927      BINDING AFFINITY PREDICTED BY RF-SCORE:    0.00 PKD
ROOT
HETATM    1  C   UNL     1     -12.043  15.026  71.056  1.00  0.00    -0.324 C  
HETATM    2  O   UNL     1     -10.892  15.118  70.214  1.00  0.00    -0.265 OA 
ENDROOT
BRANCH   2   3
HETATM    3  C   UNL     1     -11.082  14.952  68.867  1.00  0.00    -0.257 A  
HETATM    4  C   UNL     1     -11.567  13.731  68.379  1.00  0.00    -0.334 A  
HETATM    5  C   UNL     1     -10.899  16.820  65.584  1.00  0.00    -0.107 A  
HETATM    6  C   UNL     1     -11.765  13.573  66.996  1.00  0.00    -0.424 A  
HETATM    7  N   UNL     1     -11.201  16.625  64.289  1.00  0.00    -1.080 NA 
HETATM    8  C   UNL     1     -11.551  14.594  66.080  1.00  0.00    -0.332 A  
HETATM    9  C   UNL     1     -10.840  15.979  67.942  1.00  0.00    -0.333 A  
HETATM   10  N   UNL     1     -11.828  14.381  64.789  1.00  0.00    -0.411 NA 
HETATM   11  C   UNL     1     -11.069  15.814  66.553  1.00  0.00    -0.079 A  
HETATM   12  C   UNL     1     -11.653  15.412  63.957  1.00  0.00     0.110 A  
BRANCH   4  13
HETATM   13  O   UNL     1     -11.849  12.574  69.063  1.00  0.00    -0.299 OA 
BRANCH  13  14
HETATM   14  C   UNL     1     -11.964  11.359  68.327  1.00  0.00    -0.164 C  
BRANCH  14  15
HETATM   15  C   UNL     1     -10.713  10.475  68.579  1.00  0.00    -0.259 C  
HETATM   16  N   UNL     1      -8.617  10.486  66.433  1.00  0.00    -0.140 NA 
HETATM   17  C   UNL     1      -9.375  11.230  68.741  1.00  0.00    -0.136 C  
HETATM   18  C   UNL     1      -7.654   9.427  66.735  1.00  0.00    -0.097 C  
HETATM   19  C   UNL     1      -8.637  11.556  67.435  1.00  0.00    -0.145 C  
HETATM   20  C   UNL     1     -10.597   9.403  67.488  1.00  0.00    -0.333 C  
HETATM   21  C   UNL     1      -9.966   9.961  66.213  1.00  0.00    -0.256 C  
ENDBRANCH  14  15
ENDBRANCH  13  14
ENDBRANCH   4  13
BRANCH   5  22
HETATM   22  N   UNL     1     -10.363  18.073  65.974  1.00  0.00    -0.539 NA 
HETATM   23  H   UNL     1     -10.869  18.907  65.675  1.00  0.00     0.000 HD 
BRANCH  22  24
HETATM   24  C   UNL     1      -9.191  18.270  66.740  1.00  0.00    -0.288 A  
HETATM   25  C   UNL     1      -9.185  19.185  67.803  1.00  0.00    -0.298 A  
HETATM   26  F   UNL     1     -10.322  19.808  68.148  1.00  0.00    -0.490 F  
HETATM   27  C   UNL     1      -8.020  19.476  68.519  1.00  0.00    -0.383 A  
HETATM   28  C   UNL     1      -6.831  18.854  68.155  1.00  0.00    -0.241 A  
HETATM   29 BR   UNL     1      -5.231  19.246  69.082  1.00  0.00    -0.212 Br 
HETATM   30  C   UNL     1      -6.800  17.964  67.081  1.00  0.00    -0.201 A  
HETATM   31  C   UNL     1      -7.974  17.681  66.377  1.00  0.00    -0.309 A  
ENDBRANCH  22  24
ENDBRANCH   5  22
ENDBRANCH   2   3
TORSDOF 6
ENDMDL
MODEL       50
REMARK 921   NORMALIZED FREE ENERGY PREDICTED BY IDOCK:   -6.15 KCAL/MOL
REMARK 922        TOTAL FREE ENERGY PREDICTED BY IDOCK:   -9.35 KCAL/MOL
REMARK 923 INTER-LIGAND FREE ENERGY PREDICTED BY IDOCK:   -8.28 KCAL/MOL
REMARK 924 INTRA-LIGAND FREE ENERGY PREDICTED BY IDOCK:   -1.07 KCAL/MOL
REMARK 927      BINDING AFFINITY PREDICTED BY RF-SCORE:    0.00 PKD
ROOT
HETATM    1  C   UNL     1      -6.770  10.565  70.109  1.00  0.00    -0.148 C  
HETATM    2  O   UNL     1      -7.742   9.764  69.433  1.00  0.00    -0.088 OA 
ENDROOT
BRANCH   2   3
HETATM    3  C   UNL     1      -9.038   9.844  69.871  1.00  0.00    -0.210 A  
HETATM    4  C   UNL     1      -9.959  10.637  69.172  1.00  0.00    -0.211 A  
HETATM    5  C   UNL     1     -11.387   8.456  72.490  1.00  0.00    -0.346 A  
HETATM    6  C   UNL     1     -11.288  10.707  69.625  1.00  0.00    -0.360 A  
HETATM    7  N   UNL     1     -12.692   8.500  72.805  1.00  0.00    -0.219 NA 
HETATM    8  C   UNL     1     -11.756   9.983  70.712  1.00  0.00    -0.350 A  
HETATM    9  C   UNL     1      -9.501   9.129  70.986  1.00  0.00    -0.344 A  
HETATM   10  N   UNL     1     -13.052  10.055  71.036  1.00  0.00    -0.377 NA 
HETATM   11  C   UNL     1     -10.850   9.190  71.416  1.00  0.00    -0.419 A  
HETATM   12  C   UNL     1     -13.460   9.298  72.059  1.00  0.00    -0.451 A  
BRANCH   4  13
HETATM   13  O   UNL     1      -9.755  11.447  68.082  1.00  0.00    -0.179 OA 
BRANCH  13  14
HETATM   14  C   UNL     1     -10.888  11.876  67.331  1.00  0.00    -0.243 C  
BRANCH  14  15
HETATM   15  C   UNL     1     -10.848  13.417  67.158  1.00  0.00    -0.284 C  
HETATM   16  N   UNL     1     -11.796  14.491  64.523  1.00  0.00    -0.447 NA 
HETATM   17  C   UNL     1     -12.218  14.114  66.999  1.00  0.00    -0.374 C  
HETATM   18  C   UNL     1     -11.459  15.913  64.465  1.00  0.00    -0.283 C  
HETATM   19  C   UNL     1     -12.771  14.167  65.568  1.00  0.00    -0.443 C  
HETATM   20  C   UNL     1      -9.915  13.795  66.001  1.00  0.00    -0.319 C  
HETATM   21  C   UNL     1     -10.607  13.645  64.646  1.00  0.00    -0.430 C  
ENDBRANCH  14  15
ENDBRANCH  13  14
ENDBRANCH   4  13
BRANCH   5  22
HETATM   22  N   UNL     1     -10.522   7.666  73.288  1.00  0.00    -0.364 NA 
HETATM   23  H   UNL     1      -9.986   8.149  74.009  1.00  0.00     0.000 HD 
BRANCH  22  24
HETATM   24  C   UNL     1     -10.335   6.269  73.175  1.00  0.00    -0.222 A  
HETATM   25  C   UNL     1      -9.100   5.750  72.762  1.00  0.00    -0.133 A  
HETATM   26  F   UNL     1      -8.065   6.581  72.561  1.00  0.00    -0.103 F  
HETATM   27  C   UNL     1      -8.910   4.382  72.546  1.00  0.00    -0.122 A  
HETATM   28  C   UNL     1      -9.980   3.515  72.728  1.00  0.00    -0.154 A  
HETATM   29 BR   UNL     1      -9.766   1.662  72.416  1.00  0.00    -0.175 Br 
HETATM   30  C   UNL     1     -11.230   4.005  73.107  1.00  0.00    -0.215 A  
HETATM   31  C   UNL     1     -11.404   5.376  73.322  1.00  0.00    -0.266 A  
ENDBRANCH  22  24
ENDBRANCH   5  22
ENDBRANCH   2   3
TORSDOF 6
ENDMDL
MODEL       51
REMARK 921   NORMALIZED FREE ENERGY PREDICTED BY IDOCK:   -6.13 KCAL/MOL
REMARK 922        TOTAL FREE ENERGY PREDICTED BY IDOCK:   -9.33 KCAL/MOL
REMARK 923 INTER-LIGAND FREE ENERGY PREDICTED BY IDOCK:   -8.50 KCAL/MOL
REMARK 924 INTRA-LIGAND FREE ENERGY PREDICTED BY IDOCK:   -0.83 KCAL/MOL
REMARK 927      BINDING AFFINITY PREDICTED BY RF-SCORE:    0.00 PKD
ROOT
HETATM    1  C   UNL     1     -12.317  14.180  71.493  1.00  0.00    -0.312 C  
HETATM    2  O   UNL     1     -12.616  14.424  70.117  1.00  0.00    -0.345 OA 
ENDROOT
BRANCH   2   3
HETATM    3  C   UNL     1     -12.062  13.577  69.193  1.00  0.00    -0.288 A  
HETATM    4  C   UNL     1     -11.632  14.082  67.958  1.00  0.00    -0.337 A  
HETATM    5  C   UNL     1     -11.001   9.979  68.712  1.00  0.00    -0.202 A  
HETATM    6  C   UNL     1     -11.058  13.206  67.019  1.00  0.00    -0.305 A  
HETATM    7  N   UNL     1     -10.360   9.224  67.804  1.00  0.00    -0.223 NA 
HETATM    8  C   UNL     1     -10.846  11.858  67.274  1.00  0.00    -0.247 A  
HETATM    9  C   UNL     1     -11.872  12.209  69.445  1.00  0.00    -0.370 A  
HETATM   10  N   UNL     1     -10.232  11.108  66.351  1.00  0.00    -0.226 NA 
HETATM   11  C   UNL     1     -11.269  11.343  68.499  1.00  0.00    -0.309 A  
HETATM   12  C   UNL     1     -10.006   9.829  66.667  1.00  0.00    -0.229 A  
BRANCH   4  13
HETATM   13  O   UNL     1     -11.731  15.358  67.461  1.00  0.00    -0.241 OA 
BRANCH  13  14
HETATM   14  C   UNL     1     -11.006  16.399  68.110  1.00  0.00    -0.339 C  
BRANCH  14  15
HETATM   15  C   UNL     1      -9.906  16.942  67.160  1.00  0.00    -0.270 C  
HETATM   16  N   UNL     1      -9.126  19.816  67.524  1.00  0.00    -0.319 NA 
HETATM   17  C   UNL     1      -8.577  17.355  67.832  1.00  0.00    -0.232 C  
HETATM   18  C   UNL     1      -8.272  20.199  66.400  1.00  0.00    -0.249 C  
HETATM   19  C   UNL     1      -8.530  18.787  68.381  1.00  0.00    -0.342 C  
HETATM   20  C   UNL     1     -10.462  18.095  66.314  1.00  0.00    -0.374 C  
HETATM   21  C   UNL     1     -10.465  19.413  67.088  1.00  0.00    -0.466 C  
ENDBRANCH  14  15
ENDBRANCH  13  14
ENDBRANCH   4  13
BRANCH   5  22
HETATM   22  N   UNL     1     -11.445   9.366  69.911  1.00  0.00    -0.436 NA 
HETATM   23  H   UNL     1     -12.226   9.808  70.396  1.00  0.00     0.000 HD 
BRANCH  22  24
HETATM   24  C   UNL     1     -10.904   8.197  70.494  1.00  0.00    -0.240 A  
HETATM   25  C   UNL     1      -9.671   8.243  71.160  1.00  0.00    -0.165 A  
HETATM   26  F   UNL     1      -9.048   9.421  71.321  1.00  0.00    -0.288 F  
HETATM   27  C   UNL     1      -9.061   7.090  71.663  1.00  0.00    -0.139 A  
HETATM   28  C   UNL     1      -9.686   5.862  71.482  1.00  0.00    -0.161 A  
HETATM   29 BR   UNL     1      -8.874   4.280  72.124  1.00  0.00    -0.138 Br 
HETATM   30  C   UNL     1     -10.897   5.781  70.795  1.00  0.00    -0.330 A  
HETATM   31  C   UNL     1     -11.497   6.943  70.300  1.00  0.00    -0.373 A  
ENDBRANCH  22  24
ENDBRANCH   5  22
ENDBRANCH   2   3
TORSDOF 6
ENDMDL
MODEL       52
REMARK 921   NORMALIZED FREE ENERGY PREDICTED BY IDOCK:   -6.11 KCAL/MOL
REMARK 922        TOTAL FREE ENERGY PREDICTED BY IDOCK:   -9.30 KCAL/MOL
REMARK 923 INTER-LIGAND FREE ENERGY PREDICTED BY IDOCK:   -8.13 KCAL/MOL
REMARK 924 INTRA-LIGAND FREE ENERGY PREDICTED BY IDOCK:   -1.17 KCAL/MOL
REMARK 927      BINDING AFFINITY PREDICTED BY RF-SCORE:    0.00 PKD
ROOT
HETATM    1  C   UNL     1     -10.450  10.022  70.322  1.00  0.00    -0.272 C  
HETATM    2  O   UNL     1     -11.442   9.855  69.308  1.00  0.00    -0.129 OA 
ENDROOT
BRANCH   2   3
HETATM    3  C   UNL     1     -11.076  10.133  68.017  1.00  0.00    -0.240 A  
HETATM    4  C   UNL     1     -10.382   9.172  67.269  1.00  0.00    -0.270 A  
HETATM    5  C   UNL     1     -11.390  12.786  65.339  1.00  0.00    -0.304 A  
HETATM    6  C   UNL     1     -10.017   9.464  65.943  1.00  0.00    -0.327 A  
HETATM    7  N   UNL     1     -11.090  12.955  64.041  1.00  0.00    -0.393 NA 
HETATM    8  C   UNL     1     -10.356  10.651  65.310  1.00  0.00    -0.251 A  
HETATM    9  C   UNL     1     -11.400  11.345  67.388  1.00  0.00    -0.359 A  
HETATM   10  N   UNL     1     -10.027  10.822  64.024  1.00  0.00    -0.318 NA 
HETATM   11  C   UNL     1     -11.047  11.616  66.042  1.00  0.00    -0.325 A  
HETATM   12  C   UNL     1     -10.423  11.961  63.447  1.00  0.00    -0.441 A  
BRANCH   4  13
HETATM   13  O   UNL     1      -9.926   7.935  67.656  1.00  0.00    -0.159 OA 
BRANCH  13  14
HETATM   14  C   UNL     1     -10.334   6.794  66.907  1.00  0.00    -0.254 C  
BRANCH  14  15
HETATM   15  C   UNL     1      -9.188   5.748  66.881  1.00  0.00    -0.124 C  
HETATM   16  N   UNL     1      -8.547   4.536  64.213  1.00  0.00    -0.126 NA 
HETATM   17  C   UNL     1      -7.930   6.146  66.078  1.00  0.00    -0.110 C  
HETATM   18  C   UNL     1      -7.627   3.420  64.432  1.00  0.00    -0.076 C  
HETATM   19  C   UNL     1      -7.978   5.837  64.575  1.00  0.00    -0.126 C  
HETATM   20  C   UNL     1      -9.723   4.391  66.405  1.00  0.00    -0.227 C  
HETATM   21  C   UNL     1      -9.834   4.331  64.882  1.00  0.00    -0.175 C  
ENDBRANCH  14  15
ENDBRANCH  13  14
ENDBRANCH   4  13
BRANCH   5  22
HETATM   22  N   UNL     1     -12.047  13.838  66.027  1.00  0.00    -0.409 NA 
HETATM   23  H   UNL     1     -13.062  13.778  66.104  1.00  0.00     0.000 HD 
BRANCH  22  24
HETATM   24  C   UNL     1     -11.421  14.962  66.614  1.00  0.00    -0.296 A  
HETATM   25  C   UNL     1     -11.543  15.203  67.989  1.00  0.00    -0.328 A  
HETATM   26  F   UNL     1     -12.181  14.312  68.764  1.00  0.00    -0.361 F  
HETATM   27  C   UNL     1     -11.020  16.354  68.585  1.00  0.00    -0.345 A  
HETATM   28  C   UNL     1     -10.377  17.294  67.789  1.00  0.00    -0.356 A  
HETATM   29 BR   UNL     1      -9.684  18.876  68.558  1.00  0.00    -0.465 Br 
HETATM   30  C   UNL     1     -10.269  17.098  66.412  1.00  0.00    -0.331 A  
HETATM   31  C   UNL     1     -10.795  15.940  65.831  1.00  0.00    -0.237 A  
ENDBRANCH  22  24
ENDBRANCH   5  22
ENDBRANCH   2   3
TORSDOF 6
ENDMDL
MODEL       53
REMARK 921   NORMALIZED FREE ENERGY PREDICTED BY IDOCK:   -6.10 KCAL/MOL
REMARK 922        TOTAL FREE ENERGY PREDICTED BY IDOCK:   -9.29 KCAL/MOL
REMARK 923 INTER-LIGAND FREE ENERGY PREDICTED BY IDOCK:   -8.32 KCAL/MOL
REMARK 924 INTRA-LIGAND FREE ENERGY PREDICTED BY IDOCK:   -0.97 KCAL/MOL
REMARK 927      BINDING AFFINITY PREDICTED BY RF-SCORE:    0.00 PKD
ROOT
HETATM    1  C   UNL     1      -7.326  11.042  69.397  1.00  0.00    -0.092 C  
HETATM    2  O   UNL     1      -8.348  10.183  68.886  1.00  0.00    -0.113 OA 
ENDROOT
BRANCH   2   3
HETATM    3  C   UNL     1      -9.566  10.210  69.514  1.00  0.00    -0.221 A  
HETATM    4  C   UNL     1     -10.545  11.120  69.092  1.00  0.00    -0.204 A  
HETATM    5  C   UNL     1     -11.574   8.446  72.190  1.00  0.00    -0.374 A  
HETATM    6  C   UNL     1     -11.794  11.135  69.738  1.00  0.00    -0.422 A  
HETATM    7  N   UNL     1     -12.819   8.457  72.694  1.00  0.00    -0.213 NA 
HETATM    8  C   UNL     1     -12.131  10.249  70.752  1.00  0.00    -0.353 A  
HETATM    9  C   UNL     1      -9.894   9.329  70.556  1.00  0.00    -0.310 A  
HETATM   10  N   UNL     1     -13.365  10.287  71.268  1.00  0.00    -0.332 NA 
HETATM   11  C   UNL     1     -11.166   9.338  71.181  1.00  0.00    -0.413 A  
HETATM   12  C   UNL     1     -13.653   9.379  72.206  1.00  0.00    -0.462 A  
BRANCH   4  13
HETATM   13  O   UNL     1     -10.465  12.095  68.128  1.00  0.00    -0.198 OA 
BRANCH  13  14
HETATM   14  C   UNL     1     -10.607  13.457  68.525  1.00  0.00    -0.253 C  
BRANCH  14  15
HETATM   15  C   UNL     1     -11.621  14.170  67.592  1.00  0.00    -0.394 C  
HETATM   16  N   UNL     1     -10.623  14.936  64.869  1.00  0.00    -0.420 NA 
HETATM   17  C   UNL     1     -12.028  13.395  66.319  1.00  0.00    -0.460 C  
HETATM   18  C   UNL     1     -11.627  15.796  64.244  1.00  0.00    -0.191 C  
HETATM   19  C   UNL     1     -11.097  13.571  65.111  1.00  0.00    -0.316 C  
HETATM   20  C   UNL     1     -11.110  15.570  67.229  1.00  0.00    -0.271 C  
HETATM   21  C   UNL     1     -10.083  15.520  66.099  1.00  0.00    -0.309 C  
ENDBRANCH  14  15
ENDBRANCH  13  14
ENDBRANCH   4  13
BRANCH   5  22
HETATM   22  N   UNL     1     -10.636   7.524  72.717  1.00  0.00    -0.280 NA 
HETATM   23  H   UNL     1     -10.050   7.846  73.487  1.00  0.00     0.000 HD 
BRANCH  22  24
HETATM   24  C   UNL     1     -10.439   6.196  72.272  1.00  0.00    -0.198 A  
HETATM   25  C   UNL     1     -10.217   5.164  73.195  1.00  0.00    -0.183 A  
HETATM   26  F   UNL     1     -10.281   5.425  74.510  1.00  0.00    -0.206 F  
HETATM   27  C   UNL     1      -9.924   3.860  72.786  1.00  0.00    -0.209 A  
HETATM   28  C   UNL     1      -9.832   3.582  71.428  1.00  0.00    -0.144 A  
HETATM   29 BR   UNL     1      -9.408   1.836  70.841  1.00  0.00    -0.194 Br 
HETATM   30  C   UNL     1     -10.016   4.595  70.486  1.00  0.00    -0.295 A  
HETATM   31  C   UNL     1     -10.312   5.895  70.910  1.00  0.00    -0.288 A  
ENDBRANCH  22  24
ENDBRANCH   5  22
ENDBRANCH   2   3
TORSDOF 6
ENDMDL
MODEL       54
REMARK 921   NORMALIZED FREE ENERGY PREDICTED BY IDOCK:   -6.04 KCAL/MOL
REMARK 922        TOTAL FREE ENERGY PREDICTED BY IDOCK:   -9.21 KCAL/MOL
REMARK 923 INTER-LIGAND FREE ENERGY PREDICTED BY IDOCK:   -8.09 KCAL/MOL
REMARK 924 INTRA-LIGAND FREE ENERGY PREDICTED BY IDOCK:   -1.13 KCAL/MOL
REMARK 927      BINDING AFFINITY PREDICTED BY RF-SCORE:    0.00 PKD
ROOT
HETATM    1  C   UNL     1     -12.630  12.290  64.028  1.00  0.00    -0.420 C  
HETATM    2  O   UNL     1     -12.634  12.682  65.403  1.00  0.00    -0.641 OA 
ENDROOT
BRANCH   2   3
HETATM    3  C   UNL     1     -11.500  12.435  66.131  1.00  0.00    -0.379 A  
HETATM    4  C   UNL     1     -10.486  13.401  66.187  1.00  0.00    -0.295 A  
HETATM    5  C   UNL     1      -9.943   9.876  68.440  1.00  0.00    -0.158 A  
HETATM    6  C   UNL     1      -9.329  13.142  66.943  1.00  0.00    -0.246 A  
HETATM    7  N   UNL     1      -8.853   9.740  69.214  1.00  0.00    -0.156 NA 
HETATM    8  C   UNL     1      -9.157  11.984  67.688  1.00  0.00    -0.179 A  
HETATM    9  C   UNL     1     -11.319  11.251  66.864  1.00  0.00    -0.231 A  
HETATM   10  N   UNL     1      -8.055  11.845  68.433  1.00  0.00    -0.153 NA 
HETATM   11  C   UNL     1     -10.159  11.014  67.642  1.00  0.00    -0.208 A  
HETATM   12  C   UNL     1      -7.963  10.735  69.172  1.00  0.00    -0.134 A  
BRANCH   4  13
HETATM   13  O   UNL     1     -10.407  14.613  65.545  1.00  0.00    -0.315 OA 
BRANCH  13  14
HETATM   14  C   UNL     1      -9.315  15.476  65.853  1.00  0.00    -0.319 C  
BRANCH  14  15
HETATM   15  C   UNL     1      -9.841  16.914  66.107  1.00  0.00    -0.318 C  
HETATM   16  N   UNL     1      -9.107  18.159  68.735  1.00  0.00    -0.269 NA 
HETATM   17  C   UNL     1      -8.764  18.015  66.222  1.00  0.00    -0.194 C  
HETATM   18  C   UNL     1      -9.883  19.390  68.885  1.00  0.00    -0.453 C  
HETATM   19  C   UNL     1      -8.157  18.203  67.620  1.00  0.00    -0.234 C  
HETATM   20  C   UNL     1     -10.761  16.930  67.334  1.00  0.00    -0.241 C  
HETATM   21  C   UNL     1      -9.963  16.975  68.637  1.00  0.00    -0.294 C  
ENDBRANCH  14  15
ENDBRANCH  13  14
ENDBRANCH   4  13
BRANCH   5  22
HETATM   22  N   UNL     1     -10.889   8.820  68.409  1.00  0.00    -0.451 NA 
HETATM   23  H   UNL     1     -11.875   9.080  68.433  1.00  0.00     0.000 HD 
BRANCH  22  24
HETATM   24  C   UNL     1     -10.588   7.440  68.347  1.00  0.00    -0.152 A  
HETATM   25  C   UNL     1     -10.537   6.672  69.519  1.00  0.00    -0.241 A  
HETATM   26  F   UNL     1     -10.863   7.233  70.694  1.00  0.00    -0.229 F  
HETATM   27  C   UNL     1     -10.148   5.330  69.505  1.00  0.00    -0.322 A  
HETATM   28  C   UNL     1      -9.785   4.745  68.298  1.00  0.00    -0.140 A  
HETATM   29 BR   UNL     1      -9.225   2.939  68.247  1.00  0.00    -0.251 Br 
HETATM   30  C   UNL     1      -9.794   5.492  67.120  1.00  0.00    -0.172 A  
HETATM   31  C   UNL     1     -10.188   6.833  67.149  1.00  0.00    -0.291 A  
ENDBRANCH  22  24
ENDBRANCH   5  22
ENDBRANCH   2   3
TORSDOF 6
ENDMDL
MODEL       55
REMARK 921   NORMALIZED FREE ENERGY PREDICTED BY IDOCK:   -6.02 KCAL/MOL
REMARK 922        TOTAL FREE ENERGY PREDICTED BY IDOCK:   -9.19 KCAL/MOL
REMARK 923 INTER-LIGAND FREE ENERGY PREDICTED BY IDOCK:   -8.48 KCAL/MOL
REMARK 924 INTRA-LIGAND FREE ENERGY PREDICTED BY IDOCK:   -0.70 KCAL/MOL
REMARK 927      BINDING AFFINITY PREDICTED BY RF-SCORE:    0.00 PKD
ROOT
HETATM    1  C   UNL     1     -11.778  12.016  69.724  1.00  0.00    -0.319 C  
HETATM    2  O   UNL     1     -12.183  10.950  68.863  1.00  0.00    -0.494 OA 
ENDROOT
BRANCH   2   3
HETATM    3  C   UNL     1     -11.425  10.721  67.744  1.00  0.00    -0.202 A  
HETATM    4  C   UNL     1     -10.743   9.505  67.604  1.00  0.00    -0.250 A  
HETATM    5  C   UNL     1     -10.477  12.266  64.425  1.00  0.00    -0.325 A  
HETATM    6  C   UNL     1      -9.973   9.278  66.449  1.00  0.00    -0.356 A  
HETATM    7  N   UNL     1      -9.800  11.939  63.312  1.00  0.00    -0.391 NA 
HETATM    8  C   UNL     1      -9.894  10.185  65.403  1.00  0.00    -0.307 A  
HETATM    9  C   UNL     1     -11.328  11.653  66.699  1.00  0.00    -0.338 A  
HETATM   10  N   UNL     1      -9.193   9.862  64.310  1.00  0.00    -0.260 NA 
HETATM   11  C   UNL     1     -10.569  11.399  65.529  1.00  0.00    -0.328 A  
HETATM   12  C   UNL     1      -9.191  10.750  63.311  1.00  0.00    -0.283 A  
BRANCH   4  13
HETATM   13  O   UNL     1     -10.652   8.455  68.484  1.00  0.00    -0.191 OA 
BRANCH  13  14
HETATM   14  C   UNL     1      -9.723   8.548  69.561  1.00  0.00    -0.176 C  
BRANCH  14  15
HETATM   15  C   UNL     1     -10.322   7.880  70.827  1.00  0.00    -0.211 C  
HETATM   16  N   UNL     1      -8.423   6.295  72.525  1.00  0.00    -0.121 NA 
HETATM   17  C   UNL     1      -9.794   8.406  72.181  1.00  0.00    -0.372 C  
HETATM   18  C   UNL     1      -9.208   5.558  73.515  1.00  0.00    -0.130 C  
HETATM   19  C   UNL     1      -8.502   7.750  72.687  1.00  0.00    -0.135 C  
HETATM   20  C   UNL     1     -10.165   6.356  70.744  1.00  0.00    -0.228 C  
HETATM   21  C   UNL     1      -8.762   5.910  71.153  1.00  0.00    -0.132 C  
ENDBRANCH  14  15
ENDBRANCH  13  14
ENDBRANCH   4  13
BRANCH   5  22
HETATM   22  N   UNL     1     -11.092  13.542  64.495  1.00  0.00    -0.367 NA 
HETATM   23  H   UNL     1     -11.979  13.657  64.007  1.00  0.00     0.000 HD 
BRANCH  22  24
HETATM   24  C   UNL     1     -10.584  14.670  65.181  1.00  0.00    -0.421 A  
HETATM   25  C   UNL     1     -11.067  15.953  64.890  1.00  0.00    -0.389 A  
HETATM   26  F   UNL     1     -12.079  16.099  64.021  1.00  0.00    -0.451 F  
HETATM   27  C   UNL     1     -10.520  17.098  65.478  1.00  0.00    -0.158 A  
HETATM   28  C   UNL     1      -9.457  16.961  66.362  1.00  0.00    -0.283 A  
HETATM   29 BR   UNL     1      -8.674  18.490  67.152  1.00  0.00    -0.283 Br 
HETATM   30  C   UNL     1      -8.933  15.699  66.646  1.00  0.00    -0.317 A  
HETATM   31  C   UNL     1      -9.492  14.563  66.052  1.00  0.00    -0.262 A  
ENDBRANCH  22  24
ENDBRANCH   5  22
ENDBRANCH   2   3
TORSDOF 6
ENDMDL
MODEL       56
REMARK 921   NORMALIZED FREE ENERGY PREDICTED BY IDOCK:   -5.99 KCAL/MOL
REMARK 922        TOTAL FREE ENERGY PREDICTED BY IDOCK:   -9.14 KCAL/MOL
REMARK 923 INTER-LIGAND FREE ENERGY PREDICTED BY IDOCK:   -8.14 KCAL/MOL
REMARK 924 INTRA-LIGAND FREE ENERGY PREDICTED BY IDOCK:   -1.00 KCAL/MOL
REMARK 927      BINDING AFFINITY PREDICTED BY RF-SCORE:    0.00 PKD
ROOT
HETATM    1  C   UNL     1     -13.613   9.098  71.737  1.00  0.00    -0.415 C  
HETATM    2  O   UNL     1     -12.343   8.500  71.467  1.00  0.00    -0.298 OA 
ENDROOT
BRANCH   2   3
HETATM    3  C   UNL     1     -11.482   9.191  70.655  1.00  0.00    -0.262 A  
HETATM    4  C   UNL     1     -10.296   8.582  70.223  1.00  0.00    -0.205 A  
HETATM    5  C   UNL     1     -11.119  12.469  68.804  1.00  0.00    -0.270 A  
HETATM    6  C   UNL     1      -9.422   9.297  69.385  1.00  0.00    -0.169 A  
HETATM    7  N   UNL     1     -10.282  13.052  67.930  1.00  0.00    -0.227 NA 
HETATM    8  C   UNL     1      -9.699  10.572  68.914  1.00  0.00    -0.199 A  
HETATM    9  C   UNL     1     -11.755  10.491  70.202  1.00  0.00    -0.410 A  
HETATM   10  N   UNL     1      -8.845  11.156  68.066  1.00  0.00    -0.137 NA 
HETATM   11  C   UNL     1     -10.876  11.190  69.337  1.00  0.00    -0.264 A  
HETATM   12  C   UNL     1      -9.185  12.363  67.603  1.00  0.00    -0.185 A  
BRANCH   4  13
HETATM   13  O   UNL     1      -9.788   7.347  70.543  1.00  0.00    -0.180 OA 
BRANCH  13  14
HETATM   14  C   UNL     1      -8.882   6.727  69.635  1.00  0.00    -0.144 C  
BRANCH  14  15
HETATM   15  C   UNL     1      -9.563   5.499  68.974  1.00  0.00    -0.180 C  
HETATM   16  N   UNL     1      -9.718   5.510  65.978  1.00  0.00    -0.123 NA 
HETATM   17  C   UNL     1      -8.649   4.610  68.100  1.00  0.00    -0.108 C  
HETATM   18  C   UNL     1     -10.591   4.412  65.566  1.00  0.00    -0.159 C  
HETATM   19  C   UNL     1      -8.490   5.059  66.641  1.00  0.00    -0.106 C  
HETATM   20  C   UNL     1     -10.798   5.944  68.181  1.00  0.00    -0.323 C  
HETATM   21  C   UNL     1     -10.419   6.493  66.806  1.00  0.00    -0.230 C  
ENDBRANCH  14  15
ENDBRANCH  13  14
ENDBRANCH   4  13
BRANCH   5  22
HETATM   22  N   UNL     1     -12.268  13.186  69.224  1.00  0.00    -0.198 NA 
HETATM   23  H   UNL     1     -13.075  13.176  68.601  1.00  0.00     0.000 HD 
BRANCH  22  24
HETATM   24  C   UNL     1     -12.396  13.914  70.430  1.00  0.00    -0.363 A  
HETATM   25  C   UNL     1     -11.612  15.054  70.656  1.00  0.00    -0.311 A  
HETATM   26  F   UNL     1     -10.804  15.506  69.685  1.00  0.00    -0.214 F  
HETATM   27  C   UNL     1     -11.642  15.740  71.873  1.00  0.00    -0.545 A  
HETATM   28  C   UNL     1     -12.458  15.268  72.894  1.00  0.00    -0.406 A  
HETATM   29 BR   UNL     1     -12.501  16.155  74.564  1.00  0.00    -0.513 Br 
HETATM   30  C   UNL     1     -13.225  14.117  72.711  1.00  0.00    -0.604 A  
HETATM   31  C   UNL     1     -13.186  13.443  71.486  1.00  0.00    -0.395 A  
ENDBRANCH  22  24
ENDBRANCH   5  22
ENDBRANCH   2   3
TORSDOF 6
ENDMDL
MODEL       57
REMARK 921   NORMALIZED FREE ENERGY PREDICTED BY IDOCK:   -5.97 KCAL/MOL
REMARK 922        TOTAL FREE ENERGY PREDICTED BY IDOCK:   -9.11 KCAL/MOL
REMARK 923 INTER-LIGAND FREE ENERGY PREDICTED BY IDOCK:   -7.89 KCAL/MOL
REMARK 924 INTRA-LIGAND FREE ENERGY PREDICTED BY IDOCK:   -1.22 KCAL/MOL
REMARK 927      BINDING AFFINITY PREDICTED BY RF-SCORE:    0.00 PKD
ROOT
HETATM    1  C   UNL     1     -12.826  11.377  71.254  1.00  0.00    -0.379 C  
HETATM    2  O   UNL     1     -12.016  10.256  70.895  1.00  0.00    -0.315 OA 
ENDROOT
BRANCH   2   3
HETATM    3  C   UNL     1     -11.462  10.254  69.642  1.00  0.00    -0.235 A  
HETATM    4  C   UNL     1     -10.683   9.165  69.227  1.00  0.00    -0.183 A  
HETATM    5  C   UNL     1     -11.341  12.263  66.439  1.00  0.00    -0.354 A  
HETATM    6  C   UNL     1     -10.124   9.170  67.937  1.00  0.00    -0.246 A  
HETATM    7  N   UNL     1     -10.852  12.153  65.192  1.00  0.00    -0.291 NA 
HETATM    8  C   UNL     1     -10.349  10.188  67.020  1.00  0.00    -0.244 A  
HETATM    9  C   UNL     1     -11.671  11.297  68.726  1.00  0.00    -0.405 A  
HETATM   10  N   UNL     1      -9.834  10.083  65.789  1.00  0.00    -0.260 NA 
HETATM   11  C   UNL     1     -11.122  11.277  67.420  1.00  0.00    -0.358 A  
HETATM   12  C   UNL     1     -10.123  11.065  64.930  1.00  0.00    -0.300 A  
BRANCH   4  13
HETATM   13  O   UNL     1     -10.308   8.049  69.934  1.00  0.00    -0.210 OA 
BRANCH  13  14
HETATM   14  C   UNL     1      -8.937   7.659  69.913  1.00  0.00    -0.144 C  
BRANCH  14  15
HETATM   15  C   UNL     1      -8.156   8.438  71.004  1.00  0.00    -0.132 C  
HETATM   16  N   UNL     1      -7.595   6.962  73.555  1.00  0.00    -0.081 NA 
HETATM   17  C   UNL     1      -6.751   7.892  71.347  1.00  0.00    -0.046 C  
HETATM   18  C   UNL     1      -7.078   7.922  74.530  1.00  0.00    -0.143 C  
HETATM   19  C   UNL     1      -6.714   6.775  72.399  1.00  0.00    -0.062 C  
HETATM   20  C   UNL     1      -9.008   8.566  72.274  1.00  0.00    -0.299 C  
HETATM   21  C   UNL     1      -8.954   7.294  73.120  1.00  0.00    -0.144 C  
ENDBRANCH  14  15
ENDBRANCH  13  14
ENDBRANCH   4  13
BRANCH   5  22
HETATM   22  N   UNL     1     -12.073  13.427  66.781  1.00  0.00    -0.386 NA 
HETATM   23  H   UNL     1     -13.088  13.379  66.694  1.00  0.00     0.000 HD 
BRANCH  22  24
HETATM   24  C   UNL     1     -11.522  14.650  67.231  1.00  0.00    -0.372 A  
HETATM   25  C   UNL     1     -11.848  15.150  68.500  1.00  0.00    -0.281 A  
HETATM   26  F   UNL     1     -12.615  14.418  69.323  1.00  0.00    -0.301 F  
HETATM   27  C   UNL     1     -11.400  16.399  68.938  1.00  0.00    -0.272 A  
HETATM   28  C   UNL     1     -10.625  17.175  68.085  1.00  0.00    -0.380 A  
HETATM   29 BR   UNL     1     -10.026  18.882  68.634  1.00  0.00    -0.464 Br 
HETATM   30  C   UNL     1     -10.311  16.719  66.804  1.00  0.00    -0.293 A  
HETATM   31  C   UNL     1     -10.764  15.465  66.381  1.00  0.00    -0.311 A  
ENDBRANCH  22  24
ENDBRANCH   5  22
ENDBRANCH   2   3
TORSDOF 6
ENDMDL
MODEL       58
REMARK 921   NORMALIZED FREE ENERGY PREDICTED BY IDOCK:   -5.95 KCAL/MOL
REMARK 922        TOTAL FREE ENERGY PREDICTED BY IDOCK:   -9.09 KCAL/MOL
REMARK 923 INTER-LIGAND FREE ENERGY PREDICTED BY IDOCK:   -8.05 KCAL/MOL
REMARK 924 INTRA-LIGAND FREE ENERGY PREDICTED BY IDOCK:   -1.04 KCAL/MOL
REMARK 927      BINDING AFFINITY PREDICTED BY RF-SCORE:    0.00 PKD
ROOT
HETATM    1  C   UNL     1     -12.474  12.484  70.841  1.00  0.00    -0.269 C  
HETATM    2  O   UNL     1     -12.561  13.378  69.730  1.00  0.00    -0.129 OA 
ENDROOT
BRANCH   2   3
HETATM    3  C   UNL     1     -11.965  12.986  68.559  1.00  0.00    -0.261 A  
HETATM    4  C   UNL     1     -11.605  13.950  67.607  1.00  0.00    -0.348 A  
HETATM    5  C   UNL     1     -10.640   9.929  66.771  1.00  0.00    -0.144 A  
HETATM    6  C   UNL     1     -10.989  13.539  66.412  1.00  0.00    -0.297 A  
HETATM    7  N   UNL     1      -9.966   9.624  65.650  1.00  0.00    -0.301 NA 
HETATM    8  C   UNL     1     -10.667  12.216  66.144  1.00  0.00    -0.272 A  
HETATM    9  C   UNL     1     -11.664  11.644  68.281  1.00  0.00    -0.374 A  
HETATM   10  N   UNL     1     -10.020  11.918  65.011  1.00  0.00    -0.256 NA 
HETATM   11  C   UNL     1     -11.019  11.248  67.083  1.00  0.00    -0.348 A  
HETATM   12  C   UNL     1      -9.688  10.637  64.825  1.00  0.00    -0.292 A  
BRANCH   4  13
HETATM   13  O   UNL     1     -11.815  15.307  67.624  1.00  0.00    -0.265 OA 
BRANCH  13  14
HETATM   14  C   UNL     1     -10.842  16.138  68.253  1.00  0.00    -0.326 C  
BRANCH  14  15
HETATM   15  C   UNL     1     -10.291  17.165  67.230  1.00  0.00    -0.320 C  
HETATM   16  N   UNL     1      -8.630  19.401  68.344  1.00  0.00    -0.351 NA 
HETATM   17  C   UNL     1      -8.754  17.205  67.074  1.00  0.00    -0.244 C  
HETATM   18  C   UNL     1      -8.413  20.379  67.278  1.00  0.00    -0.331 C  
HETATM   19  C   UNL     1      -8.011  18.100  68.074  1.00  0.00    -0.264 C  
HETATM   20  C   UNL     1     -10.836  18.565  67.541  1.00  0.00    -0.337 C  
HETATM   21  C   UNL     1     -10.050  19.239  68.665  1.00  0.00    -0.419 C  
ENDBRANCH  14  15
ENDBRANCH  13  14
ENDBRANCH   4  13
BRANCH   5  22
HETATM   22  N   UNL     1     -11.007   8.878  67.649  1.00  0.00    -0.475 NA 
HETATM   23  H   UNL     1     -12.004   8.697  67.765  1.00  0.00     0.000 HD 
BRANCH  22  24
HETATM   24  C   UNL     1     -10.115   8.058  68.378  1.00  0.00    -0.195 A  
HETATM   25  C   UNL     1     -10.402   6.701  68.579  1.00  0.00    -0.192 A  
HETATM   26  F   UNL     1     -11.485   6.160  67.999  1.00  0.00    -0.384 F  
HETATM   27  C   UNL     1      -9.593   5.885  69.375  1.00  0.00    -0.171 A  
HETATM   28  C   UNL     1      -8.482   6.440  69.999  1.00  0.00    -0.135 A  
HETATM   29 BR   UNL     1      -7.382   5.373  71.107  1.00  0.00    -0.086 Br 
HETATM   30  C   UNL     1      -8.189   7.795  69.845  1.00  0.00    -0.125 A  
HETATM   31  C   UNL     1      -9.006   8.597  69.043  1.00  0.00    -0.142 A  
ENDBRANCH  22  24
ENDBRANCH   5  22
ENDBRANCH   2   3
TORSDOF 6
ENDMDL
MODEL       59
REMARK 921   NORMALIZED FREE ENERGY PREDICTED BY IDOCK:   -5.86 KCAL/MOL
REMARK 922        TOTAL FREE ENERGY PREDICTED BY IDOCK:   -8.97 KCAL/MOL
REMARK 923 INTER-LIGAND FREE ENERGY PREDICTED BY IDOCK:   -7.96 KCAL/MOL
REMARK 924 INTRA-LIGAND FREE ENERGY PREDICTED BY IDOCK:   -1.01 KCAL/MOL
REMARK 927      BINDING AFFINITY PREDICTED BY RF-SCORE:    0.00 PKD
ROOT
HETATM    1  C   UNL     1     -12.078  11.637  70.365  1.00  0.00    -0.373 C  
HETATM    2  O   UNL     1     -12.128  11.913  68.963  1.00  0.00    -0.284 OA 
ENDROOT
BRANCH   2   3
HETATM    3  C   UNL     1     -11.348  11.142  68.142  1.00  0.00    -0.309 A  
HETATM    4  C   UNL     1     -10.468  11.758  67.241  1.00  0.00    -0.214 A  
HETATM    5  C   UNL     1     -10.466   7.542  67.393  1.00  0.00    -0.297 A  
HETATM    6  C   UNL     1      -9.666  10.958  66.407  1.00  0.00    -0.240 A  
HETATM    7  N   UNL     1      -9.604   6.847  66.632  1.00  0.00    -0.174 NA 
HETATM    8  C   UNL     1      -9.664   9.572  66.465  1.00  0.00    -0.222 A  
HETATM    9  C   UNL     1     -11.366   9.740  68.186  1.00  0.00     0.058 A  
HETATM   10  N   UNL     1      -8.822   8.887  65.682  1.00  0.00    -0.180 NA 
HETATM   11  C   UNL     1     -10.534   8.947  67.357  1.00  0.00    -0.347 A  
HETATM   12  C   UNL     1      -8.823   7.557  65.814  1.00  0.00    -0.090 A  
BRANCH   4  13
HETATM   13  O   UNL     1     -10.283  13.095  66.985  1.00  0.00    -0.245 OA 
BRANCH  13  14
HETATM   14  C   UNL     1      -9.087  13.717  67.446  1.00  0.00    -0.221 C  
BRANCH  14  15
HETATM   15  C   UNL     1      -8.954  15.127  66.810  1.00  0.00    -0.293 C  
HETATM   16  N   UNL     1      -9.897  17.437  68.475  1.00  0.00    -0.303 NA 
HETATM   17  C   UNL     1      -7.970  16.092  67.510  1.00  0.00    -0.165 C  
HETATM   18  C   UNL     1      -9.915  18.629  67.627  1.00  0.00    -0.341 C  
HETATM   19  C   UNL     1      -8.551  16.893  68.683  1.00  0.00    -0.267 C  
HETATM   20  C   UNL     1     -10.337  15.776  66.671  1.00  0.00    -0.292 C  
HETATM   21  C   UNL     1     -10.804  16.397  67.987  1.00  0.00    -0.342 C  
ENDBRANCH  14  15
ENDBRANCH  13  14
ENDBRANCH   4  13
BRANCH   5  22
HETATM   22  N   UNL     1     -11.356   6.828  68.236  1.00  0.00    -0.553 NA 
HETATM   23  H   UNL     1     -12.330   6.772  67.941  1.00  0.00     0.000 HD 
BRANCH  22  24
HETATM   24  C   UNL     1     -11.012   6.185  69.448  1.00  0.00    -0.385 A  
HETATM   25  C   UNL     1     -11.493   6.674  70.671  1.00  0.00    -0.364 A  
HETATM   26  F   UNL     1     -12.355   7.702  70.680  1.00  0.00    -0.242 F  
HETATM   27  C   UNL     1     -11.096   6.123  71.893  1.00  0.00    -0.324 A  
HETATM   28  C   UNL     1     -10.186   5.073  71.896  1.00  0.00    -0.204 A  
HETATM   29 BR   UNL     1      -9.605   4.324  73.532  1.00  0.00    -0.141 Br 
HETATM   30  C   UNL     1      -9.665   4.587  70.697  1.00  0.00    -0.282 A  
HETATM   31  C   UNL     1     -10.073   5.146  69.482  1.00  0.00    -0.316 A  
ENDBRANCH  22  24
ENDBRANCH   5  22
ENDBRANCH   2   3
TORSDOF 6
ENDMDL
MODEL       60
REMARK 921   NORMALIZED FREE ENERGY PREDICTED BY IDOCK:   -5.84 KCAL/MOL
REMARK 922        TOTAL FREE ENERGY PREDICTED BY IDOCK:   -8.94 KCAL/MOL
REMARK 923 INTER-LIGAND FREE ENERGY PREDICTED BY IDOCK:   -7.82 KCAL/MOL
REMARK 924 INTRA-LIGAND FREE ENERGY PREDICTED BY IDOCK:   -1.12 KCAL/MOL
REMARK 927      BINDING AFFINITY PREDICTED BY RF-SCORE:    0.00 PKD
ROOT
HETATM    1  C   UNL     1      -8.862  14.057  68.806  1.00  0.00    -0.031 C  
HETATM    2  O   UNL     1     -10.135  14.013  68.158  1.00  0.00    -0.231 OA 
ENDROOT
BRANCH   2   3
HETATM    3  C   UNL     1     -10.197  13.398  66.935  1.00  0.00    -0.252 A  
HETATM    4  C   UNL     1     -10.766  14.074  65.846  1.00  0.00    -0.293 A  
HETATM    5  C   UNL     1      -9.163  10.237  65.135  1.00  0.00    -0.206 A  
HETATM    6  C   UNL     1     -10.819  13.438  64.594  1.00  0.00    -0.405 A  
HETATM    7  N   UNL     1      -9.166   9.733  63.890  1.00  0.00    -0.245 NA 
HETATM    8  C   UNL     1     -10.285  12.179  64.362  1.00  0.00    -0.306 A  
HETATM    9  C   UNL     1      -9.678  12.114  66.711  1.00  0.00    -0.215 A  
HETATM   10  N   UNL     1     -10.318  11.673  63.123  1.00  0.00    -0.366 NA 
HETATM   11  C   UNL     1      -9.715  11.496  65.436  1.00  0.00    -0.262 A  
HETATM   12  C   UNL     1      -9.743  10.479  62.945  1.00  0.00    -0.265 A  
BRANCH   4  13
HETATM   13  O   UNL     1     -11.364  15.310  65.809  1.00  0.00    -0.293 OA 
BRANCH  13  14
HETATM   14  C   UNL     1     -10.575  16.437  65.437  1.00  0.00    -0.320 C  
BRANCH  14  15
HETATM   15  C   UNL     1     -10.129  17.205  66.709  1.00  0.00    -0.303 C  
HETATM   16  N   UNL     1      -8.329  19.566  66.280  1.00  0.00    -0.337 NA 
HETATM   17  C   UNL     1     -10.636  18.660  66.832  1.00  0.00    -0.437 C  
HETATM   18  C   UNL     1      -7.831  20.000  67.585  1.00  0.00    -0.306 C  
HETATM   19  C   UNL     1      -9.778  19.721  66.130  1.00  0.00    -0.418 C  
HETATM   20  C   UNL     1      -8.602  17.155  66.847  1.00  0.00    -0.256 C  
HETATM   21  C   UNL     1      -7.921  18.197  65.959  1.00  0.00    -0.115 C  
ENDBRANCH  14  15
ENDBRANCH  13  14
ENDBRANCH   4  13
BRANCH   5  22
HETATM   22  N   UNL     1      -8.612   9.456  66.182  1.00  0.00    -0.132 NA 
HETATM   23  H   UNL     1      -7.597   9.367  66.209  1.00  0.00     0.000 HD 
BRANCH  22  24
HETATM   24  C   UNL     1      -9.344   8.789  67.192  1.00  0.00    -0.150 A  
HETATM   25  C   UNL     1      -9.166   9.131  68.540  1.00  0.00    -0.136 A  
HETATM   26  F   UNL     1      -8.364  10.157  68.863  1.00  0.00    -0.101 F  
HETATM   27  C   UNL     1      -9.800   8.428  69.569  1.00  0.00    -0.181 A  
HETATM   28  C   UNL     1     -10.614   7.349  69.248  1.00  0.00    -0.213 A  
HETATM   29 BR   UNL     1     -11.463   6.358  70.616  1.00  0.00    -0.400 Br 
HETATM   30  C   UNL     1     -10.785   6.964  67.918  1.00  0.00    -0.294 A  
HETATM   31  C   UNL     1     -10.147   7.679  66.899  1.00  0.00    -0.348 A  
ENDBRANCH  22  24
ENDBRANCH   5  22
ENDBRANCH   2   3
TORSDOF 6
ENDMDL
MODEL       61
REMARK 921   NORMALIZED FREE ENERGY PREDICTED BY IDOCK:   -5.84 KCAL/MOL
REMARK 922        TOTAL FREE ENERGY PREDICTED BY IDOCK:   -8.94 KCAL/MOL
REMARK 923 INTER-LIGAND FREE ENERGY PREDICTED BY IDOCK:   -7.84 KCAL/MOL
REMARK 924 INTRA-LIGAND FREE ENERGY PREDICTED BY IDOCK:   -1.09 KCAL/MOL
REMARK 927      BINDING AFFINITY PREDICTED BY RF-SCORE:    0.00 PKD
ROOT
HETATM    1  C   UNL     1      -9.869  10.938  63.177  1.00  0.00    -0.351 C  
HETATM    2  O   UNL     1      -9.114  11.067  64.384  1.00  0.00    -0.181 OA 
ENDROOT
BRANCH   2   3
HETATM    3  C   UNL     1      -9.815  11.206  65.553  1.00  0.00    -0.235 A  
HETATM    4  C   UNL     1     -10.105  10.074  66.328  1.00  0.00    -0.243 A  
HETATM    5  C   UNL     1     -11.327  13.825  67.824  1.00  0.00    -0.303 A  
HETATM    6  C   UNL     1     -10.818  10.228  67.529  1.00  0.00    -0.355 A  
HETATM    7  N   UNL     1     -11.922  13.902  69.027  1.00  0.00    -0.353 NA 
HETATM    8  C   UNL     1     -11.213  11.464  68.022  1.00  0.00    -0.281 A  
HETATM    9  C   UNL     1     -10.234  12.456  66.035  1.00  0.00    -0.267 A  
HETATM   10  N   UNL     1     -11.830  11.528  69.207  1.00  0.00    -0.329 NA 
HETATM   11  C   UNL     1     -10.930  12.598  67.261  1.00  0.00    -0.291 A  
HETATM   12  C   UNL     1     -12.142  12.746  69.659  1.00  0.00    -0.222 A  
BRANCH   4  13
HETATM   13  O   UNL     1      -9.836   8.753  66.067  1.00  0.00    -0.258 OA 
BRANCH  13  14
HETATM   14  C   UNL     1     -10.485   7.758  66.855  1.00  0.00    -0.317 C  
BRANCH  14  15
HETATM   15  C   UNL     1      -9.482   6.624  67.194  1.00  0.00    -0.158 C  
HETATM   16  N   UNL     1      -9.098   4.512  65.098  1.00  0.00    -0.146 NA 
HETATM   17  C   UNL     1      -8.213   6.559  66.314  1.00  0.00    -0.119 C  
HETATM   18  C   UNL     1      -8.319   3.424  65.690  1.00  0.00    -0.102 C  
HETATM   19  C   UNL     1      -8.356   5.773  65.004  1.00  0.00    -0.138 C  
HETATM   20  C   UNL     1     -10.202   5.269  67.200  1.00  0.00    -0.264 C  
HETATM   21  C   UNL     1     -10.375   4.715  65.786  1.00  0.00    -0.264 C  
ENDBRANCH  14  15
ENDBRANCH  13  14
ENDBRANCH   4  13
BRANCH   5  22
HETATM   22  N   UNL     1     -11.123  15.021  67.090  1.00  0.00    -0.327 NA 
HETATM   23  H   UNL     1     -11.660  15.134  66.231  1.00  0.00     0.000 HD 
BRANCH  22  24
HETATM   24  C   UNL     1     -10.243  16.070  67.444  1.00  0.00    -0.273 A  
HETATM   25  C   UNL     1      -8.875  15.977  67.150  1.00  0.00    -0.204 A  
HETATM   26  F   UNL     1      -8.417  14.927  66.451  1.00  0.00    -0.259 F  
HETATM   27  C   UNL     1      -7.963  16.949  67.570  1.00  0.00    -0.186 A  
HETATM   28  C   UNL     1      -8.423  18.029  68.315  1.00  0.00    -0.287 A  
HETATM   29 BR   UNL     1      -7.212  19.347  68.924  1.00  0.00    -0.400 Br 
HETATM   30  C   UNL     1      -9.773  18.132  68.650  1.00  0.00    -0.367 A  
HETATM   31  C   UNL     1     -10.674  17.153  68.220  1.00  0.00    -0.363 A  
ENDBRANCH  22  24
ENDBRANCH   5  22
ENDBRANCH   2   3
TORSDOF 6
ENDMDL
MODEL       62
REMARK 921   NORMALIZED FREE ENERGY PREDICTED BY IDOCK:   -5.83 KCAL/MOL
REMARK 922        TOTAL FREE ENERGY PREDICTED BY IDOCK:   -8.93 KCAL/MOL
REMARK 923 INTER-LIGAND FREE ENERGY PREDICTED BY IDOCK:   -8.06 KCAL/MOL
REMARK 924 INTRA-LIGAND FREE ENERGY PREDICTED BY IDOCK:   -0.87 KCAL/MOL
REMARK 927      BINDING AFFINITY PREDICTED BY RF-SCORE:    0.00 PKD
ROOT
HETATM    1  C   UNL     1     -10.391  10.813  64.895  1.00  0.00    -0.299 C  
HETATM    2  O   UNL     1      -9.635  11.212  66.040  1.00  0.00    -0.202 OA 
ENDROOT
BRANCH   2   3
HETATM    3  C   UNL     1     -10.315  11.372  67.220  1.00  0.00    -0.198 A  
HETATM    4  C   UNL     1     -10.378  10.311  68.134  1.00  0.00    -0.177 A  
HETATM    5  C   UNL     1     -12.197  13.952  69.244  1.00  0.00    -0.277 A  
HETATM    6  C   UNL     1     -11.073  10.487  69.344  1.00  0.00    -0.310 A  
HETATM    7  N   UNL     1     -12.761  14.074  70.458  1.00  0.00    -0.312 NA 
HETATM    8  C   UNL     1     -11.664  11.688  69.709  1.00  0.00    -0.352 A  
HETATM    9  C   UNL     1     -10.933  12.581  67.574  1.00  0.00    -0.288 A  
HETATM   10  N   UNL     1     -12.248  11.791  70.908  1.00  0.00    -0.337 NA 
HETATM   11  C   UNL     1     -11.607  12.752  68.808  1.00  0.00    -0.353 A  
HETATM   12  C   UNL     1     -12.756  12.984  71.231  1.00  0.00    -0.293 A  
BRANCH   4  13
HETATM   13  O   UNL     1      -9.890   9.033  68.015  1.00  0.00    -0.155 OA 
BRANCH  13  14
HETATM   14  C   UNL     1     -10.655   8.077  67.286  1.00  0.00    -0.290 C  
BRANCH  14  15
HETATM   15  C   UNL     1     -10.450   6.666  67.898  1.00  0.00    -0.267 C  
HETATM   16  N   UNL     1      -8.240   5.010  66.728  1.00  0.00    -0.108 NA 
HETATM   17  C   UNL     1      -9.112   6.439  68.638  1.00  0.00    -0.127 C  
HETATM   18  C   UNL     1      -8.361   3.653  67.258  1.00  0.00    -0.095 C  
HETATM   19  C   UNL     1      -7.933   6.010  67.754  1.00  0.00    -0.105 C  
HETATM   20  C   UNL     1     -10.661   5.590  66.826  1.00  0.00    -0.329 C  
HETATM   21  C   UNL     1      -9.418   5.409  65.955  1.00  0.00    -0.146 C  
ENDBRANCH  14  15
ENDBRANCH  13  14
ENDBRANCH   4  13
BRANCH   5  22
HETATM   22  N   UNL     1     -12.229  15.066  68.367  1.00  0.00    -0.577 NA 
HETATM   23  H   UNL     1     -13.131  15.312  67.963  1.00  0.00     0.000 HD 
BRANCH  22  24
HETATM   24  C   UNL     1     -11.120  15.865  68.003  1.00  0.00    -0.334 A  
HETATM   25  C   UNL     1     -10.564  16.767  68.922  1.00  0.00    -0.350 A  
HETATM   26  F   UNL     1     -11.031  16.804  70.179  1.00  0.00    -0.352 F  
HETATM   27  C   UNL     1      -9.532  17.640  68.566  1.00  0.00    -0.298 A  
HETATM   28  C   UNL     1      -9.056  17.626  67.260  1.00  0.00    -0.237 A  
HETATM   29 BR   UNL     1      -7.682  18.814  66.737  1.00  0.00    -0.268 Br 
HETATM   30  C   UNL     1      -9.612  16.763  66.315  1.00  0.00    -0.313 A  
HETATM   31  C   UNL     1     -10.642  15.893  66.687  1.00  0.00    -0.305 A  
ENDBRANCH  22  24
ENDBRANCH   5  22
ENDBRANCH   2   3
TORSDOF 6
ENDMDL
MODEL       63
REMARK 921   NORMALIZED FREE ENERGY PREDICTED BY IDOCK:   -5.80 KCAL/MOL
REMARK 922        TOTAL FREE ENERGY PREDICTED BY IDOCK:   -8.88 KCAL/MOL
REMARK 923 INTER-LIGAND FREE ENERGY PREDICTED BY IDOCK:   -7.63 KCAL/MOL
REMARK 924 INTRA-LIGAND FREE ENERGY PREDICTED BY IDOCK:   -1.25 KCAL/MOL
REMARK 927      BINDING AFFINITY PREDICTED BY RF-SCORE:    0.00 PKD
ROOT
HETATM    1  C   UNL     1      -8.141   7.595  66.971  1.00  0.00    -0.117 C  
HETATM    2  O   UNL     1      -7.810   8.382  68.117  1.00  0.00    -0.107 OA 
ENDROOT
BRANCH   2   3
HETATM    3  C   UNL     1      -8.830   8.706  68.974  1.00  0.00    -0.138 A  
HETATM    4  C   UNL     1      -8.837   8.182  70.274  1.00  0.00    -0.141 A  
HETATM    5  C   UNL     1     -11.935  10.850  69.230  1.00  0.00    -0.310 A  
HETATM    6  C   UNL     1      -9.884   8.526  71.148  1.00  0.00    -0.263 A  
HETATM    7  N   UNL     1     -12.848  11.205  70.150  1.00  0.00    -0.090 NA 
HETATM    8  C   UNL     1     -10.897   9.409  70.803  1.00  0.00    -0.305 A  
HETATM    9  C   UNL     1      -9.867   9.580  68.613  1.00  0.00    -0.173 A  
HETATM   10  N   UNL     1     -11.819   9.734  71.717  1.00  0.00    -0.347 NA 
HETATM   11  C   UNL     1     -10.901   9.938  69.513  1.00  0.00    -0.274 A  
HETATM   12  C   UNL     1     -12.742  10.628  71.350  1.00  0.00    -0.440 A  
BRANCH   4  13
HETATM   13  O   UNL     1      -7.967   7.293  70.856  1.00  0.00    -0.096 OA 
BRANCH  13  14
HETATM   14  C   UNL     1      -7.978   7.160  72.275  1.00  0.00    -0.097 C  
BRANCH  14  15
HETATM   15  C   UNL     1      -8.256   5.683  72.660  1.00  0.00    -0.113 C  
HETATM   16  N   UNL     1     -11.126   4.940  73.119  1.00  0.00    -0.300 NA 
HETATM   17  C   UNL     1      -9.067   4.859  71.634  1.00  0.00    -0.169 C  
HETATM   18  C   UNL     1     -11.159   3.597  73.699  1.00  0.00    -0.225 C  
HETATM   19  C   UNL     1     -10.593   4.971  71.754  1.00  0.00    -0.134 C  
HETATM   20  C   UNL     1      -8.912   5.613  74.045  1.00  0.00    -0.122 C  
HETATM   21  C   UNL     1     -10.413   5.893  73.973  1.00  0.00    -0.261 C  
ENDBRANCH  14  15
ENDBRANCH  13  14
ENDBRANCH   4  13
BRANCH   5  22
HETATM   22  N   UNL     1     -12.040  11.393  67.925  1.00  0.00    -0.621 NA 
HETATM   23  H   UNL     1     -12.400  10.779  67.195  1.00  0.00     0.000 HD 
BRANCH  22  24
HETATM   24  C   UNL     1     -11.691  12.710  67.545  1.00  0.00    -0.368 A  
HETATM   25  C   UNL     1     -12.027  13.192  66.272  1.00  0.00    -0.415 A  
HETATM   26  F   UNL     1     -12.761  12.430  65.446  1.00  0.00    -0.479 F  
HETATM   27  C   UNL     1     -11.614  14.452  65.828  1.00  0.00    -0.353 A  
HETATM   28  C   UNL     1     -10.834  15.240  66.666  1.00  0.00    -0.310 A  
HETATM   29 BR   UNL     1     -10.234  16.937  66.086  1.00  0.00    -0.331 Br 
HETATM   30  C   UNL     1     -10.457  14.774  67.925  1.00  0.00    -0.246 A  
HETATM   31  C   UNL     1     -10.880  13.512  68.356  1.00  0.00    -0.286 A  
ENDBRANCH  22  24
ENDBRANCH   5  22
ENDBRANCH   2   3
TORSDOF 6
ENDMDL
MODEL       64
REMARK 921   NORMALIZED FREE ENERGY PREDICTED BY IDOCK:   -5.80 KCAL/MOL
REMARK 922        TOTAL FREE ENERGY PREDICTED BY IDOCK:   -8.88 KCAL/MOL
REMARK 923 INTER-LIGAND FREE ENERGY PREDICTED BY IDOCK:   -7.72 KCAL/MOL
REMARK 924 INTRA-LIGAND FREE ENERGY PREDICTED BY IDOCK:   -1.15 KCAL/MOL
REMARK 927      BINDING AFFINITY PREDICTED BY RF-SCORE:    0.00 PKD
ROOT
HETATM    1  C   UNL     1      -7.635  14.899  69.231  1.00  0.00    -0.170 C  
HETATM    2  O   UNL     1      -9.056  14.846  69.086  1.00  0.00    -0.192 OA 
ENDROOT
BRANCH   2   3
HETATM    3  C   UNL     1      -9.550  14.415  67.883  1.00  0.00    -0.219 A  
HETATM    4  C   UNL     1     -10.240  15.311  67.055  1.00  0.00    -0.260 A  
HETATM    5  C   UNL     1      -9.646  11.390  65.616  1.00  0.00    -0.231 A  
HETATM    6  C   UNL     1     -10.738  14.861  65.819  1.00  0.00    -0.338 A  
HETATM    7  N   UNL     1     -10.068  11.060  64.384  1.00  0.00    -0.306 NA 
HETATM    8  C   UNL     1     -10.534  13.572  65.346  1.00  0.00    -0.315 A  
HETATM    9  C   UNL     1      -9.363  13.104  67.419  1.00  0.00    -0.213 A  
HETATM   10  N   UNL     1     -10.984  13.245  64.129  1.00  0.00    -0.385 NA 
HETATM   11  C   UNL     1      -9.848  12.671  66.160  1.00  0.00    -0.265 A  
HETATM   12  C   UNL     1     -10.716  12.007  63.701  1.00  0.00    -0.449 A  
BRANCH   4  13
HETATM   13  O   UNL     1     -10.579  16.622  67.286  1.00  0.00    -0.320 OA 
BRANCH  13  14
HETATM   14  C   UNL     1      -9.871  17.641  66.586  1.00  0.00    -0.309 C  
BRANCH  14  15
HETATM   15  C   UNL     1      -8.411  17.718  67.108  1.00  0.00    -0.239 C  
HETATM   16  N   UNL     1      -7.173  20.448  67.216  1.00  0.00    -0.283 NA 
HETATM   17  C   UNL     1      -8.210  18.477  68.439  1.00  0.00    -0.351 C  
HETATM   18  C   UNL     1      -5.746  20.287  67.496  1.00  0.00    -0.180 C  
HETATM   19  C   UNL     1      -8.035  19.997  68.312  1.00  0.00    -0.179 C  
HETATM   20  C   UNL     1      -7.490  18.285  66.020  1.00  0.00    -0.255 C  
HETATM   21  C   UNL     1      -7.564  19.810  65.957  1.00  0.00    -0.330 C  
ENDBRANCH  14  15
ENDBRANCH  13  14
ENDBRANCH   4  13
BRANCH   5  22
HETATM   22  N   UNL     1      -9.003  10.399  66.401  1.00  0.00    -0.147 NA 
HETATM   23  H   UNL     1      -8.281  10.716  67.048  1.00  0.00     0.000 HD 
BRANCH  22  24
HETATM   24  C   UNL     1      -9.272   9.011  66.366  1.00  0.00    -0.188 A  
HETATM   25  C   UNL     1     -10.381   8.487  67.046  1.00  0.00    -0.309 A  
HETATM   26  F   UNL     1     -11.239   9.320  67.656  1.00  0.00    -0.252 F  
HETATM   27  C   UNL     1     -10.622   7.112  67.114  1.00  0.00    -0.417 A  
HETATM   28  C   UNL     1      -9.728   6.239  66.505  1.00  0.00    -0.137 A  
HETATM   29 BR   UNL     1     -10.008   4.372  66.603  1.00  0.00    -0.191 Br 
HETATM   30  C   UNL     1      -8.598   6.729  65.850  1.00  0.00    -0.153 A  
HETATM   31  C   UNL     1      -8.372   8.107  65.788  1.00  0.00    -0.140 A  
ENDBRANCH  22  24
ENDBRANCH   5  22
ENDBRANCH   2   3
TORSDOF 6
ENDMDL
MODEL       65
REMARK 921   NORMALIZED FREE ENERGY PREDICTED BY IDOCK:   -5.78 KCAL/MOL
REMARK 922        TOTAL FREE ENERGY PREDICTED BY IDOCK:   -8.86 KCAL/MOL
REMARK 923 INTER-LIGAND FREE ENERGY PREDICTED BY IDOCK:   -7.85 KCAL/MOL
REMARK 924 INTRA-LIGAND FREE ENERGY PREDICTED BY IDOCK:   -1.01 KCAL/MOL
REMARK 927      BINDING AFFINITY PREDICTED BY RF-SCORE:    0.00 PKD
ROOT
HETATM    1  C   UNL     1     -10.648  10.456  70.221  1.00  0.00    -0.123 C  
HETATM    2  O   UNL     1     -11.435   9.927  69.151  1.00  0.00    -0.108 OA 
ENDROOT
BRANCH   2   3
HETATM    3  C   UNL     1     -10.983  10.137  67.874  1.00  0.00    -0.277 A  
HETATM    4  C   UNL     1     -10.182   9.169  67.253  1.00  0.00    -0.254 A  
HETATM    5  C   UNL     1     -11.228  12.576  64.994  1.00  0.00    -0.306 A  
HETATM    6  C   UNL     1      -9.730   9.391  65.940  1.00  0.00    -0.355 A  
HETATM    7  N   UNL     1     -10.836  12.673  63.713  1.00  0.00    -0.427 NA 
HETATM    8  C   UNL     1     -10.082  10.509  65.198  1.00  0.00    -0.314 A  
HETATM    9  C   UNL     1     -11.321  11.282  67.136  1.00  0.00    -0.295 A  
HETATM   10  N   UNL     1      -9.663  10.611  63.931  1.00  0.00    -0.296 NA 
HETATM   11  C   UNL     1     -10.879  11.480  65.804  1.00  0.00    -0.319 A  
HETATM   12  C   UNL     1     -10.072  11.682  63.245  1.00  0.00    -0.423 A  
BRANCH   4  13
HETATM   13  O   UNL     1      -9.692   7.992  67.762  1.00  0.00    -0.147 OA 
BRANCH  13  14
HETATM   14  C   UNL     1     -10.619   6.995  68.184  1.00  0.00    -0.204 C  
BRANCH  14  15
HETATM   15  C   UNL     1     -10.377   6.655  69.679  1.00  0.00    -0.226 C  
HETATM   16  N   UNL     1      -8.087   4.812  70.278  1.00  0.00    -0.071 NA 
HETATM   17  C   UNL     1      -9.048   7.164  70.280  1.00  0.00    -0.156 C  
HETATM   18  C   UNL     1      -8.172   4.427  71.686  1.00  0.00    -0.097 C  
HETATM   19  C   UNL     1      -7.836   6.243  70.081  1.00  0.00    -0.106 C  
HETATM   20  C   UNL     1     -10.529   5.146  69.909  1.00  0.00    -0.296 C  
HETATM   21  C   UNL     1      -9.263   4.386  69.516  1.00  0.00    -0.130 C  
ENDBRANCH  14  15
ENDBRANCH  13  14
ENDBRANCH   4  13
BRANCH   5  22
HETATM   22  N   UNL     1     -11.993  13.632  65.552  1.00  0.00    -0.362 NA 
HETATM   23  H   UNL     1     -13.007  13.562  65.472  1.00  0.00     0.000 HD 
BRANCH  22  24
HETATM   24  C   UNL     1     -11.476  14.772  66.209  1.00  0.00    -0.316 A  
HETATM   25  C   UNL     1     -10.896  15.814  65.471  1.00  0.00    -0.332 A  
HETATM   26  F   UNL     1     -10.915  15.766  64.130  1.00  0.00    -0.283 F  
HETATM   27  C   UNL     1     -10.289  16.909  66.093  1.00  0.00    -0.327 A  
HETATM   28  C   UNL     1     -10.243  16.957  67.481  1.00  0.00    -0.295 A  
HETATM   29 BR   UNL     1      -9.403  18.409  68.354  1.00  0.00    -0.363 Br 
HETATM   30  C   UNL     1     -10.782  15.920  68.242  1.00  0.00    -0.291 A  
HETATM   31  C   UNL     1     -11.389  14.832  67.606  1.00  0.00    -0.352 A  
ENDBRANCH  22  24
ENDBRANCH   5  22
ENDBRANCH   2   3
TORSDOF 6
ENDMDL
MODEL       66
REMARK 921   NORMALIZED FREE ENERGY PREDICTED BY IDOCK:   -5.78 KCAL/MOL
REMARK 922        TOTAL FREE ENERGY PREDICTED BY IDOCK:   -8.86 KCAL/MOL
REMARK 923 INTER-LIGAND FREE ENERGY PREDICTED BY IDOCK:   -8.14 KCAL/MOL
REMARK 924 INTRA-LIGAND FREE ENERGY PREDICTED BY IDOCK:   -0.72 KCAL/MOL
REMARK 927      BINDING AFFINITY PREDICTED BY RF-SCORE:    0.00 PKD
ROOT
HETATM    1  C   UNL     1     -12.745  13.384  70.810  1.00  0.00    -0.228 C  
HETATM    2  O   UNL     1     -11.853  12.307  70.515  1.00  0.00    -0.277 OA 
ENDROOT
BRANCH   2   3
HETATM    3  C   UNL     1     -11.513  12.113  69.202  1.00  0.00    -0.296 A  
HETATM    4  C   UNL     1     -11.258  10.816  68.735  1.00  0.00    -0.272 A  
HETATM    5  C   UNL     1     -11.086  13.966  65.933  1.00  0.00    -0.291 A  
HETATM    6  C   UNL     1     -10.916  10.627  67.384  1.00  0.00    -0.361 A  
HETATM    7  N   UNL     1     -10.846  13.696  64.639  1.00  0.00    -0.389 NA 
HETATM    8  C   UNL     1     -10.867  11.664  66.464  1.00  0.00    -0.284 A  
HETATM    9  C   UNL     1     -11.441  13.169  68.280  1.00  0.00    -0.349 A  
HETATM   10  N   UNL     1     -10.599  11.389  65.182  1.00  0.00    -0.293 NA 
HETATM   11  C   UNL     1     -11.120  12.959  66.915  1.00  0.00    -0.312 A  
HETATM   12  C   UNL     1     -10.615  12.417  64.329  1.00  0.00    -0.363 A  
BRANCH   4  13
HETATM   13  O   UNL     1     -11.233   9.633  69.431  1.00  0.00    -0.187 OA 
BRANCH  13  14
HETATM   14  C   UNL     1     -10.124   9.370  70.287  1.00  0.00    -0.240 C  
BRANCH  14  15
HETATM   15  C   UNL     1      -9.481   8.010  69.907  1.00  0.00    -0.160 C  
HETATM   16  N   UNL     1     -10.785   5.555  71.033  1.00  0.00    -0.232 NA 
HETATM   17  C   UNL     1     -10.350   7.071  69.042  1.00  0.00    -0.208 C  
HETATM   18  C   UNL     1      -9.909   4.414  70.769  1.00  0.00    -0.203 C  
HETATM   19  C   UNL     1     -11.322   6.170  69.816  1.00  0.00    -0.382 C  
HETATM   20  C   UNL     1      -8.997   7.284  71.169  1.00  0.00    -0.147 C  
HETATM   21  C   UNL     1     -10.142   6.562  71.879  1.00  0.00    -0.182 C  
ENDBRANCH  14  15
ENDBRANCH  13  14
ENDBRANCH   4  13
BRANCH   5  22
HETATM   22  N   UNL     1     -11.281  15.316  66.319  1.00  0.00    -0.278 NA 
HETATM   23  H   UNL     1     -12.213  15.578  66.637  1.00  0.00     0.000 HD 
BRANCH  22  24
HETATM   24  C   UNL     1     -10.297  16.332  66.302  1.00  0.00    -0.326 A  
HETATM   25  C   UNL     1      -8.947  16.016  66.513  1.00  0.00    -0.292 A  
HETATM   26  F   UNL     1      -8.580  14.732  66.641  1.00  0.00    -0.253 F  
HETATM   27  C   UNL     1      -7.963  17.005  66.599  1.00  0.00    -0.302 A  
HETATM   28  C   UNL     1      -8.336  18.340  66.491  1.00  0.00    -0.266 A  
HETATM   29 BR   UNL     1      -7.035  19.704  66.632  1.00  0.00    -0.227 Br 
HETATM   30  C   UNL     1      -9.675  18.687  66.314  1.00  0.00    -0.324 A  
HETATM   31  C   UNL     1     -10.648  17.686  66.226  1.00  0.00    -0.215 A  
ENDBRANCH  22  24
ENDBRANCH   5  22
ENDBRANCH   2   3
TORSDOF 6
ENDMDL
MODEL       67
REMARK 921   NORMALIZED FREE ENERGY PREDICTED BY IDOCK:   -5.75 KCAL/MOL
REMARK 922        TOTAL FREE ENERGY PREDICTED BY IDOCK:   -8.81 KCAL/MOL
REMARK 923 INTER-LIGAND FREE ENERGY PREDICTED BY IDOCK:   -7.88 KCAL/MOL
REMARK 924 INTRA-LIGAND FREE ENERGY PREDICTED BY IDOCK:   -0.93 KCAL/MOL
REMARK 927      BINDING AFFINITY PREDICTED BY RF-SCORE:    0.00 PKD
ROOT
HETATM    1  C   UNL     1      -9.505   6.662  67.894  1.00  0.00    -0.117 C  
HETATM    2  O   UNL     1      -9.555   8.069  67.651  1.00  0.00    -0.145 OA 
ENDROOT
BRANCH   2   3
HETATM    3  C   UNL     1     -10.305   8.830  68.510  1.00  0.00    -0.199 A  
HETATM    4  C   UNL     1     -10.460  10.202  68.269  1.00  0.00    -0.211 A  
HETATM    5  C   UNL     1     -12.495   8.565  71.582  1.00  0.00    -0.330 A  
HETATM    6  C   UNL     1     -11.237  10.972  69.151  1.00  0.00    -0.318 A  
HETATM    7  N   UNL     1     -13.296   9.346  72.325  1.00  0.00    -0.458 NA 
HETATM    8  C   UNL     1     -11.911  10.429  70.236  1.00  0.00    -0.312 A  
HETATM    9  C   UNL     1     -10.965   8.280  69.620  1.00  0.00    -0.092 A  
HETATM   10  N   UNL     1     -12.684  11.221  70.988  1.00  0.00    -0.372 NA 
HETATM   11  C   UNL     1     -11.766   9.065  70.487  1.00  0.00    -0.160 A  
HETATM   12  C   UNL     1     -13.351  10.638  71.989  1.00  0.00    -0.304 A  
BRANCH   4  13
HETATM   13  O   UNL     1      -9.901  10.977  67.282  1.00  0.00    -0.175 OA 
BRANCH  13  14
HETATM   14  C   UNL     1      -9.364  12.248  67.638  1.00  0.00    -0.186 C  
BRANCH  14  15
HETATM   15  C   UNL     1      -9.557  13.245  66.465  1.00  0.00    -0.267 C  
HETATM   16  N   UNL     1     -12.388  13.936  65.753  1.00  0.00    -0.460 NA 
HETATM   17  C   UNL     1     -10.189  14.606  66.833  1.00  0.00    -0.262 C  
HETATM   18  C   UNL     1     -12.370  14.681  64.494  1.00  0.00    -0.398 C  
HETATM   19  C   UNL     1     -11.723  14.640  66.854  1.00  0.00    -0.350 C  
HETATM   20  C   UNL     1     -10.343  12.577  65.329  1.00  0.00    -0.310 C  
HETATM   21  C   UNL     1     -11.847  12.584  65.603  1.00  0.00    -0.438 C  
ENDBRANCH  14  15
ENDBRANCH  13  14
ENDBRANCH   4  13
BRANCH   5  22
HETATM   22  N   UNL     1     -12.362   7.198  71.936  1.00  0.00    -0.377 NA 
HETATM   23  H   UNL     1     -13.182   6.605  71.814  1.00  0.00     0.000 HD 
BRANCH  22  24
HETATM   24  C   UNL     1     -11.192   6.585  72.442  1.00  0.00    -0.275 A  
HETATM   25  C   UNL     1     -10.625   5.486  71.782  1.00  0.00    -0.235 A  
HETATM   26  F   UNL     1     -11.145   5.073  70.615  1.00  0.00    -0.144 F  
HETATM   27  C   UNL     1      -9.529   4.795  72.306  1.00  0.00    -0.174 A  
HETATM   28  C   UNL     1      -8.997   5.199  73.525  1.00  0.00    -0.118 A  
HETATM   29 BR   UNL     1      -7.533   4.270  74.277  1.00  0.00    -0.077 Br 
HETATM   30  C   UNL     1      -9.560   6.269  74.222  1.00  0.00    -0.240 A  
HETATM   31  C   UNL     1     -10.655   6.951  73.683  1.00  0.00    -0.371 A  
ENDBRANCH  22  24
ENDBRANCH   5  22
ENDBRANCH   2   3
TORSDOF 6
ENDMDL
MODEL       68
REMARK 921   NORMALIZED FREE ENERGY PREDICTED BY IDOCK:   -5.74 KCAL/MOL
REMARK 922        TOTAL FREE ENERGY PREDICTED BY IDOCK:   -8.80 KCAL/MOL
REMARK 923 INTER-LIGAND FREE ENERGY PREDICTED BY IDOCK:   -7.76 KCAL/MOL
REMARK 924 INTRA-LIGAND FREE ENERGY PREDICTED BY IDOCK:   -1.04 KCAL/MOL
REMARK 927      BINDING AFFINITY PREDICTED BY RF-SCORE:    0.00 PKD
ROOT
HETATM    1  C   UNL     1     -12.403  12.095  63.609  1.00  0.00    -0.568 C  
HETATM    2  O   UNL     1     -11.397  12.592  64.494  1.00  0.00    -0.304 OA 
ENDROOT
BRANCH   2   3
HETATM    3  C   UNL     1     -11.321  12.029  65.741  1.00  0.00    -0.331 A  
HETATM    4  C   UNL     1     -11.764  12.752  66.857  1.00  0.00    -0.380 A  
HETATM    5  C   UNL     1     -10.383   8.818  67.506  1.00  0.00    -0.268 A  
HETATM    6  C   UNL     1     -11.688  12.163  68.132  1.00  0.00    -0.402 A  
HETATM    7  N   UNL     1     -10.429   8.290  68.740  1.00  0.00    -0.204 NA 
HETATM    8  C   UNL     1     -11.240  10.867  68.341  1.00  0.00    -0.285 A  
HETATM    9  C   UNL     1     -10.843  10.726  65.950  1.00  0.00    -0.077 A  
HETATM   10  N   UNL     1     -11.263  10.359  69.578  1.00  0.00    -0.253 NA 
HETATM   11  C   UNL     1     -10.797  10.136  67.238  1.00  0.00    -0.295 A  
HETATM   12  C   UNL     1     -10.869   9.089  69.716  1.00  0.00    -0.205 A  
BRANCH   4  13
HETATM   13  O   UNL     1     -12.239  14.039  66.924  1.00  0.00    -0.436 OA 
BRANCH  13  14
HETATM   14  C   UNL     1     -11.468  15.014  67.621  1.00  0.00    -0.333 C  
BRANCH  14  15
HETATM   15  C   UNL     1     -10.093  15.189  66.922  1.00  0.00    -0.256 C  
HETATM   16  N   UNL     1      -8.921  17.950  66.954  1.00  0.00    -0.250 NA 
HETATM   17  C   UNL     1      -8.912  15.571  67.843  1.00  0.00    -0.173 C  
HETATM   18  C   UNL     1      -7.768  17.963  66.054  1.00  0.00    -0.181 C  
HETATM   19  C   UNL     1      -8.743  17.072  68.114  1.00  0.00    -0.233 C  
HETATM   20  C   UNL     1     -10.214  16.185  65.762  1.00  0.00    -0.397 C  
HETATM   21  C   UNL     1     -10.166  17.631  66.252  1.00  0.00    -0.362 C  
ENDBRANCH  14  15
ENDBRANCH  13  14
ENDBRANCH   4  13
BRANCH   5  22
HETATM   22  N   UNL     1      -9.869   8.027  66.448  1.00  0.00    -0.412 NA 
HETATM   23  H   UNL     1      -9.883   8.435  65.514  1.00  0.00     0.000 HD 
BRANCH  22  24
HETATM   24  C   UNL     1      -9.339   6.721  66.572  1.00  0.00    -0.161 A  
HETATM   25  C   UNL     1     -10.194   5.611  66.618  1.00  0.00    -0.229 A  
HETATM   26  F   UNL     1     -11.514   5.783  66.453  1.00  0.00    -0.163 F  
HETATM   27  C   UNL     1      -9.711   4.317  66.837  1.00  0.00    -0.239 A  
HETATM   28  C   UNL     1      -8.348   4.130  67.032  1.00  0.00    -0.100 A  
HETATM   29 BR   UNL     1      -7.665   2.398  67.360  1.00  0.00    -0.061 Br 
HETATM   30  C   UNL     1      -7.477   5.219  67.024  1.00  0.00    -0.087 A  
HETATM   31  C   UNL     1      -7.974   6.507  66.801  1.00  0.00    -0.108 A  
ENDBRANCH  22  24
ENDBRANCH   5  22
ENDBRANCH   2   3
TORSDOF 6
ENDMDL
MODEL       69
REMARK 921   NORMALIZED FREE ENERGY PREDICTED BY IDOCK:   -5.71 KCAL/MOL
REMARK 922        TOTAL FREE ENERGY PREDICTED BY IDOCK:   -8.76 KCAL/MOL
REMARK 923 INTER-LIGAND FREE ENERGY PREDICTED BY IDOCK:   -7.67 KCAL/MOL
REMARK 924 INTRA-LIGAND FREE ENERGY PREDICTED BY IDOCK:   -1.10 KCAL/MOL
REMARK 927      BINDING AFFINITY PREDICTED BY RF-SCORE:    0.00 PKD
ROOT
HETATM    1  C   UNL     1     -11.071  10.040  70.516  1.00  0.00    -0.331 C  
HETATM    2  O   UNL     1     -11.890  10.537  69.455  1.00  0.00    -0.262 OA 
ENDROOT
BRANCH   2   3
HETATM    3  C   UNL     1     -11.324  10.621  68.209  1.00  0.00    -0.289 A  
HETATM    4  C   UNL     1     -11.561  11.751  67.414  1.00  0.00    -0.280 A  
HETATM    5  C   UNL     1      -8.968   8.797  65.881  1.00  0.00    -0.195 A  
HETATM    6  C   UNL     1     -10.971  11.831  66.141  1.00  0.00    -0.355 A  
HETATM    7  N   UNL     1      -8.366   8.988  64.695  1.00  0.00    -0.164 NA 
HETATM    8  C   UNL     1     -10.113  10.861  65.643  1.00  0.00    -0.261 A  
HETATM    9  C   UNL     1     -10.477   9.625  67.700  1.00  0.00    -0.317 A  
HETATM   10  N   UNL     1      -9.541  11.046  64.447  1.00  0.00    -0.243 NA 
HETATM   11  C   UNL     1      -9.869   9.732  66.424  1.00  0.00    -0.298 A  
HETATM   12  C   UNL     1      -8.683  10.107  64.037  1.00  0.00    -0.212 A  
BRANCH   4  13
HETATM   13  O   UNL     1     -12.366  12.835  67.666  1.00  0.00    -0.250 OA 
BRANCH  13  14
HETATM   14  C   UNL     1     -11.765  14.026  68.169  1.00  0.00    -0.352 C  
BRANCH  14  15
HETATM   15  C   UNL     1     -11.442  13.851  69.677  1.00  0.00    -0.310 C  
HETATM   16  N   UNL     1     -12.368  16.043  71.503  1.00  0.00    -0.435 NA 
HETATM   17  C   UNL     1     -12.660  13.682  70.612  1.00  0.00    -0.366 C  
HETATM   18  C   UNL     1     -11.768  15.821  72.818  1.00  0.00    -0.409 C  
HETATM   19  C   UNL     1     -13.302  14.987  71.104  1.00  0.00    -0.445 C  
HETATM   20  C   UNL     1     -10.547  14.999  70.161  1.00  0.00    -0.155 C  
HETATM   21  C   UNL     1     -11.359  16.258  70.464  1.00  0.00    -0.299 C  
ENDBRANCH  14  15
ENDBRANCH  13  14
ENDBRANCH   4  13
BRANCH   5  22
HETATM   22  N   UNL     1      -8.706   7.597  66.589  1.00  0.00    -0.134 NA 
HETATM   23  H   UNL     1      -8.395   7.688  67.556  1.00  0.00     0.000 HD 
BRANCH  22  24
HETATM   24  C   UNL     1      -8.838   6.286  66.075  1.00  0.00    -0.151 A  
HETATM   25  C   UNL     1     -10.026   5.566  66.266  1.00  0.00    -0.140 A  
HETATM   26  F   UNL     1     -11.072   6.159  66.861  1.00  0.00    -0.368 F  
HETATM   27  C   UNL     1     -10.155   4.236  65.857  1.00  0.00    -0.223 A  
HETATM   28  C   UNL     1      -9.071   3.604  65.261  1.00  0.00    -0.145 A  
HETATM   29 BR   UNL     1      -9.202   1.796  64.722  1.00  0.00    -0.100 Br 
HETATM   30  C   UNL     1      -7.865   4.284  65.087  1.00  0.00    -0.086 A  
HETATM   31  C   UNL     1      -7.752   5.616  65.499  1.00  0.00    -0.089 A  
ENDBRANCH  22  24
ENDBRANCH   5  22
ENDBRANCH   2   3
TORSDOF 6
ENDMDL
MODEL       70
REMARK 921   NORMALIZED FREE ENERGY PREDICTED BY IDOCK:   -5.69 KCAL/MOL
REMARK 922        TOTAL FREE ENERGY PREDICTED BY IDOCK:   -8.73 KCAL/MOL
REMARK 923 INTER-LIGAND FREE ENERGY PREDICTED BY IDOCK:   -7.51 KCAL/MOL
REMARK 924 INTRA-LIGAND FREE ENERGY PREDICTED BY IDOCK:   -1.22 KCAL/MOL
REMARK 927      BINDING AFFINITY PREDICTED BY RF-SCORE:    0.00 PKD
ROOT
HETATM    1  C   UNL     1     -13.044  10.608  71.566  1.00  0.00    -0.424 C  
HETATM    2  O   UNL     1     -12.016  11.254  70.813  1.00  0.00    -0.339 OA 
ENDROOT
BRANCH   2   3
HETATM    3  C   UNL     1     -11.292  10.480  69.943  1.00  0.00    -0.309 A  
HETATM    4  C   UNL     1     -11.371  10.726  68.566  1.00  0.00    -0.295 A  
HETATM    5  C   UNL     1      -8.747   7.684  69.857  1.00  0.00    -0.139 A  
HETATM    6  C   UNL     1     -10.619   9.931  67.682  1.00  0.00    -0.325 A  
HETATM    7  N   UNL     1      -7.990   7.031  68.960  1.00  0.00    -0.115 NA 
HETATM    8  C   UNL     1      -9.752   8.936  68.111  1.00  0.00    -0.160 A  
HETATM    9  C   UNL     1     -10.435   9.459  70.380  1.00  0.00    -0.311 A  
HETATM   10  N   UNL     1      -9.023   8.271  67.207  1.00  0.00    -0.136 NA 
HETATM   11  C   UNL     1      -9.664   8.683  69.479  1.00  0.00    -0.179 A  
HETATM   12  C   UNL     1      -8.166   7.359  67.677  1.00  0.00    -0.118 A  
BRANCH   4  13
HETATM   13  O   UNL     1     -12.148  11.634  67.889  1.00  0.00    -0.613 OA 
BRANCH  13  14
HETATM   14  C   UNL     1     -11.500  12.643  67.118  1.00  0.00    -0.346 C  
BRANCH  14  15
HETATM   15  C   UNL     1     -10.529  13.448  68.022  1.00  0.00    -0.243 C  
HETATM   16  N   UNL     1     -10.776  16.436  67.919  1.00  0.00    -0.326 NA 
HETATM   17  C   UNL     1     -11.184  14.258  69.163  1.00  0.00    -0.302 C  
HETATM   18  C   UNL     1      -9.638  17.009  68.636  1.00  0.00    -0.275 C  
HETATM   19  C   UNL     1     -11.675  15.661  68.780  1.00  0.00    -0.370 C  
HETATM   20  C   UNL     1      -9.636  14.353  67.162  1.00  0.00    -0.251 C  
HETATM   21  C   UNL     1     -10.357  15.640  66.763  1.00  0.00    -0.287 C  
ENDBRANCH  14  15
ENDBRANCH  13  14
ENDBRANCH   4  13
BRANCH   5  22
HETATM   22  N   UNL     1      -8.636   7.330  71.226  1.00  0.00    -0.119 NA 
HETATM   23  H   UNL     1      -8.080   7.944  71.820  1.00  0.00     0.000 HD 
BRANCH  22  24
HETATM   24  C   UNL     1      -9.228   6.201  71.840  1.00  0.00    -0.147 A  
HETATM   25  C   UNL     1      -8.565   4.966  71.840  1.00  0.00    -0.127 A  
HETATM   26  F   UNL     1      -7.326   4.878  71.333  1.00  0.00    -0.062 F  
HETATM   27  C   UNL     1      -9.161   3.809  72.351  1.00  0.00    -0.157 A  
HETATM   28  C   UNL     1     -10.453   3.883  72.857  1.00  0.00    -0.168 A  
HETATM   29 BR   UNL     1     -11.301   2.333  73.529  1.00  0.00    -0.275 Br 
HETATM   30  C   UNL     1     -11.150   5.092  72.841  1.00  0.00    -0.348 A  
HETATM   31  C   UNL     1     -10.539   6.241  72.329  1.00  0.00    -0.244 A  
ENDBRANCH  22  24
ENDBRANCH   5  22
ENDBRANCH   2   3
TORSDOF 6
ENDMDL
MODEL       71
REMARK 921   NORMALIZED FREE ENERGY PREDICTED BY IDOCK:   -5.68 KCAL/MOL
REMARK 922        TOTAL FREE ENERGY PREDICTED BY IDOCK:   -8.72 KCAL/MOL
REMARK 923 INTER-LIGAND FREE ENERGY PREDICTED BY IDOCK:   -7.70 KCAL/MOL
REMARK 924 INTRA-LIGAND FREE ENERGY PREDICTED BY IDOCK:   -1.03 KCAL/MOL
REMARK 927      BINDING AFFINITY PREDICTED BY RF-SCORE:    0.00 PKD
ROOT
HETATM    1  C   UNL     1     -13.430   9.750  71.434  1.00  0.00    -0.322 C  
HETATM    2  O   UNL     1     -12.262   9.167  70.851  1.00  0.00    -0.274 OA 
ENDROOT
BRANCH   2   3
HETATM    3  C   UNL     1     -11.513   9.958  70.019  1.00  0.00    -0.217 A  
HETATM    4  C   UNL     1     -10.332   9.452  69.457  1.00  0.00    -0.214 A  
HETATM    5  C   UNL     1     -11.497  13.354  68.356  1.00  0.00    -0.316 A  
HETATM    6  C   UNL     1      -9.574  10.268  68.600  1.00  0.00    -0.169 A  
HETATM    7  N   UNL     1     -10.770  14.039  67.458  1.00  0.00    -0.266 NA 
HETATM    8  C   UNL     1      -9.964  11.549  68.235  1.00  0.00    -0.202 A  
HETATM    9  C   UNL     1     -11.898  11.262  69.672  1.00  0.00    -0.430 A  
HETATM   10  N   UNL     1      -9.218  12.234  67.360  1.00  0.00    -0.176 NA 
HETATM   11  C   UNL     1     -11.137  12.064  68.786  1.00  0.00    -0.298 A  
HETATM   12  C   UNL     1      -9.665  13.442  67.003  1.00  0.00    -0.239 A  
BRANCH   4  13
HETATM   13  O   UNL     1      -9.728   8.234  69.658  1.00  0.00    -0.171 OA 
BRANCH  13  14
HETATM   14  C   UNL     1      -8.364   8.212  70.069  1.00  0.00    -0.122 C  
BRANCH  14  15
HETATM   15  C   UNL     1      -8.183   7.192  71.225  1.00  0.00    -0.108 C  
HETATM   16  N   UNL     1     -10.201   7.313  73.441  1.00  0.00    -0.311 NA 
HETATM   17  C   UNL     1      -9.302   6.137  71.376  1.00  0.00    -0.163 C  
HETATM   18  C   UNL     1      -9.729   6.459  74.530  1.00  0.00    -0.310 C  
HETATM   19  C   UNL     1     -10.512   6.572  72.214  1.00  0.00    -0.202 C  
HETATM   20  C   UNL     1      -7.958   7.932  72.550  1.00  0.00    -0.157 C  
HETATM   21  C   UNL     1      -9.275   8.412  73.159  1.00  0.00    -0.151 C  
ENDBRANCH  14  15
ENDBRANCH  13  14
ENDBRANCH   4  13
BRANCH   5  22
HETATM   22  N   UNL     1     -12.648  13.971  68.909  1.00  0.00    -0.315 NA 
HETATM   23  H   UNL     1     -13.497  13.960  68.344  1.00  0.00     0.000 HD 
BRANCH  22  24
HETATM   24  C   UNL     1     -12.724  14.599  70.174  1.00  0.00    -0.220 A  
HETATM   25  C   UNL     1     -12.080  15.824  70.398  1.00  0.00    -0.370 A  
HETATM   26  F   UNL     1     -11.464  16.444  69.380  1.00  0.00    -0.306 F  
HETATM   27  C   UNL     1     -12.053  16.423  71.660  1.00  0.00    -0.170 A  
HETATM   28  C   UNL     1     -12.667  15.779  72.727  1.00  0.00    -0.454 A  
HETATM   29 BR   UNL     1     -12.625  16.547  74.454  1.00  0.00    -0.167 Br 
HETATM   30  C   UNL     1     -13.289  14.543  72.543  1.00  0.00    -0.565 A  
HETATM   31  C   UNL     1     -13.310  13.957  71.273  1.00  0.00    -0.314 A  
ENDBRANCH  22  24
ENDBRANCH   5  22
ENDBRANCH   2   3
TORSDOF 6
ENDMDL
MODEL       72
REMARK 921   NORMALIZED FREE ENERGY PREDICTED BY IDOCK:   -5.67 KCAL/MOL
REMARK 922        TOTAL FREE ENERGY PREDICTED BY IDOCK:   -8.71 KCAL/MOL
REMARK 923 INTER-LIGAND FREE ENERGY PREDICTED BY IDOCK:   -7.54 KCAL/MOL
REMARK 924 INTRA-LIGAND FREE ENERGY PREDICTED BY IDOCK:   -1.17 KCAL/MOL
REMARK 927      BINDING AFFINITY PREDICTED BY RF-SCORE:    0.00 PKD
ROOT
HETATM    1  C   UNL     1     -10.937  11.672  64.141  1.00  0.00    -0.376 C  
HETATM    2  O   UNL     1     -10.083  11.821  65.277  1.00  0.00    -0.246 OA 
ENDROOT
BRANCH   2   3
HETATM    3  C   UNL     1     -10.621  12.398  66.397  1.00  0.00    -0.244 A  
HETATM    4  C   UNL     1     -11.054  11.587  67.456  1.00  0.00    -0.272 A  
HETATM    5  C   UNL     1     -11.341  15.767  67.958  1.00  0.00    -0.310 A  
HETATM    6  C   UNL     1     -11.598  12.189  68.604  1.00  0.00    -0.372 A  
HETATM    7  N   UNL     1     -11.785  16.270  69.122  1.00  0.00    -0.229 NA 
HETATM    8  C   UNL     1     -11.685  13.564  68.769  1.00  0.00    -0.337 A  
HETATM    9  C   UNL     1     -10.730  13.789  66.549  1.00  0.00    -0.284 A  
HETATM   10  N   UNL     1     -12.155  14.056  69.921  1.00  0.00    -0.327 NA 
HETATM   11  C   UNL     1     -11.257  14.382  67.723  1.00  0.00    -0.316 A  
HETATM   12  C   UNL     1     -12.169  15.386  70.047  1.00  0.00    -0.361 A  
BRANCH   4  13
HETATM   13  O   UNL     1     -11.084  10.217  67.543  1.00  0.00    -0.298 OA 
BRANCH  13  14
HETATM   14  C   UNL     1     -10.408   9.589  68.628  1.00  0.00    -0.205 C  
BRANCH  14  15
HETATM   15  C   UNL     1      -8.892   9.916  68.559  1.00  0.00    -0.122 C  
HETATM   16  N   UNL     1      -7.016   7.576  68.622  1.00  0.00    -0.076 NA 
HETATM   17  C   UNL     1      -8.152   9.421  67.296  1.00  0.00    -0.110 C  
HETATM   18  C   UNL     1      -5.658   8.089  68.792  1.00  0.00    -0.031 C  
HETATM   19  C   UNL     1      -7.635   7.977  67.355  1.00  0.00    -0.097 C  
HETATM   20  C   UNL     1      -8.186   9.417  69.826  1.00  0.00    -0.146 C  
HETATM   21  C   UNL     1      -7.883   7.921  69.751  1.00  0.00    -0.104 C  
ENDBRANCH  14  15
ENDBRANCH  13  14
ENDBRANCH   4  13
BRANCH   5  22
HETATM   22  N   UNL     1     -10.975  16.667  66.926  1.00  0.00    -0.048 NA 
HETATM   23  H   UNL     1     -11.498  16.607  66.052  1.00  0.00     0.000 HD 
BRANCH  22  24
HETATM   24  C   UNL     1      -9.952  17.640  66.999  1.00  0.00    -0.320 A  
HETATM   25  C   UNL     1      -8.672  17.361  66.497  1.00  0.00    -0.260 A  
HETATM   26  F   UNL     1      -8.446  16.199  65.865  1.00  0.00    -0.357 F  
HETATM   27  C   UNL     1      -7.612  18.262  66.639  1.00  0.00    -0.259 A  
HETATM   28  C   UNL     1      -7.829  19.458  67.313  1.00  0.00    -0.257 A  
HETATM   29 BR   UNL     1      -6.411  20.686  67.549  1.00  0.00    -0.353 Br 
HETATM   30  C   UNL     1      -9.083  19.749  67.851  1.00  0.00    -0.404 A  
HETATM   31  C   UNL     1     -10.134  18.839  67.698  1.00  0.00    -0.415 A  
ENDBRANCH  22  24
ENDBRANCH   5  22
ENDBRANCH   2   3
TORSDOF 6
ENDMDL
MODEL       73
REMARK 921   NORMALIZED FREE ENERGY PREDICTED BY IDOCK:   -5.66 KCAL/MOL
REMARK 922        TOTAL FREE ENERGY PREDICTED BY IDOCK:   -8.70 KCAL/MOL
REMARK 923 INTER-LIGAND FREE ENERGY PREDICTED BY IDOCK:   -7.76 KCAL/MOL
REMARK 924 INTRA-LIGAND FREE ENERGY PREDICTED BY IDOCK:   -0.93 KCAL/MOL
REMARK 927      BINDING AFFINITY PREDICTED BY RF-SCORE:    0.00 PKD
ROOT
HETATM    1  C   UNL     1     -12.327  12.793  63.502  1.00  0.00    -0.467 C  
HETATM    2  O   UNL     1     -12.611  13.093  64.870  1.00  0.00    -0.560 OA 
ENDROOT
BRANCH   2   3
HETATM    3  C   UNL     1     -11.667  12.744  65.800  1.00  0.00    -0.402 A  
HETATM    4  C   UNL     1     -11.221  13.695  66.728  1.00  0.00    -0.314 A  
HETATM    5  C   UNL     1      -9.670   9.784  67.048  1.00  0.00    -0.183 A  
HETATM    6  C   UNL     1     -10.257  13.325  67.683  1.00  0.00    -0.228 A  
HETATM    7  N   UNL     1      -8.824   9.482  68.046  1.00  0.00    -0.124 NA 
HETATM    8  C   UNL     1      -9.755  12.036  67.789  1.00  0.00    -0.192 A  
HETATM    9  C   UNL     1     -11.143  11.445  65.888  1.00  0.00    -0.225 A  
HETATM   10  N   UNL     1      -8.889  11.751  68.769  1.00  0.00    -0.047 NA 
HETATM   11  C   UNL     1     -10.191  11.080  66.873  1.00  0.00    -0.263 A  
HETATM   12  C   UNL     1      -8.476  10.484  68.859  1.00  0.00    -0.152 A  
BRANCH   4  13
HETATM   13  O   UNL     1     -11.550  15.024  66.833  1.00  0.00    -0.323 OA 
BRANCH  13  14
HETATM   14  C   UNL     1     -10.805  15.840  67.734  1.00  0.00    -0.316 C  
BRANCH  14  15
HETATM   15  C   UNL     1     -10.027  16.922  66.939  1.00  0.00    -0.279 C  
HETATM   16  N   UNL     1      -8.627  19.022  68.560  1.00  0.00    -0.348 NA 
HETATM   17  C   UNL     1      -8.493  16.927  67.130  1.00  0.00    -0.218 C  
HETATM   18  C   UNL     1      -8.166  20.067  67.646  1.00  0.00    -0.309 C  
HETATM   19  C   UNL     1      -7.979  17.726  68.335  1.00  0.00    -0.293 C  
HETATM   20  C   UNL     1     -10.610  18.311  67.229  1.00  0.00    -0.406 C  
HETATM   21  C   UNL     1     -10.084  18.879  68.547  1.00  0.00    -0.402 C  
ENDBRANCH  14  15
ENDBRANCH  13  14
ENDBRANCH   4  13
BRANCH   5  22
HETATM   22  N   UNL     1     -10.023   8.767  66.126  1.00  0.00    -0.428 NA 
HETATM   23  H   UNL     1     -10.503   9.058  65.275  1.00  0.00     0.000 HD 
BRANCH  22  24
HETATM   24  C   UNL     1      -9.769   7.384  66.281  1.00  0.00    -0.013 A  
HETATM   25  C   UNL     1      -8.566   6.829  65.822  1.00  0.00    -0.137 A  
HETATM   26  F   UNL     1      -7.616   7.631  65.316  1.00  0.00    -0.071 F  
HETATM   27  C   UNL     1      -8.323   5.453  65.871  1.00  0.00    -0.123 A  
HETATM   28  C   UNL     1      -9.308   4.611  66.372  1.00  0.00    -0.149 A  
HETATM   29 BR   UNL     1      -9.025   2.742  66.425  1.00  0.00    -0.139 Br 
HETATM   30  C   UNL     1     -10.529   5.131  66.805  1.00  0.00    -0.306 A  
HETATM   31  C   UNL     1     -10.756   6.509  66.753  1.00  0.00    -0.344 A  
ENDBRANCH  22  24
ENDBRANCH   5  22
ENDBRANCH   2   3
TORSDOF 6
ENDMDL
MODEL       74
REMARK 921   NORMALIZED FREE ENERGY PREDICTED BY IDOCK:   -5.60 KCAL/MOL
REMARK 922        TOTAL FREE ENERGY PREDICTED BY IDOCK:   -8.62 KCAL/MOL
REMARK 923 INTER-LIGAND FREE ENERGY PREDICTED BY IDOCK:   -7.42 KCAL/MOL
REMARK 924 INTRA-LIGAND FREE ENERGY PREDICTED BY IDOCK:   -1.20 KCAL/MOL
REMARK 927      BINDING AFFINITY PREDICTED BY RF-SCORE:    0.00 PKD
ROOT
HETATM    1  C   UNL     1      -8.713  10.259  67.216  1.00  0.00    -0.125 C  
HETATM    2  O   UNL     1      -8.763  10.911  68.486  1.00  0.00    -0.139 OA 
ENDROOT
BRANCH   2   3
HETATM    3  C   UNL     1      -9.884  10.716  69.250  1.00  0.00    -0.180 A  
HETATM    4  C   UNL     1     -11.070  11.390  68.927  1.00  0.00    -0.233 A  
HETATM    5  C   UNL     1     -11.181   8.694  72.170  1.00  0.00    -0.367 A  
HETATM    6  C   UNL     1     -12.217  11.178  69.713  1.00  0.00    -0.369 A  
HETATM    7  N   UNL     1     -12.339   8.473  72.815  1.00  0.00    -0.246 NA 
HETATM    8  C   UNL     1     -12.251  10.285  70.775  1.00  0.00    -0.350 A  
HETATM    9  C   UNL     1      -9.908   9.831  70.338  1.00  0.00    -0.269 A  
HETATM   10  N   UNL     1     -13.403  10.093  71.429  1.00  0.00    -0.354 NA 
HETATM   11  C   UNL     1     -11.078   9.608  71.105  1.00  0.00    -0.444 A  
HETATM   12  C   UNL     1     -13.394   9.185  72.409  1.00  0.00    -0.463 A  
BRANCH   4  13
HETATM   13  O   UNL     1     -11.299  12.321  67.943  1.00  0.00    -0.256 OA 
BRANCH  13  14
HETATM   14  C   UNL     1     -11.883  13.568  68.309  1.00  0.00    -0.366 C  
BRANCH  14  15
HETATM   15  C   UNL     1     -11.103  14.728  67.635  1.00  0.00    -0.311 C  
HETATM   16  N   UNL     1      -8.762  15.825  69.157  1.00  0.00    -0.239 NA 
HETATM   17  C   UNL     1      -9.643  14.417  67.235  1.00  0.00    -0.227 C  
HETATM   18  C   UNL     1      -8.317  17.046  68.486  1.00  0.00    -0.260 C  
HETATM   19  C   UNL     1      -8.597  14.620  68.340  1.00  0.00    -0.169 C  
HETATM   20  C   UNL     1     -11.164  15.985  68.513  1.00  0.00    -0.374 C  
HETATM   21  C   UNL     1     -10.138  15.933  69.645  1.00  0.00    -0.271 C  
ENDBRANCH  14  15
ENDBRANCH  13  14
ENDBRANCH   4  13
BRANCH   5  22
HETATM   22  N   UNL     1     -10.021   8.003  72.603  1.00  0.00    -0.263 NA 
HETATM   23  H   UNL     1      -9.476   8.434  73.349  1.00  0.00     0.000 HD 
BRANCH  22  24
HETATM   24  C   UNL     1      -9.553   6.770  72.093  1.00  0.00    -0.145 A  
HETATM   25  C   UNL     1      -8.177   6.521  71.992  1.00  0.00    -0.107 A  
HETATM   26  F   UNL     1      -7.304   7.423  72.466  1.00  0.00    -0.069 F  
HETATM   27  C   UNL     1      -7.680   5.354  71.404  1.00  0.00    -0.108 A  
HETATM   28  C   UNL     1      -8.574   4.424  70.890  1.00  0.00    -0.092 A  
HETATM   29 BR   UNL     1      -7.935   2.849  70.061  1.00  0.00    -0.055 Br 
HETATM   30  C   UNL     1      -9.948   4.659  70.946  1.00  0.00    -0.273 A  
HETATM   31  C   UNL     1     -10.431   5.829  71.540  1.00  0.00    -0.291 A  
ENDBRANCH  22  24
ENDBRANCH   5  22
ENDBRANCH   2   3
TORSDOF 6
ENDMDL
MODEL       75
REMARK 921   NORMALIZED FREE ENERGY PREDICTED BY IDOCK:   -5.59 KCAL/MOL
REMARK 922        TOTAL FREE ENERGY PREDICTED BY IDOCK:   -8.60 KCAL/MOL
REMARK 923 INTER-LIGAND FREE ENERGY PREDICTED BY IDOCK:   -7.87 KCAL/MOL
REMARK 924 INTRA-LIGAND FREE ENERGY PREDICTED BY IDOCK:   -0.73 KCAL/MOL
REMARK 927      BINDING AFFINITY PREDICTED BY RF-SCORE:    0.00 PKD
ROOT
HETATM    1  C   UNL     1      -7.342   9.364  68.440  1.00  0.00    -0.077 C  
HETATM    2  O   UNL     1      -8.710   9.172  68.073  1.00  0.00    -0.128 OA 
ENDROOT
BRANCH   2   3
HETATM    3  C   UNL     1      -9.661   9.793  68.841  1.00  0.00    -0.167 A  
HETATM    4  C   UNL     1      -9.809  11.185  68.771  1.00  0.00    -0.192 A  
HETATM    5  C   UNL     1     -12.469   9.064  71.266  1.00  0.00    -0.289 A  
HETATM    6  C   UNL     1     -10.792  11.812  69.557  1.00  0.00    -0.050 A  
HETATM    7  N   UNL     1     -13.445   9.723  71.914  1.00  0.00    -0.406 NA 
HETATM    8  C   UNL     1     -11.670  11.110  70.371  1.00  0.00    -0.320 A  
HETATM    9  C   UNL     1     -10.530   9.082  69.682  1.00  0.00    -0.227 A  
HETATM   10  N   UNL     1     -12.621  11.778  71.035  1.00  0.00    -0.359 NA 
HETATM   11  C   UNL     1     -11.534   9.725  70.449  1.00  0.00    -0.347 A  
HETATM   12  C   UNL     1     -13.471  11.050  71.764  1.00  0.00    -0.160 A  
BRANCH   4  13
HETATM   13  O   UNL     1      -9.075  12.101  68.059  1.00  0.00    -0.177 OA 
BRANCH  13  14
HETATM   14  C   UNL     1      -9.123  12.053  66.635  1.00  0.00    -0.205 C  
BRANCH  14  15
HETATM   15  C   UNL     1     -10.508  11.525  66.177  1.00  0.00    -0.296 C  
HETATM   16  N   UNL     1     -11.476  12.465  63.497  1.00  0.00    -0.470 NA 
HETATM   17  C   UNL     1     -10.503  10.608  64.932  1.00  0.00    -0.282 C  
HETATM   18  C   UNL     1     -12.875  12.064  63.355  1.00  0.00    -0.291 C  
HETATM   19  C   UNL     1     -10.551  11.330  63.579  1.00  0.00    -0.369 C  
HETATM   20  C   UNL     1     -11.480  12.696  65.978  1.00  0.00    -0.414 C  
HETATM   21  C   UNL     1     -11.274  13.377  64.625  1.00  0.00    -0.359 C  
ENDBRANCH  14  15
ENDBRANCH  13  14
ENDBRANCH   4  13
BRANCH   5  22
HETATM   22  N   UNL     1     -12.367   7.661  71.441  1.00  0.00    -0.325 NA 
HETATM   23  H   UNL     1     -13.143   7.094  71.103  1.00  0.00     0.000 HD 
BRANCH  22  24
HETATM   24  C   UNL     1     -11.283   6.978  72.041  1.00  0.00    -0.253 A  
HETATM   25  C   UNL     1     -10.774   5.808  71.460  1.00  0.00    -0.258 A  
HETATM   26  F   UNL     1     -11.259   5.387  70.282  1.00  0.00    -0.306 F  
HETATM   27  C   UNL     1      -9.770   5.055  72.077  1.00  0.00    -0.214 A  
HETATM   28  C   UNL     1      -9.276   5.469  73.308  1.00  0.00    -0.132 A  
HETATM   29 BR   UNL     1      -7.939   4.459  74.183  1.00  0.00    -0.093 Br 
HETATM   30  C   UNL     1      -9.786   6.611  73.926  1.00  0.00    -0.292 A  
HETATM   31  C   UNL     1     -10.788   7.355  73.296  1.00  0.00    -0.417 A  
ENDBRANCH  22  24
ENDBRANCH   5  22
ENDBRANCH   2   3
TORSDOF 6
ENDMDL
MODEL       76
REMARK 921   NORMALIZED FREE ENERGY PREDICTED BY IDOCK:   -5.59 KCAL/MOL
REMARK 922        TOTAL FREE ENERGY PREDICTED BY IDOCK:   -8.60 KCAL/MOL
REMARK 923 INTER-LIGAND FREE ENERGY PREDICTED BY IDOCK:   -7.46 KCAL/MOL
REMARK 924 INTRA-LIGAND FREE ENERGY PREDICTED BY IDOCK:   -1.14 KCAL/MOL
REMARK 927      BINDING AFFINITY PREDICTED BY RF-SCORE:    0.00 PKD
ROOT
HETATM    1  C   UNL     1     -11.665  11.094  69.839  1.00  0.00    -0.355 C  
HETATM    2  O   UNL     1     -12.286  11.339  68.575  1.00  0.00    -0.588 OA 
ENDROOT
BRANCH   2   3
HETATM    3  C   UNL     1     -11.529  11.131  67.451  1.00  0.00    -0.180 A  
HETATM    4  C   UNL     1     -11.633  12.017  66.370  1.00  0.00    -0.313 A  
HETATM    5  C   UNL     1      -8.838   8.873  66.051  1.00  0.00    -0.172 A  
HETATM    6  C   UNL     1     -10.848  11.799  65.224  1.00  0.00    -0.343 A  
HETATM    7  N   UNL     1      -8.055   8.785  64.963  1.00  0.00    -0.135 NA 
HETATM    8  C   UNL     1      -9.924  10.768  65.126  1.00  0.00    -0.291 A  
HETATM    9  C   UNL     1     -10.614  10.072  67.346  1.00  0.00    -0.330 A  
HETATM   10  N   UNL     1      -9.169  10.671  64.025  1.00  0.00    -0.221 NA 
HETATM   11  C   UNL     1      -9.811   9.880  66.195  1.00  0.00    -0.324 A  
HETATM   12  C   UNL     1      -8.260   9.691  64.003  1.00  0.00    -0.159 A  
BRANCH   4  13
HETATM   13  O   UNL     1     -12.464  13.100  66.212  1.00  0.00    -0.386 OA 
BRANCH  13  14
HETATM   14  C   UNL     1     -11.881  14.396  66.112  1.00  0.00    -0.382 C  
BRANCH  14  15
HETATM   15  C   UNL     1     -10.771  14.554  67.185  1.00  0.00    -0.286 C  
HETATM   16  N   UNL     1      -9.900  17.358  67.803  1.00  0.00    -0.274 NA 
HETATM   17  C   UNL     1     -11.187  15.276  68.486  1.00  0.00    -0.308 C  
HETATM   18  C   UNL     1      -8.703  17.286  68.640  1.00  0.00    -0.268 C  
HETATM   19  C   UNL     1     -11.095  16.808  68.451  1.00  0.00    -0.266 C  
HETATM   20  C   UNL     1      -9.534  15.223  66.570  1.00  0.00    -0.308 C  
HETATM   21  C   UNL     1      -9.696  16.741  66.491  1.00  0.00    -0.283 C  
ENDBRANCH  14  15
ENDBRANCH  13  14
ENDBRANCH   4  13
BRANCH   5  22
HETATM   22  N   UNL     1      -8.695   7.898  67.070  1.00  0.00    -0.126 NA 
HETATM   23  H   UNL     1      -8.530   8.238  68.017  1.00  0.00     0.000 HD 
BRANCH  22  24
HETATM   24  C   UNL     1      -8.763   6.497  66.892  1.00  0.00    -0.115 A  
HETATM   25  C   UNL     1      -9.986   5.878  66.597  1.00  0.00    -0.174 A  
HETATM   26  F   UNL     1     -11.078   6.631  66.395  1.00  0.00    -0.273 F  
HETATM   27  C   UNL     1     -10.106   4.488  66.510  1.00  0.00    -0.257 A  
HETATM   28  C   UNL     1      -8.987   3.697  66.740  1.00  0.00    -0.142 A  
HETATM   29 BR   UNL     1      -9.122   1.813  66.660  1.00  0.00    -0.008 Br 
HETATM   30  C   UNL     1      -7.764   4.283  67.067  1.00  0.00    -0.092 A  
HETATM   31  C   UNL     1      -7.658   5.675  67.148  1.00  0.00    -0.096 A  
ENDBRANCH  22  24
ENDBRANCH   5  22
ENDBRANCH   2   3
TORSDOF 6
ENDMDL
MODEL       77
REMARK 921   NORMALIZED FREE ENERGY PREDICTED BY IDOCK:   -5.58 KCAL/MOL
REMARK 922        TOTAL FREE ENERGY PREDICTED BY IDOCK:   -8.59 KCAL/MOL
REMARK 923 INTER-LIGAND FREE ENERGY PREDICTED BY IDOCK:   -8.92 KCAL/MOL
REMARK 924 INTRA-LIGAND FREE ENERGY PREDICTED BY IDOCK:    0.33 KCAL/MOL
REMARK 927      BINDING AFFINITY PREDICTED BY RF-SCORE:    0.00 PKD
ROOT
HETATM    1  C   UNL     1     -10.987  15.486  71.107  1.00  0.00    -0.222 C  
HETATM    2  O   UNL     1     -10.073  15.453  70.009  1.00  0.00    -0.287 OA 
ENDROOT
BRANCH   2   3
HETATM    3  C   UNL     1     -10.577  15.111  68.781  1.00  0.00    -0.236 A  
HETATM    4  C   UNL     1     -11.146  13.844  68.592  1.00  0.00    -0.265 A  
HETATM    5  C   UNL     1     -11.215  16.517  65.329  1.00  0.00     0.049 A  
HETATM    6  C   UNL     1     -11.667  13.505  67.331  1.00  0.00    -0.419 A  
HETATM    7  N   UNL     1     -11.815  16.155  64.182  1.00  0.00    -0.796 NA 
HETATM    8  C   UNL     1     -11.694  14.390  66.262  1.00  0.00    -0.385 A  
HETATM    9  C   UNL     1     -10.580  16.000  67.695  1.00  0.00    -0.309 A  
HETATM   10  N   UNL     1     -12.268  14.010  65.114  1.00  0.00    -0.414 NA 
HETATM   11  C   UNL     1     -11.132  15.654  66.437  1.00  0.00    -0.123 A  
HETATM   12  C   UNL     1     -12.314  14.917  64.134  1.00  0.00    -0.185 A  
BRANCH   4  13
HETATM   13  O   UNL     1     -11.239  12.795  69.474  1.00  0.00    -0.188 OA 
BRANCH  13  14
HETATM   14  C   UNL     1     -10.818  11.504  69.040  1.00  0.00    -0.212 C  
BRANCH  14  15
HETATM   15  C   UNL     1     -11.943  10.469  69.312  1.00  0.00    -0.194 C  
HETATM   16  N   UNL     1     -12.372   9.685  72.176  1.00  0.00    -0.292 NA 
HETATM   17  C   UNL     1     -13.147  10.982  70.133  1.00  0.00     0.157 C  
HETATM   18  C   UNL     1     -13.287   8.545  72.201  1.00  0.00    -0.351 C  
HETATM   19  C   UNL     1     -12.986  10.912  71.658  1.00  0.00    -0.464 C  
HETATM   20  C   UNL     1     -11.353   9.206  69.953  1.00  0.00    -0.047 C  
HETATM   21  C   UNL     1     -11.133   9.385  71.455  1.00  0.00    -0.380 C  
ENDBRANCH  14  15
ENDBRANCH  13  14
ENDBRANCH   4  13
BRANCH   5  22
HETATM   22  N   UNL     1     -10.620  17.802  65.407  1.00  0.00    -0.614 NA 
HETATM   23  H   UNL     1     -10.890  18.482  64.697  1.00  0.00     0.000 HD 
BRANCH  22  24
HETATM   24  C   UNL     1      -9.688  18.225  66.382  1.00  0.00    -0.334 A  
HETATM   25  C   UNL     1     -10.069  19.130  67.383  1.00  0.00    -0.379 A  
HETATM   26  F   UNL     1     -11.349  19.525  67.466  1.00  0.00    -0.507 F  
HETATM   27  C   UNL     1      -9.150  19.643  68.303  1.00  0.00    -0.395 A  
HETATM   28  C   UNL     1      -7.818  19.259  68.212  1.00  0.00    -0.319 A  
HETATM   29 BR   UNL     1      -6.543  19.957  69.421  1.00  0.00    -0.354 Br 
HETATM   30  C   UNL     1      -7.402  18.386  67.206  1.00  0.00    -0.220 A  
HETATM   31  C   UNL     1      -8.333  17.878  66.295  1.00  0.00    -0.230 A  
ENDBRANCH  22  24
ENDBRANCH   5  22
ENDBRANCH   2   3
TORSDOF 6
ENDMDL
MODEL       78
REMARK 921   NORMALIZED FREE ENERGY PREDICTED BY IDOCK:   -5.57 KCAL/MOL
REMARK 922        TOTAL FREE ENERGY PREDICTED BY IDOCK:   -8.58 KCAL/MOL
REMARK 923 INTER-LIGAND FREE ENERGY PREDICTED BY IDOCK:   -7.60 KCAL/MOL
REMARK 924 INTRA-LIGAND FREE ENERGY PREDICTED BY IDOCK:   -0.98 KCAL/MOL
REMARK 927      BINDING AFFINITY PREDICTED BY RF-SCORE:    0.00 PKD
ROOT
HETATM    1  C   UNL     1     -12.585  10.140  71.434  1.00  0.00    -0.422 C  
HETATM    2  O   UNL     1     -11.393  10.562  70.770  1.00  0.00    -0.327 OA 
ENDROOT
BRANCH   2   3
HETATM    3  C   UNL     1     -10.930   9.776  69.747  1.00  0.00    -0.256 A  
HETATM    4  C   UNL     1     -11.222  10.118  68.420  1.00  0.00    -0.177 A  
HETATM    5  C   UNL     1      -8.783   6.737  69.067  1.00  0.00    -0.130 A  
HETATM    6  C   UNL     1     -10.737   9.309  67.378  1.00  0.00    -0.263 A  
HETATM    7  N   UNL     1      -8.279   6.068  68.018  1.00  0.00    -0.112 NA 
HETATM    8  C   UNL     1      -9.929   8.201  67.594  1.00  0.00    -0.185 A  
HETATM    9  C   UNL     1     -10.134   8.642  69.972  1.00  0.00    -0.195 A  
HETATM   10  N   UNL     1      -9.454   7.524  66.543  1.00  0.00    -0.187 NA 
HETATM   11  C   UNL     1      -9.630   7.850  68.910  1.00  0.00    -0.155 A  
HETATM   12  C   UNL     1      -8.640   6.497  66.805  1.00  0.00    -0.117 A  
BRANCH   4  13
HETATM   13  O   UNL     1     -11.995  11.147  67.940  1.00  0.00    -0.624 OA 
BRANCH  13  14
HETATM   14  C   UNL     1     -11.493  12.477  68.035  1.00  0.00    -0.317 C  
BRANCH  14  15
HETATM   15  C   UNL     1     -12.278  13.403  67.068  1.00  0.00    -0.321 C  
HETATM   16  N   UNL     1     -10.651  14.913  65.050  1.00  0.00    -0.414 NA 
HETATM   17  C   UNL     1     -12.243  13.005  65.576  1.00  0.00    -0.521 C  
HETATM   18  C   UNL     1     -11.524  15.895  64.408  1.00  0.00    -0.264 C  
HETATM   19  C   UNL     1     -11.038  13.526  64.780  1.00  0.00    -0.359 C  
HETATM   20  C   UNL     1     -11.826  14.858  67.247  1.00  0.00    -0.239 C  
HETATM   21  C   UNL     1     -10.528  15.143  66.492  1.00  0.00    -0.291 C  
ENDBRANCH  14  15
ENDBRANCH  13  14
ENDBRANCH   4  13
BRANCH   5  22
HETATM   22  N   UNL     1      -8.474   6.283  70.374  1.00  0.00    -0.132 NA 
HETATM   23  H   UNL     1      -7.680   6.720  70.841  1.00  0.00     0.000 HD 
BRANCH  22  24
HETATM   24  C   UNL     1      -9.167   5.278  71.088  1.00  0.00    -0.145 A  
HETATM   25  C   UNL     1     -10.011   5.620  72.154  1.00  0.00    -0.178 A  
HETATM   26  F   UNL     1     -10.230   6.913  72.438  1.00  0.00    -0.183 F  
HETATM   27  C   UNL     1     -10.635   4.648  72.942  1.00  0.00    -0.277 A  
HETATM   28  C   UNL     1     -10.397   3.305  72.672  1.00  0.00    -0.139 A  
HETATM   29 BR   UNL     1     -11.201   1.965  73.735  1.00  0.00    -0.285 Br 
HETATM   30  C   UNL     1      -9.536   2.935  71.638  1.00  0.00    -0.222 A  
HETATM   31  C   UNL     1      -8.922   3.918  70.857  1.00  0.00    -0.157 A  
ENDBRANCH  22  24
ENDBRANCH   5  22
ENDBRANCH   2   3
TORSDOF 6
ENDMDL
MODEL       79
REMARK 921   NORMALIZED FREE ENERGY PREDICTED BY IDOCK:   -5.56 KCAL/MOL
REMARK 922        TOTAL FREE ENERGY PREDICTED BY IDOCK:   -8.56 KCAL/MOL
REMARK 923 INTER-LIGAND FREE ENERGY PREDICTED BY IDOCK:   -7.52 KCAL/MOL
REMARK 924 INTRA-LIGAND FREE ENERGY PREDICTED BY IDOCK:   -1.04 KCAL/MOL
REMARK 927      BINDING AFFINITY PREDICTED BY RF-SCORE:    0.00 PKD
ROOT
HETATM    1  C   UNL     1     -13.469   9.294  72.476  1.00  0.00    -0.404 C  
HETATM    2  O   UNL     1     -12.324   8.724  71.839  1.00  0.00    -0.316 OA 
ENDROOT
BRANCH   2   3
HETATM    3  C   UNL     1     -11.767   9.426  70.802  1.00  0.00    -0.282 A  
HETATM    4  C   UNL     1     -10.776   8.827  70.011  1.00  0.00    -0.228 A  
HETATM    5  C   UNL     1     -12.022  12.718  68.959  1.00  0.00    -0.242 A  
HETATM    6  C   UNL     1     -10.215   9.553  68.945  1.00  0.00    -0.213 A  
HETATM    7  N   UNL     1     -11.507  13.312  67.870  1.00  0.00    -0.287 NA 
HETATM    8  C   UNL     1     -10.632  10.830  68.598  1.00  0.00    -0.199 A  
HETATM    9  C   UNL     1     -12.174  10.727  70.469  1.00  0.00    -0.457 A  
HETATM   10  N   UNL     1     -10.093  11.425  67.528  1.00  0.00    -0.182 NA 
HETATM   11  C   UNL     1     -11.618  11.437  69.376  1.00  0.00    -0.391 A  
HETATM   12  C   UNL     1     -10.567  12.633  67.207  1.00  0.00    -0.228 A  
BRANCH   4  13
HETATM   13  O   UNL     1     -10.188   7.593  70.144  1.00  0.00    -0.198 OA 
BRANCH  13  14
HETATM   14  C   UNL     1     -10.465   6.598  69.162  1.00  0.00    -0.219 C  
BRANCH  14  15
HETATM   15  C   UNL     1      -9.175   5.791  68.858  1.00  0.00    -0.127 C  
HETATM   16  N   UNL     1      -8.440   3.655  70.831  1.00  0.00    -0.069 NA 
HETATM   17  C   UNL     1      -9.375   4.289  68.556  1.00  0.00    -0.209 C  
HETATM   18  C   UNL     1      -7.094   3.183  70.507  1.00  0.00    -0.034 C  
HETATM   19  C   UNL     1      -9.424   3.368  69.783  1.00  0.00    -0.159 C  
HETATM   20  C   UNL     1      -8.154   5.982  69.987  1.00  0.00    -0.114 C  
HETATM   21  C   UNL     1      -8.458   5.077  71.181  1.00  0.00    -0.120 C  
ENDBRANCH  14  15
ENDBRANCH  13  14
ENDBRANCH   4  13
BRANCH   5  22
HETATM   22  N   UNL     1     -12.982  13.425  69.727  1.00  0.00     0.338 NA 
HETATM   23  H   UNL     1     -13.957  13.340  69.443  1.00  0.00     0.000 HD 
BRANCH  22  24
HETATM   24  C   UNL     1     -12.707  14.237  70.852  1.00  0.00    -0.357 A  
HETATM   25  C   UNL     1     -13.207  13.891  72.115  1.00  0.00    -0.444 A  
HETATM   26  F   UNL     1     -13.873  12.736  72.271  1.00  0.00    -0.562 F  
HETATM   27  C   UNL     1     -13.038  14.720  73.228  1.00  0.00    -0.550 A  
HETATM   28  C   UNL     1     -12.371  15.929  73.073  1.00  0.00    -0.498 A  
HETATM   29 BR   UNL     1     -12.149  17.088  74.551  1.00  0.00     0.170 Br 
HETATM   30  C   UNL     1     -11.890  16.316  71.822  1.00  0.00    -0.510 A  
HETATM   31  C   UNL     1     -12.065  15.475  70.719  1.00  0.00    -0.435 A  
ENDBRANCH  22  24
ENDBRANCH   5  22
ENDBRANCH   2   3
TORSDOF 6
ENDMDL
MODEL       80
REMARK 921   NORMALIZED FREE ENERGY PREDICTED BY IDOCK:   -5.55 KCAL/MOL
REMARK 922        TOTAL FREE ENERGY PREDICTED BY IDOCK:   -8.54 KCAL/MOL
REMARK 923 INTER-LIGAND FREE ENERGY PREDICTED BY IDOCK:   -7.31 KCAL/MOL
REMARK 924 INTRA-LIGAND FREE ENERGY PREDICTED BY IDOCK:   -1.23 KCAL/MOL
REMARK 927      BINDING AFFINITY PREDICTED BY RF-SCORE:    0.00 PKD
ROOT
HETATM    1  C   UNL     1      -5.248  12.724  69.159  1.00  0.00    -0.069 C  
HETATM    2  O   UNL     1      -5.659  13.190  67.872  1.00  0.00    -0.104 OA 
ENDROOT
BRANCH   2   3
HETATM    3  C   UNL     1      -7.005  13.230  67.617  1.00  0.00    -0.160 A  
HETATM    4  C   UNL     1      -7.621  14.455  67.327  1.00  0.00    -0.108 A  
HETATM    5  C   UNL     1     -10.026  10.990  67.215  1.00  0.00    -0.181 A  
HETATM    6  C   UNL     1      -9.002  14.485  67.060  1.00  0.00    -0.258 A  
HETATM    7  N   UNL     1     -11.318  11.086  66.859  1.00  0.00    -0.358 NA 
HETATM    8  C   UNL     1      -9.788  13.342  67.017  1.00  0.00    -0.250 A  
HETATM    9  C   UNL     1      -7.802  12.075  67.599  1.00  0.00    -0.149 A  
HETATM   10  N   UNL     1     -11.081  13.451  66.690  1.00  0.00    -0.291 NA 
HETATM   11  C   UNL     1      -9.187  12.116  67.303  1.00  0.00    -0.185 A  
HETATM   12  C   UNL     1     -11.780  12.315  66.613  1.00  0.00    -0.349 A  
BRANCH   4  13
HETATM   13  O   UNL     1      -7.078  15.717  67.311  1.00  0.00    -0.195 OA 
BRANCH  13  14
HETATM   14  C   UNL     1      -7.426  16.620  68.357  1.00  0.00    -0.194 C  
BRANCH  14  15
HETATM   15  C   UNL     1      -7.525  18.062  67.792  1.00  0.00    -0.211 C  
HETATM   16  N   UNL     1     -10.287  19.082  67.214  1.00  0.00    -0.397 NA 
HETATM   17  C   UNL     1      -8.226  19.096  68.700  1.00  0.00    -0.404 C  
HETATM   18  C   UNL     1     -10.160  20.337  66.475  1.00  0.00    -0.388 C  
HETATM   19  C   UNL     1      -9.755  19.155  68.578  1.00  0.00    -0.406 C  
HETATM   20  C   UNL     1      -8.174  18.039  66.402  1.00  0.00    -0.285 C  
HETATM   21  C   UNL     1      -9.698  17.953  66.492  1.00  0.00    -0.329 C  
ENDBRANCH  14  15
ENDBRANCH  13  14
ENDBRANCH   4  13
BRANCH   5  22
HETATM   22  N   UNL     1      -9.505   9.713  67.541  1.00  0.00    -0.133 NA 
HETATM   23  H   UNL     1      -8.895   9.271  66.854  1.00  0.00     0.000 HD 
BRANCH  22  24
HETATM   24  C   UNL     1      -9.755   8.996  68.735  1.00  0.00    -0.159 A  
HETATM   25  C   UNL     1     -10.620   7.893  68.731  1.00  0.00    -0.127 A  
HETATM   26  F   UNL     1     -11.141   7.463  67.572  1.00  0.00    -0.287 F  
HETATM   27  C   UNL     1     -10.965   7.222  69.908  1.00  0.00    -0.262 A  
HETATM   28  C   UNL     1     -10.450   7.673  71.118  1.00  0.00    -0.208 A  
HETATM   29 BR   UNL     1     -10.919   6.808  72.732  1.00  0.00    -0.306 Br 
HETATM   30  C   UNL     1      -9.613   8.789  71.157  1.00  0.00    -0.309 A  
HETATM   31  C   UNL     1      -9.274   9.447  69.971  1.00  0.00    -0.245 A  
ENDBRANCH  22  24
ENDBRANCH   5  22
ENDBRANCH   2   3
TORSDOF 6
ENDMDL
MODEL       81
REMARK 921   NORMALIZED FREE ENERGY PREDICTED BY IDOCK:   -5.53 KCAL/MOL
REMARK 922        TOTAL FREE ENERGY PREDICTED BY IDOCK:   -8.52 KCAL/MOL
REMARK 923 INTER-LIGAND FREE ENERGY PREDICTED BY IDOCK:   -7.57 KCAL/MOL
REMARK 924 INTRA-LIGAND FREE ENERGY PREDICTED BY IDOCK:   -0.95 KCAL/MOL
REMARK 927      BINDING AFFINITY PREDICTED BY RF-SCORE:    0.00 PKD
ROOT
HETATM    1  C   UNL     1     -11.072  11.697  63.710  1.00  0.00    -0.420 C  
HETATM    2  O   UNL     1     -10.487  10.701  64.552  1.00  0.00    -0.345 OA 
ENDROOT
BRANCH   2   3
HETATM    3  C   UNL     1      -9.537  11.114  65.449  1.00  0.00    -0.229 A  
HETATM    4  C   UNL     1      -8.357  10.373  65.603  1.00  0.00    -0.163 A  
HETATM    5  C   UNL     1      -8.738  13.918  67.858  1.00  0.00    -0.184 A  
HETATM    6  C   UNL     1      -7.385  10.809  66.520  1.00  0.00    -0.139 A  
HETATM    7  N   UNL     1      -7.725  14.320  68.644  1.00  0.00    -0.132 NA 
HETATM    8  C   UNL     1      -7.511  11.979  67.255  1.00  0.00    -0.158 A  
HETATM    9  C   UNL     1      -9.679  12.286  66.209  1.00  0.00    -0.254 A  
HETATM   10  N   UNL     1      -6.509  12.357  68.058  1.00  0.00    -0.072 NA 
HETATM   11  C   UNL     1      -8.679  12.727  67.111  1.00  0.00    -0.202 A  
HETATM   12  C   UNL     1      -6.659  13.518  68.703  1.00  0.00    -0.098 A  
BRANCH   4  13
HETATM   13  O   UNL     1      -7.993   9.189  65.008  1.00  0.00    -0.110 OA 
BRANCH  13  14
HETATM   14  C   UNL     1      -8.637   7.990  65.429  1.00  0.00    -0.114 C  
BRANCH  14  15
HETATM   15  C   UNL     1      -9.051   8.114  66.920  1.00  0.00    -0.185 C  
HETATM   16  N   UNL     1     -10.423   5.736  68.127  1.00  0.00    -0.212 NA 
HETATM   17  C   UNL     1      -8.333   7.161  67.901  1.00  0.00    -0.118 C  
HETATM   18  C   UNL     1     -10.942   6.129  69.437  1.00  0.00    -0.385 C  
HETATM   19  C   UNL     1      -8.960   5.768  68.049  1.00  0.00    -0.111 C  
HETATM   20  C   UNL     1     -10.573   7.981  67.057  1.00  0.00    -0.364 C  
HETATM   21  C   UNL     1     -11.015   6.518  67.040  1.00  0.00    -0.396 C  
ENDBRANCH  14  15
ENDBRANCH  13  14
ENDBRANCH   4  13
BRANCH   5  22
HETATM   22  N   UNL     1      -9.913  14.709  67.808  1.00  0.00    -0.223 NA 
HETATM   23  H   UNL     1     -10.114  15.186  66.930  1.00  0.00     0.000 HD 
BRANCH  22  24
HETATM   24  C   UNL     1     -10.832  14.895  68.867  1.00  0.00    -0.250 A  
HETATM   25  C   UNL     1     -10.750  16.029  69.686  1.00  0.00    -0.316 A  
HETATM   26  F   UNL     1      -9.851  16.985  69.406  1.00  0.00    -0.237 F  
HETATM   27  C   UNL     1     -11.579  16.197  70.799  1.00  0.00    -0.382 A  
HETATM   28  C   UNL     1     -12.498  15.203  71.112  1.00  0.00    -0.352 A  
HETATM   29 BR   UNL     1     -13.615  15.384  72.627  1.00  0.00    -0.666 Br 
HETATM   30  C   UNL     1     -12.581  14.047  70.334  1.00  0.00    -0.374 A  
HETATM   31  C   UNL     1     -11.747  13.895  69.223  1.00  0.00    -0.381 A  
ENDBRANCH  22  24
ENDBRANCH   5  22
ENDBRANCH   2   3
TORSDOF 6
ENDMDL
MODEL       82
REMARK 921   NORMALIZED FREE ENERGY PREDICTED BY IDOCK:   -5.50 KCAL/MOL
REMARK 922        TOTAL FREE ENERGY PREDICTED BY IDOCK:   -8.48 KCAL/MOL
REMARK 923 INTER-LIGAND FREE ENERGY PREDICTED BY IDOCK:   -8.22 KCAL/MOL
REMARK 924 INTRA-LIGAND FREE ENERGY PREDICTED BY IDOCK:   -0.26 KCAL/MOL
REMARK 927      BINDING AFFINITY PREDICTED BY RF-SCORE:    0.00 PKD
ROOT
HETATM    1  C   UNL     1      -7.113  10.537  69.242  1.00  0.00    -0.097 C  
HETATM    2  O   UNL     1      -8.317  10.149  68.577  1.00  0.00    -0.108 OA 
ENDROOT
BRANCH   2   3
HETATM    3  C   UNL     1      -9.490  10.272  69.276  1.00  0.00    -0.215 A  
HETATM    4  C   UNL     1     -10.239  11.452  69.173  1.00  0.00    -0.059 A  
HETATM    5  C   UNL     1     -11.820   8.341  71.543  1.00  0.00    -0.293 A  
HETATM    6  C   UNL     1     -11.444  11.566  69.888  1.00  0.00    -0.340 A  
HETATM    7  N   UNL     1     -13.024   8.488  72.120  1.00  0.00    -0.358 NA 
HETATM    8  C   UNL     1     -11.964  10.538  70.661  1.00  0.00    -0.357 A  
HETATM    9  C   UNL     1     -10.000   9.239  70.077  1.00  0.00    -0.238 A  
HETATM   10  N   UNL     1     -13.152  10.705  71.256  1.00  0.00    -0.381 NA 
HETATM   11  C   UNL     1     -11.229   9.358  70.771  1.00  0.00    -0.367 A  
HETATM   12  C   UNL     1     -13.631   9.665  71.946  1.00  0.00    -0.364 A  
BRANCH   4  13
HETATM   13  O   UNL     1      -9.948  12.607  68.489  1.00  0.00    -0.219 OA 
BRANCH  13  14
HETATM   14  C   UNL     1      -9.561  12.509  67.121  1.00  0.00    -0.208 C  
BRANCH  14  15
HETATM   15  C   UNL     1     -10.650  11.742  66.324  1.00  0.00    -0.292 C  
HETATM   16  N   UNL     1     -11.248  12.757  63.565  1.00  0.00    -0.431 NA 
HETATM   17  C   UNL     1     -10.164  11.007  65.054  1.00  0.00    -0.360 C  
HETATM   18  C   UNL     1     -12.446  12.071  63.080  1.00  0.00    -0.263 C  
HETATM   19  C   UNL     1     -10.110  11.858  63.778  1.00  0.00    -0.398 C  
HETATM   20  C   UNL     1     -11.817  12.679  65.990  1.00  0.00    -0.492 C  
HETATM   21  C   UNL     1     -11.513  13.547  64.769  1.00  0.00    -0.346 C  
ENDBRANCH  14  15
ENDBRANCH  13  14
ENDBRANCH   4  13
BRANCH   5  22
HETATM   22  N   UNL     1     -11.113   7.129  71.748  1.00  0.00    -0.233 NA 
HETATM   23  H   UNL     1     -10.845   6.905  72.706  1.00  0.00     0.000 HD 
BRANCH  22  24
HETATM   24  C   UNL     1     -10.747   6.204  70.743  1.00  0.00    -0.266 A  
HETATM   25  C   UNL     1      -9.816   5.192  71.017  1.00  0.00    -0.196 A  
HETATM   26  F   UNL     1      -9.340   5.049  72.263  1.00  0.00    -0.142 F  
HETATM   27  C   UNL     1      -9.359   4.322  70.022  1.00  0.00    -0.234 A  
HETATM   28  C   UNL     1      -9.828   4.475  68.724  1.00  0.00    -0.110 A  
HETATM   29 BR   UNL     1      -9.210   3.334  67.349  1.00  0.00    -0.240 Br 
HETATM   30  C   UNL     1     -10.731   5.493  68.414  1.00  0.00    -0.156 A  
HETATM   31  C   UNL     1     -11.181   6.354  69.420  1.00  0.00    -0.459 A  
ENDBRANCH  22  24
ENDBRANCH   5  22
ENDBRANCH   2   3
TORSDOF 6
ENDMDL
MODEL       83
REMARK 921   NORMALIZED FREE ENERGY PREDICTED BY IDOCK:   -5.48 KCAL/MOL
REMARK 922        TOTAL FREE ENERGY PREDICTED BY IDOCK:   -8.45 KCAL/MOL
REMARK 923 INTER-LIGAND FREE ENERGY PREDICTED BY IDOCK:   -7.65 KCAL/MOL
REMARK 924 INTRA-LIGAND FREE ENERGY PREDICTED BY IDOCK:   -0.81 KCAL/MOL
REMARK 927      BINDING AFFINITY PREDICTED BY RF-SCORE:    0.00 PKD
ROOT
HETATM    1  C   UNL     1      -6.113  10.352  68.543  1.00  0.00    -0.043 C  
HETATM    2  O   UNL     1      -7.407   9.951  68.999  1.00  0.00    -0.073 OA 
ENDROOT
BRANCH   2   3
HETATM    3  C   UNL     1      -8.494  10.496  68.366  1.00  0.00    -0.128 A  
HETATM    4  C   UNL     1      -9.476   9.656  67.824  1.00  0.00    -0.127 A  
HETATM    5  C   UNL     1     -10.109  13.818  67.555  1.00  0.00    -0.241 A  
HETATM    6  C   UNL     1     -10.591  10.225  67.183  1.00  0.00    -0.320 A  
HETATM    7  N   UNL     1     -11.245  14.287  67.012  1.00  0.00    -0.312 NA 
HETATM    8  C   UNL     1     -10.799  11.594  67.103  1.00  0.00    -0.261 A  
HETATM    9  C   UNL     1      -8.688  11.882  68.265  1.00  0.00    -0.170 A  
HETATM   10  N   UNL     1     -11.920  12.052  66.534  1.00  0.00    -0.601 NA 
HETATM   11  C   UNL     1      -9.830  12.442  67.639  1.00  0.00    -0.198 A  
HETATM   12  C   UNL     1     -12.095  13.377  66.529  1.00  0.00    -0.388 A  
BRANCH   4  13
HETATM   13  O   UNL     1      -9.507   8.284  67.764  1.00  0.00    -0.145 OA 
BRANCH  13  14
HETATM   14  C   UNL     1     -10.618   7.603  68.340  1.00  0.00    -0.122 C  
BRANCH  14  15
HETATM   15  C   UNL     1     -10.180   6.906  69.655  1.00  0.00    -0.206 C  
HETATM   16  N   UNL     1     -11.418   7.935  72.187  1.00  0.00    -0.301 NA 
HETATM   17  C   UNL     1     -11.284   6.128  70.407  1.00  0.00    -0.423 C  
HETATM   18  C   UNL     1     -10.711   7.330  73.315  1.00  0.00    -0.383 C  
HETATM   19  C   UNL     1     -12.144   6.961  71.367  1.00  0.00    -0.364 C  
HETATM   20  C   UNL     1      -9.506   7.919  70.590  1.00  0.00    -0.162 C  
HETATM   21  C   UNL     1     -10.533   8.753  71.355  1.00  0.00    -0.284 C  
ENDBRANCH  14  15
ENDBRANCH  13  14
ENDBRANCH   4  13
BRANCH   5  22
HETATM   22  N   UNL     1      -9.150  14.748  68.030  1.00  0.00    -0.175 NA 
HETATM   23  H   UNL     1      -8.358  14.373  68.551  1.00  0.00     0.000 HD 
BRANCH  22  24
HETATM   24  C   UNL     1      -9.193  16.150  67.845  1.00  0.00    -0.200 A  
HETATM   25  C   UNL     1      -9.935  16.958  68.718  1.00  0.00    -0.276 A  
HETATM   26  F   UNL     1     -10.533  16.405  69.785  1.00  0.00    -0.266 F  
HETATM   27  C   UNL     1     -10.079  18.332  68.509  1.00  0.00    -0.419 A  
HETATM   28  C   UNL     1      -9.483  18.911  67.395  1.00  0.00    -0.297 A  
HETATM   29 BR   UNL     1      -9.682  20.762  67.065  1.00  0.00    -0.211 Br 
HETATM   30  C   UNL     1      -8.765  18.128  66.490  1.00  0.00    -0.286 A  
HETATM   31  C   UNL     1      -8.628  16.754  66.715  1.00  0.00    -0.264 A  
ENDBRANCH  22  24
ENDBRANCH   5  22
ENDBRANCH   2   3
TORSDOF 6
ENDMDL
MODEL       84
REMARK 921   NORMALIZED FREE ENERGY PREDICTED BY IDOCK:   -5.47 KCAL/MOL
REMARK 922        TOTAL FREE ENERGY PREDICTED BY IDOCK:   -8.44 KCAL/MOL
REMARK 923 INTER-LIGAND FREE ENERGY PREDICTED BY IDOCK:   -7.71 KCAL/MOL
REMARK 924 INTRA-LIGAND FREE ENERGY PREDICTED BY IDOCK:   -0.73 KCAL/MOL
REMARK 927      BINDING AFFINITY PREDICTED BY RF-SCORE:    0.00 PKD
ROOT
HETATM    1  C   UNL     1      -8.316   7.997  69.325  1.00  0.00    -0.134 C  
HETATM    2  O   UNL     1      -9.708   7.728  69.143  1.00  0.00    -0.158 OA 
ENDROOT
BRANCH   2   3
HETATM    3  C   UNL     1     -10.598   8.593  69.725  1.00  0.00    -0.224 A  
HETATM    4  C   UNL     1     -11.546   8.106  70.635  1.00  0.00    -0.194 A  
HETATM    5  C   UNL     1     -11.477  12.265  69.932  1.00  0.00    -0.114 A  
HETATM    6  C   UNL     1     -12.450   9.002  71.232  1.00  0.00    -0.346 A  
HETATM    7  N   UNL     1     -12.311  13.070  70.612  1.00  0.00    -0.347 NA 
HETATM    8  C   UNL     1     -12.420  10.370  71.004  1.00  0.00    -0.388 A  
HETATM    9  C   UNL     1     -10.580   9.973  69.472  1.00  0.00    -0.267 A  
HETATM   10  N   UNL     1     -13.273  11.162  71.664  1.00  0.00    -0.400 NA 
HETATM   11  C   UNL     1     -11.481  10.868  70.101  1.00  0.00    -0.405 A  
HETATM   12  C   UNL     1     -13.168  12.476  71.446  1.00  0.00    -0.112 A  
BRANCH   4  13
HETATM   13  O   UNL     1     -11.788   6.811  71.025  1.00  0.00    -0.339 OA 
BRANCH  13  14
HETATM   14  C   UNL     1     -11.756   6.503  72.416  1.00  0.00    -0.234 C  
BRANCH  14  15
HETATM   15  C   UNL     1     -11.134   5.097  72.626  1.00  0.00    -0.298 C  
HETATM   16  N   UNL     1      -8.188   5.009  73.184  1.00  0.00    -0.107 NA 
HETATM   17  C   UNL     1     -10.572   4.810  74.037  1.00  0.00    -0.351 C  
HETATM   18  C   UNL     1      -7.754   3.614  73.110  1.00  0.00    -0.066 C  
HETATM   19  C   UNL     1      -9.127   5.268  74.279  1.00  0.00    -0.117 C  
HETATM   20  C   UNL     1     -10.066   4.827  71.557  1.00  0.00    -0.260 C  
HETATM   21  C   UNL     1      -8.734   5.487  71.912  1.00  0.00    -0.135 C  
ENDBRANCH  14  15
ENDBRANCH  13  14
ENDBRANCH   4  13
BRANCH   5  22
HETATM   22  N   UNL     1     -10.589  12.846  68.993  1.00  0.00    -0.428 NA 
HETATM   23  H   UNL     1      -9.820  12.265  68.661  1.00  0.00     0.000 HD 
BRANCH  22  24
HETATM   24  C   UNL     1     -10.673  14.159  68.475  1.00  0.00    -0.254 A  
HETATM   25  C   UNL     1     -10.742  14.372  67.091  1.00  0.00    -0.283 A  
HETATM   26  F   UNL     1     -10.819  13.320  66.261  1.00  0.00    -0.279 F  
HETATM   27  C   UNL     1     -10.729  15.658  66.541  1.00  0.00    -0.293 A  
HETATM   28  C   UNL     1     -10.626  16.754  67.389  1.00  0.00    -0.291 A  
HETATM   29 BR   UNL     1     -10.575  18.504  66.677  1.00  0.00    -0.321 Br 
HETATM   30  C   UNL     1     -10.523  16.572  68.768  1.00  0.00    -0.309 A  
HETATM   31  C   UNL     1     -10.541  15.280  69.304  1.00  0.00    -0.256 A  
ENDBRANCH  22  24
ENDBRANCH   5  22
ENDBRANCH   2   3
TORSDOF 6
ENDMDL
MODEL       85
REMARK 921   NORMALIZED FREE ENERGY PREDICTED BY IDOCK:   -5.44 KCAL/MOL
REMARK 922        TOTAL FREE ENERGY PREDICTED BY IDOCK:   -8.40 KCAL/MOL
REMARK 923 INTER-LIGAND FREE ENERGY PREDICTED BY IDOCK:   -7.34 KCAL/MOL
REMARK 924 INTRA-LIGAND FREE ENERGY PREDICTED BY IDOCK:   -1.06 KCAL/MOL
REMARK 927      BINDING AFFINITY PREDICTED BY RF-SCORE:    0.00 PKD
ROOT
HETATM    1  C   UNL     1     -11.366  12.041  63.457  1.00  0.00    -0.442 C  
HETATM    2  O   UNL     1     -10.447  12.492  64.455  1.00  0.00    -0.306 OA 
ENDROOT
BRANCH   2   3
HETATM    3  C   UNL     1     -10.838  12.384  65.765  1.00  0.00    -0.276 A  
HETATM    4  C   UNL     1     -11.465  13.468  66.394  1.00  0.00    -0.331 A  
HETATM    5  C   UNL     1     -11.005   9.918  68.627  1.00  0.00    -0.179 A  
HETATM    6  C   UNL     1     -11.868  13.345  67.735  1.00  0.00    -0.395 A  
HETATM    7  N   UNL     1     -11.501   9.845  69.874  1.00  0.00    -0.215 NA 
HETATM    8  C   UNL     1     -11.722  12.174  68.464  1.00  0.00    -0.330 A  
HETATM    9  C   UNL     1     -10.665  11.205  66.506  1.00  0.00    -0.314 A  
HETATM   10  N   UNL     1     -12.193  12.120  69.716  1.00  0.00    -0.197 NA 
HETATM   11  C   UNL     1     -11.099  11.087  67.850  1.00  0.00    -0.347 A  
HETATM   12  C   UNL     1     -12.072  10.952  70.355  1.00  0.00    -0.363 A  
BRANCH   4  13
HETATM   13  O   UNL     1     -11.721  14.726  65.905  1.00  0.00    -0.336 OA 
BRANCH  13  14
HETATM   14  C   UNL     1     -10.657  15.673  65.873  1.00  0.00    -0.343 C  
BRANCH  14  15
HETATM   15  C   UNL     1     -11.129  17.011  66.503  1.00  0.00     0.362 C  
HETATM   16  N   UNL     1      -9.082  18.544  68.070  1.00  0.00    -0.293 NA 
HETATM   17  C   UNL     1     -10.459  18.289  65.951  1.00  0.00    -0.324 C  
HETATM   18  C   UNL     1      -9.768  19.628  68.773  1.00  0.00    -0.405 C  
HETATM   19  C   UNL     1      -9.129  18.677  66.611  1.00  0.00    -0.306 C  
HETATM   20  C   UNL     1     -10.997  16.950  68.030  1.00  0.00    -0.271 C  
HETATM   21  C   UNL     1      -9.563  17.224  68.484  1.00  0.00    -0.291 C  
ENDBRANCH  14  15
ENDBRANCH  13  14
ENDBRANCH   4  13
BRANCH   5  22
HETATM   22  N   UNL     1     -10.339   8.786  68.094  1.00  0.00    -0.216 NA 
HETATM   23  H   UNL     1     -10.468   8.597  67.101  1.00  0.00     0.000 HD 
BRANCH  22  24
HETATM   24  C   UNL     1      -9.513   7.894  68.817  1.00  0.00    -0.147 A  
HETATM   25  C   UNL     1     -10.041   6.705  69.340  1.00  0.00    -0.173 A  
HETATM   26  F   UNL     1     -11.313   6.371  69.075  1.00  0.00    -0.367 F  
HETATM   27  C   UNL     1      -9.278   5.850  70.141  1.00  0.00    -0.169 A  
HETATM   28  C   UNL     1      -7.967   6.197  70.442  1.00  0.00    -0.108 A  
HETATM   29 BR   UNL     1      -6.917   5.077  71.546  1.00  0.00    -0.054 Br 
HETATM   30  C   UNL     1      -7.424   7.390  69.963  1.00  0.00    -0.084 A  
HETATM   31  C   UNL     1      -8.199   8.234  69.160  1.00  0.00    -0.121 A  
ENDBRANCH  22  24
ENDBRANCH   5  22
ENDBRANCH   2   3
TORSDOF 6
ENDMDL
MODEL       86
REMARK 921   NORMALIZED FREE ENERGY PREDICTED BY IDOCK:   -5.44 KCAL/MOL
REMARK 922        TOTAL FREE ENERGY PREDICTED BY IDOCK:   -8.39 KCAL/MOL
REMARK 923 INTER-LIGAND FREE ENERGY PREDICTED BY IDOCK:   -7.52 KCAL/MOL
REMARK 924 INTRA-LIGAND FREE ENERGY PREDICTED BY IDOCK:   -0.87 KCAL/MOL
REMARK 927      BINDING AFFINITY PREDICTED BY RF-SCORE:    0.00 PKD
ROOT
HETATM    1  C   UNL     1      -6.831  11.734  67.945  1.00  0.00    -0.077 C  
HETATM    2  O   UNL     1      -8.130  11.576  68.520  1.00  0.00    -0.139 OA 
ENDROOT
BRANCH   2   3
HETATM    3  C   UNL     1      -9.210  11.773  67.699  1.00  0.00    -0.180 A  
HETATM    4  C   UNL     1     -10.271  10.858  67.716  1.00  0.00    -0.180 A  
HETATM    5  C   UNL     1     -10.643  14.227  65.204  1.00  0.00    -0.406 A  
HETATM    6  C   UNL     1     -11.377  11.072  66.875  1.00  0.00    -0.112 A  
HETATM    7  N   UNL     1     -11.772  14.414  64.501  1.00  0.00    -0.421 NA 
HETATM    8  C   UNL     1     -11.499  12.186  66.056  1.00  0.00    -0.370 A  
HETATM    9  C   UNL     1      -9.318  12.888  66.853  1.00  0.00    -0.240 A  
HETATM   10  N   UNL     1     -12.616  12.348  65.336  1.00  0.00    -0.557 NA 
HETATM   11  C   UNL     1     -10.451  13.105  66.030  1.00  0.00    -0.291 A  
HETATM   12  C   UNL     1     -12.704  13.462  64.604  1.00  0.00    -0.186 A  
BRANCH   4  13
HETATM   13  O   UNL     1     -10.395   9.686  68.421  1.00  0.00    -0.187 OA 
BRANCH  13  14
HETATM   14  C   UNL     1      -9.514   8.609  68.111  1.00  0.00    -0.141 C  
BRANCH  14  15
HETATM   15  C   UNL     1     -10.038   7.848  66.864  1.00  0.00    -0.362 C  
HETATM   16  N   UNL     1      -9.251   4.962  66.632  1.00  0.00    -0.122 NA 
HETATM   17  C   UNL     1     -11.033   6.699  67.143  1.00  0.00    -0.478 C  
HETATM   18  C   UNL     1      -9.627   4.496  65.298  1.00  0.00    -0.172 C  
HETATM   19  C   UNL     1     -10.399   5.338  67.462  1.00  0.00    -0.162 C  
HETATM   20  C   UNL     1      -8.860   7.346  66.019  1.00  0.00    -0.173 C  
HETATM   21  C   UNL     1      -8.273   6.052  66.581  1.00  0.00    -0.106 C  
ENDBRANCH  14  15
ENDBRANCH  13  14
ENDBRANCH   4  13
BRANCH   5  22
HETATM   22  N   UNL     1      -9.602  15.182  65.082  1.00  0.00    -0.277 NA 
HETATM   23  H   UNL     1      -9.009  15.119  64.255  1.00  0.00     0.000 HD 
BRANCH  22  24
HETATM   24  C   UNL     1      -9.313  16.215  66.005  1.00  0.00    -0.333 A  
HETATM   25  C   UNL     1     -10.052  17.406  65.989  1.00  0.00    -0.262 A  
HETATM   26  F   UNL     1     -11.096  17.528  65.154  1.00  0.00    -0.375 F  
HETATM   27  C   UNL     1      -9.731  18.484  66.820  1.00  0.00    -0.345 A  
HETATM   28  C   UNL     1      -8.639  18.377  67.672  1.00  0.00    -0.259 A  
HETATM   29 BR   UNL     1      -8.159  19.826  68.787  1.00  0.00    -0.148 Br 
HETATM   30  C   UNL     1      -7.865  17.217  67.686  1.00  0.00    -0.187 A  
HETATM   31  C   UNL     1      -8.200  16.146  66.851  1.00  0.00    -0.273 A  
ENDBRANCH  22  24
ENDBRANCH   5  22
ENDBRANCH   2   3
TORSDOF 6
ENDMDL
MODEL       87
REMARK 921   NORMALIZED FREE ENERGY PREDICTED BY IDOCK:   -5.42 KCAL/MOL
REMARK 922        TOTAL FREE ENERGY PREDICTED BY IDOCK:   -8.36 KCAL/MOL
REMARK 923 INTER-LIGAND FREE ENERGY PREDICTED BY IDOCK:   -8.05 KCAL/MOL
REMARK 924 INTRA-LIGAND FREE ENERGY PREDICTED BY IDOCK:   -0.31 KCAL/MOL
REMARK 927      BINDING AFFINITY PREDICTED BY RF-SCORE:    0.00 PKD
ROOT
HETATM    1  C   UNL     1      -7.468  13.835  67.934  1.00  0.00    -0.152 C  
HETATM    2  O   UNL     1      -8.789  14.312  68.200  1.00  0.00    -0.169 OA 
ENDROOT
BRANCH   2   3
HETATM    3  C   UNL     1      -9.777  13.956  67.320  1.00  0.00    -0.245 A  
HETATM    4  C   UNL     1     -11.003  14.634  67.341  1.00  0.00    -0.308 A  
HETATM    5  C   UNL     1     -10.479  11.645  64.410  1.00  0.00    -0.322 A  
HETATM    6  C   UNL     1     -12.008  14.266  66.429  1.00  0.00    -0.438 A  
HETATM    7  N   UNL     1     -11.451  11.414  63.511  1.00  0.00    -0.256 NA 
HETATM    8  C   UNL     1     -11.830  13.287  65.462  1.00  0.00    -0.370 A  
HETATM    9  C   UNL     1      -9.601  12.948  66.360  1.00  0.00    -0.252 A  
HETATM   10  N   UNL     1     -12.814  13.044  64.589  1.00  0.00    -0.732 NA 
HETATM   11  C   UNL     1     -10.614  12.605  65.430  1.00  0.00    -0.307 A  
HETATM   12  C   UNL     1     -12.571  12.128  63.646  1.00  0.00    -0.504 A  
BRANCH   4  13
HETATM   13  O   UNL     1     -11.433  15.625  68.190  1.00  0.00    -0.352 OA 
BRANCH  13  14
HETATM   14  C   UNL     1     -10.721  15.833  69.407  1.00  0.00    -0.266 C  
BRANCH  14  15
HETATM   15  C   UNL     1     -11.178  14.794  70.465  1.00  0.00    -0.192 C  
HETATM   16  N   UNL     1     -13.392  15.645  72.302  1.00  0.00    -0.462 NA 
HETATM   17  C   UNL     1     -12.622  14.266  70.312  1.00  0.00    -0.378 C  
HETATM   18  C   UNL     1     -13.511  14.644  73.362  1.00  0.00     0.273 C  
HETATM   19  C   UNL     1     -13.713  15.122  70.970  1.00  0.00    -0.382 C  
HETATM   20  C   UNL     1     -10.955  15.347  71.878  1.00  0.00    -0.049 C  
HETATM   21  C   UNL     1     -12.079  16.293  72.299  1.00  0.00    -0.486 C  
ENDBRANCH  14  15
ENDBRANCH  13  14
ENDBRANCH   4  13
BRANCH   5  22
HETATM   22  N   UNL     1      -9.293  10.871  64.341  1.00  0.00    -0.218 NA 
HETATM   23  H   UNL     1      -8.515  11.261  63.809  1.00  0.00     0.000 HD 
BRANCH  22  24
HETATM   24  C   UNL     1      -9.093   9.607  64.944  1.00  0.00    -0.232 A  
HETATM   25  C   UNL     1      -8.187   8.693  64.388  1.00  0.00    -0.162 A  
HETATM   26  F   UNL     1      -7.443   9.055  63.332  1.00  0.00    -0.096 F  
HETATM   27  C   UNL     1      -8.036   7.401  64.900  1.00  0.00    -0.128 A  
HETATM   28  C   UNL     1      -8.818   7.007  65.979  1.00  0.00    -0.135 A  
HETATM   29 BR   UNL     1      -8.660   5.257  66.678  1.00  0.00    -0.110 Br 
HETATM   30  C   UNL     1      -9.751   7.884  66.533  1.00  0.00    -0.279 A  
HETATM   31  C   UNL     1      -9.889   9.174  66.011  1.00  0.00    -0.342 A  
ENDBRANCH  22  24
ENDBRANCH   5  22
ENDBRANCH   2   3
TORSDOF 6
ENDMDL
MODEL       88
REMARK 921   NORMALIZED FREE ENERGY PREDICTED BY IDOCK:   -5.40 KCAL/MOL
REMARK 922        TOTAL FREE ENERGY PREDICTED BY IDOCK:   -8.34 KCAL/MOL
REMARK 923 INTER-LIGAND FREE ENERGY PREDICTED BY IDOCK:   -7.30 KCAL/MOL
REMARK 924 INTRA-LIGAND FREE ENERGY PREDICTED BY IDOCK:   -1.05 KCAL/MOL
REMARK 927      BINDING AFFINITY PREDICTED BY RF-SCORE:    0.00 PKD
ROOT
HETATM    1  C   UNL     1     -12.384  12.942  65.503  1.00  0.00    -0.461 C  
HETATM    2  O   UNL     1     -12.135  12.301  66.756  1.00  0.00    -0.593 OA 
ENDROOT
BRANCH   2   3
HETATM    3  C   UNL     1     -10.842  12.286  67.209  1.00  0.00    -0.245 A  
HETATM    4  C   UNL     1     -10.364  11.168  67.908  1.00  0.00    -0.185 A  
HETATM    5  C   UNL     1      -7.646  14.307  67.158  1.00  0.00     0.032 A  
HETATM    6  C   UNL     1      -9.033  11.159  68.362  1.00  0.00    -0.165 A  
HETATM    7  N   UNL     1      -6.364  14.185  67.541  1.00  0.00    -0.324 NA 
HETATM    8  C   UNL     1      -8.140  12.190  68.108  1.00  0.00    -0.161 A  
HETATM    9  C   UNL     1      -9.949  13.342  66.971  1.00  0.00    -0.238 A  
HETATM   10  N   UNL     1      -6.872  12.072  68.518  1.00  0.00    -0.072 NA 
HETATM   11  C   UNL     1      -8.603  13.307  67.413  1.00  0.00    -0.204 A  
HETATM   12  C   UNL     1      -6.041  13.070  68.203  1.00  0.00    -0.099 A  
BRANCH   4  13
HETATM   13  O   UNL     1     -11.035  10.033  68.292  1.00  0.00    -0.248 OA 
BRANCH  13  14
HETATM   14  C   UNL     1     -10.335   9.054  69.054  1.00  0.00    -0.219 C  
BRANCH  14  15
HETATM   15  C   UNL     1     -11.143   8.712  70.334  1.00  0.00    -0.250 C  
HETATM   16  N   UNL     1      -9.905   6.717  72.202  1.00  0.00    -0.150 NA 
HETATM   17  C   UNL     1     -10.495   9.131  71.673  1.00  0.00    -0.403 C  
HETATM   18  C   UNL     1     -10.907   6.351  73.202  1.00  0.00    -0.254 C  
HETATM   19  C   UNL     1      -9.502   8.125  72.271  1.00  0.00    -0.245 C  
HETATM   20  C   UNL     1     -11.497   7.219  70.351  1.00  0.00    -0.279 C  
HETATM   21  C   UNL     1     -10.327   6.368  70.844  1.00  0.00    -0.204 C  
ENDBRANCH  14  15
ENDBRANCH  13  14
ENDBRANCH   4  13
BRANCH   5  22
HETATM   22  N   UNL     1      -8.048  15.498  66.503  1.00  0.00    -0.334 NA 
HETATM   23  H   UNL     1      -8.724  15.406  65.746  1.00  0.00     0.000 HD 
BRANCH  22  24
HETATM   24  C   UNL     1      -7.595  16.804  66.807  1.00  0.00    -0.248 A  
HETATM   25  C   UNL     1      -8.159  17.520  67.872  1.00  0.00    -0.230 A  
HETATM   26  F   UNL     1      -9.069  16.928  68.661  1.00  0.00    -0.230 F  
HETATM   27  C   UNL     1      -7.805  18.846  68.139  1.00  0.00    -0.327 A  
HETATM   28  C   UNL     1      -6.881  19.476  67.314  1.00  0.00    -0.201 A  
HETATM   29 BR   UNL     1      -6.401  21.278  67.629  1.00  0.00    -0.294 Br 
HETATM   30  C   UNL     1      -6.327  18.800  66.227  1.00  0.00    -0.214 A  
HETATM   31  C   UNL     1      -6.689  17.473  65.974  1.00  0.00    -0.256 A  
ENDBRANCH  22  24
ENDBRANCH   5  22
ENDBRANCH   2   3
TORSDOF 6
ENDMDL
MODEL       89
REMARK 921   NORMALIZED FREE ENERGY PREDICTED BY IDOCK:   -5.40 KCAL/MOL
REMARK 922        TOTAL FREE ENERGY PREDICTED BY IDOCK:   -8.34 KCAL/MOL
REMARK 923 INTER-LIGAND FREE ENERGY PREDICTED BY IDOCK:   -7.28 KCAL/MOL
REMARK 924 INTRA-LIGAND FREE ENERGY PREDICTED BY IDOCK:   -1.06 KCAL/MOL
REMARK 927      BINDING AFFINITY PREDICTED BY RF-SCORE:    0.00 PKD
ROOT
HETATM    1  C   UNL     1     -11.467   8.958  71.578  1.00  0.00    -0.321 C  
HETATM    2  O   UNL     1     -10.544   8.327  70.688  1.00  0.00    -0.207 OA 
ENDROOT
BRANCH   2   3
HETATM    3  C   UNL     1     -10.394   8.877  69.441  1.00  0.00    -0.213 A  
HETATM    4  C   UNL     1     -10.490   8.060  68.306  1.00  0.00    -0.161 A  
HETATM    5  C   UNL     1      -9.901  12.193  67.691  1.00  0.00    -0.194 A  
HETATM    6  C   UNL     1     -10.342   8.635  67.032  1.00  0.00    -0.368 A  
HETATM    7  N   UNL     1      -9.864  12.682  66.440  1.00  0.00    -0.254 NA 
HETATM    8  C   UNL     1     -10.156   9.996  66.833  1.00  0.00    -0.229 A  
HETATM    9  C   UNL     1     -10.181  10.250  69.246  1.00  0.00    -0.244 A  
HETATM   10  N   UNL     1     -10.092  10.471  65.583  1.00  0.00    -0.264 NA 
HETATM   11  C   UNL     1     -10.060  10.820  67.954  1.00  0.00    -0.197 A  
HETATM   12  C   UNL     1      -9.963  11.794  65.447  1.00  0.00    -0.253 A  
BRANCH   4  13
HETATM   13  O   UNL     1     -10.661   6.700  68.228  1.00  0.00    -0.216 OA 
BRANCH  13  14
HETATM   14  C   UNL     1     -11.016   6.130  66.971  1.00  0.00    -0.330 C  
BRANCH  14  15
HETATM   15  C   UNL     1     -10.375   4.724  66.835  1.00  0.00    -0.202 C  
HETATM   16  N   UNL     1      -7.542   4.637  65.852  1.00  0.00    -0.089 NA 
HETATM   17  C   UNL     1      -9.186   4.430  67.777  1.00  0.00    -0.166 C  
HETATM   18  C   UNL     1      -7.205   3.244  65.563  1.00  0.00    -0.071 C  
HETATM   19  C   UNL     1      -7.811   4.888  67.271  1.00  0.00    -0.095 C  
HETATM   20  C   UNL     1      -9.982   4.462  65.375  1.00  0.00    -0.231 C  
HETATM   21  C   UNL     1      -8.648   5.121  65.023  1.00  0.00    -0.151 C  
ENDBRANCH  14  15
ENDBRANCH  13  14
ENDBRANCH   4  13
BRANCH   5  22
HETATM   22  N   UNL     1      -9.743  13.091  68.776  1.00  0.00    -0.418 NA 
HETATM   23  H   UNL     1      -9.568  12.683  69.694  1.00  0.00     0.000 HD 
BRANCH  22  24
HETATM   24  C   UNL     1      -9.807  14.502  68.700  1.00  0.00    -0.232 A  
HETATM   25  C   UNL     1     -11.045  15.151  68.595  1.00  0.00    -0.271 A  
HETATM   26  F   UNL     1     -12.177  14.433  68.659  1.00  0.00    -0.345 F  
HETATM   27  C   UNL     1     -11.140  16.535  68.420  1.00  0.00    -0.333 A  
HETATM   28  C   UNL     1      -9.974  17.285  68.330  1.00  0.00    -0.313 A  
HETATM   29 BR   UNL     1     -10.065  19.155  68.064  1.00  0.00    -0.515 Br 
HETATM   30  C   UNL     1      -8.726  16.663  68.397  1.00  0.00    -0.225 A  
HETATM   31  C   UNL     1      -8.648  15.278  68.575  1.00  0.00    -0.167 A  
ENDBRANCH  22  24
ENDBRANCH   5  22
ENDBRANCH   2   3
TORSDOF 6
ENDMDL
MODEL       90
REMARK 921   NORMALIZED FREE ENERGY PREDICTED BY IDOCK:   -5.35 KCAL/MOL
REMARK 922        TOTAL FREE ENERGY PREDICTED BY IDOCK:   -8.27 KCAL/MOL
REMARK 923 INTER-LIGAND FREE ENERGY PREDICTED BY IDOCK:   -7.53 KCAL/MOL
REMARK 924 INTRA-LIGAND FREE ENERGY PREDICTED BY IDOCK:   -0.74 KCAL/MOL
REMARK 927      BINDING AFFINITY PREDICTED BY RF-SCORE:    0.00 PKD
ROOT
HETATM    1  C   UNL     1      -9.144   9.653  70.105  1.00  0.00    -0.240 C  
HETATM    2  O   UNL     1      -9.971   8.950  69.175  1.00  0.00    -0.179 OA 
ENDROOT
BRANCH   2   3
HETATM    3  C   UNL     1      -9.860   9.290  67.852  1.00  0.00    -0.167 A  
HETATM    4  C   UNL     1      -9.003   8.560  67.017  1.00  0.00    -0.137 A  
HETATM    5  C   UNL     1     -11.271  11.653  65.258  1.00  0.00    -0.199 A  
HETATM    6  C   UNL     1      -8.902   8.912  65.659  1.00  0.00    -0.230 A  
HETATM    7  N   UNL     1     -11.191  11.869  63.935  1.00  0.00    -0.389 NA 
HETATM    8  C   UNL     1      -9.654   9.926  65.083  1.00  0.00    -0.300 A  
HETATM    9  C   UNL     1     -10.605  10.332  67.279  1.00  0.00    -0.324 A  
HETATM   10  N   UNL     1      -9.547  10.153  63.769  1.00  0.00    -0.281 NA 
HETATM   11  C   UNL     1     -10.512  10.659  65.903  1.00  0.00    -0.243 A  
HETATM   12  C   UNL     1     -10.331  11.105  63.255  1.00  0.00    -0.308 A  
BRANCH   4  13
HETATM   13  O   UNL     1      -8.154   7.529  67.334  1.00  0.00    -0.113 OA 
BRANCH  13  14
HETATM   14  C   UNL     1      -8.673   6.420  68.064  1.00  0.00    -0.115 C  
BRANCH  14  15
HETATM   15  C   UNL     1      -8.265   5.096  67.364  1.00  0.00    -0.107 C  
HETATM   16  N   UNL     1      -9.426   4.614  64.640  1.00  0.00    -0.099 NA 
HETATM   17  C   UNL     1      -7.427   5.245  66.074  1.00  0.00    -0.082 C  
HETATM   18  C   UNL     1      -9.127   3.234  64.258  1.00  0.00    -0.122 C  
HETATM   19  C   UNL     1      -8.230   5.450  64.783  1.00  0.00    -0.132 C  
HETATM   20  C   UNL     1      -9.507   4.234  67.101  1.00  0.00    -0.204 C  
HETATM   21  C   UNL     1     -10.253   4.687  65.846  1.00  0.00    -0.276 C  
ENDBRANCH  14  15
ENDBRANCH  13  14
ENDBRANCH   4  13
BRANCH   5  22
HETATM   22  N   UNL     1     -12.128  12.478  66.030  1.00  0.00    -0.612 NA 
HETATM   23  H   UNL     1     -13.093  12.168  66.142  1.00  0.00     0.000 HD 
BRANCH  22  24
HETATM   24  C   UNL     1     -11.764  13.692  66.658  1.00  0.00    -0.388 A  
HETATM   25  C   UNL     1     -11.248  14.754  65.903  1.00  0.00    -0.340 A  
HETATM   26  F   UNL     1     -11.184  14.647  64.566  1.00  0.00    -0.366 F  
HETATM   27  C   UNL     1     -10.789  15.930  66.502  1.00  0.00    -0.198 A  
HETATM   28  C   UNL     1     -10.829  16.043  67.886  1.00  0.00    -0.333 A  
HETATM   29 BR   UNL     1     -10.189  17.608  68.732  1.00  0.00    -0.344 Br 
HETATM   30  C   UNL     1     -11.307  14.990  68.667  1.00  0.00    -0.311 A  
HETATM   31  C   UNL     1     -11.766  13.820  68.053  1.00  0.00    -0.390 A  
ENDBRANCH  22  24
ENDBRANCH   5  22
ENDBRANCH   2   3
TORSDOF 6
ENDMDL
MODEL       91
REMARK 921   NORMALIZED FREE ENERGY PREDICTED BY IDOCK:   -5.34 KCAL/MOL
REMARK 922        TOTAL FREE ENERGY PREDICTED BY IDOCK:   -8.26 KCAL/MOL
REMARK 923 INTER-LIGAND FREE ENERGY PREDICTED BY IDOCK:   -7.41 KCAL/MOL
REMARK 924 INTRA-LIGAND FREE ENERGY PREDICTED BY IDOCK:   -0.85 KCAL/MOL
REMARK 927      BINDING AFFINITY PREDICTED BY RF-SCORE:    0.00 PKD
ROOT
HETATM    1  C   UNL     1      -6.771  14.374  69.334  1.00  0.00    -0.140 C  
HETATM    2  O   UNL     1      -7.924  15.217  69.273  1.00  0.00    -0.190 OA 
ENDROOT
BRANCH   2   3
HETATM    3  C   UNL     1      -8.957  14.811  68.469  1.00  0.00    -0.182 A  
HETATM    4  C   UNL     1      -9.927  15.739  68.063  1.00  0.00    -0.222 A  
HETATM    5  C   UNL     1     -10.263  11.799  66.591  1.00  0.00    -0.210 A  
HETATM    6  C   UNL     1     -10.979  15.315  67.232  1.00  0.00    -0.327 A  
HETATM    7  N   UNL     1     -11.243  11.492  65.725  1.00  0.00    -0.223 NA 
HETATM    8  C   UNL     1     -11.082  14.020  66.744  1.00  0.00    -0.306 A  
HETATM    9  C   UNL     1      -9.072  13.494  67.998  1.00  0.00    -0.201 A  
HETATM   10  N   UNL     1     -12.079  13.716  65.905  1.00  0.00    -0.411 NA 
HETATM   11  C   UNL     1     -10.124  13.087  67.140  1.00  0.00    -0.244 A  
HETATM   12  C   UNL     1     -12.103  12.469  65.424  1.00  0.00    -0.435 A  
BRANCH   4  13
HETATM   13  O   UNL     1     -10.057  17.063  68.404  1.00  0.00    -0.267 OA 
BRANCH  13  14
HETATM   14  C   UNL     1     -10.640  17.955  67.459  1.00  0.00    -0.376 C  
BRANCH  14  15
HETATM   15  C   UNL     1     -10.047  19.377  67.646  1.00  0.00    -0.505 C  
HETATM   16  N   UNL     1      -7.067  19.623  67.395  1.00  0.00    -0.209 NA 
HETATM   17  C   UNL     1      -9.375  19.997  66.400  1.00  0.00    -0.481 C  
HETATM   18  C   UNL     1      -6.685  20.964  67.837  1.00  0.00    -0.288 C  
HETATM   19  C   UNL     1      -7.901  19.624  66.189  1.00  0.00    -0.331 C  
HETATM   20  C   UNL     1      -9.084  19.393  68.840  1.00  0.00    -0.363 C  
HETATM   21  C   UNL     1      -7.706  18.851  68.463  1.00  0.00    -0.331 C  
ENDBRANCH  14  15
ENDBRANCH  13  14
ENDBRANCH   4  13
BRANCH   5  22
HETATM   22  N   UNL     1      -9.360  10.779  66.984  1.00  0.00    -0.155 NA 
HETATM   23  H   UNL     1      -9.365  10.509  67.967  1.00  0.00     0.000 HD 
BRANCH  22  24
HETATM   24  C   UNL     1      -8.454  10.103  66.135  1.00  0.00    -0.130 A  
HETATM   25  C   UNL     1      -7.182  10.638  65.885  1.00  0.00    -0.119 A  
HETATM   26  F   UNL     1      -6.794  11.751  66.527  1.00  0.00    -0.121 F  
HETATM   27  C   UNL     1      -6.299  10.047  64.976  1.00  0.00    -0.116 A  
HETATM   28  C   UNL     1      -6.699   8.908  64.289  1.00  0.00    -0.078 A  
HETATM   29 BR   UNL     1      -5.541   8.101  63.031  1.00  0.00    -0.068 Br 
HETATM   30  C   UNL     1      -7.971   8.371  64.492  1.00  0.00    -0.146 A  
HETATM   31  C   UNL     1      -8.842   8.971  65.406  1.00  0.00    -0.237 A  
ENDBRANCH  22  24
ENDBRANCH   5  22
ENDBRANCH   2   3
TORSDOF 6
ENDMDL
MODEL       92
REMARK 921   NORMALIZED FREE ENERGY PREDICTED BY IDOCK:   -5.34 KCAL/MOL
REMARK 922        TOTAL FREE ENERGY PREDICTED BY IDOCK:   -8.26 KCAL/MOL
REMARK 923 INTER-LIGAND FREE ENERGY PREDICTED BY IDOCK:   -7.24 KCAL/MOL
REMARK 924 INTRA-LIGAND FREE ENERGY PREDICTED BY IDOCK:   -1.02 KCAL/MOL
REMARK 927      BINDING AFFINITY PREDICTED BY RF-SCORE:    0.00 PKD
ROOT
HETATM    1  C   UNL     1      -9.818   9.368  69.713  1.00  0.00    -0.201 C  
HETATM    2  O   UNL     1     -10.707  10.264  69.041  1.00  0.00    -0.202 OA 
ENDROOT
BRANCH   2   3
HETATM    3  C   UNL     1     -10.550  10.408  67.687  1.00  0.00    -0.257 A  
HETATM    4  C   UNL     1     -11.183  11.469  67.024  1.00  0.00    -0.300 A  
HETATM    5  C   UNL     1      -8.722   8.924  64.728  1.00  0.00    -0.127 A  
HETATM    6  C   UNL     1     -11.010  11.612  65.636  1.00  0.00    -0.322 A  
HETATM    7  N   UNL     1      -8.530   9.181  63.423  1.00  0.00    -0.198 NA 
HETATM    8  C   UNL     1     -10.195  10.777  64.885  1.00  0.00    -0.320 A  
HETATM    9  C   UNL     1      -9.744   9.546  66.928  1.00  0.00    -0.237 A  
HETATM   10  N   UNL     1     -10.033  11.024  63.580  1.00  0.00    -0.336 NA 
HETATM   11  C   UNL     1      -9.559   9.718  65.533  1.00  0.00    -0.348 A  
HETATM   12  C   UNL     1      -9.196  10.221  62.915  1.00  0.00    -0.297 A  
BRANCH   4  13
HETATM   13  O   UNL     1     -12.038  12.419  67.526  1.00  0.00    -0.491 OA 
BRANCH  13  14
HETATM   14  C   UNL     1     -11.531  13.360  68.469  1.00  0.00    -0.310 C  
BRANCH  14  15
HETATM   15  C   UNL     1     -11.784  14.802  67.956  1.00  0.00    -0.360 C  
HETATM   16  N   UNL     1      -9.734  16.863  68.700  1.00  0.00    -0.257 NA 
HETATM   17  C   UNL     1     -10.757  15.346  66.937  1.00  0.00    -0.314 C  
HETATM   18  C   UNL     1     -10.263  18.178  68.340  1.00  0.00    -0.387 C  
HETATM   19  C   UNL     1      -9.504  15.993  67.542  1.00  0.00    -0.223 C  
HETATM   20  C   UNL     1     -11.928  15.766  69.140  1.00  0.00    -0.312 C  
HETATM   21  C   UNL     1     -10.567  16.185  69.696  1.00  0.00    -0.311 C  
ENDBRANCH  14  15
ENDBRANCH  13  14
ENDBRANCH   4  13
BRANCH   5  22
HETATM   22  N   UNL     1      -8.080   7.797  65.299  1.00  0.00    -0.127 NA 
HETATM   23  H   UNL     1      -7.313   7.977  65.945  1.00  0.00     0.000 HD 
BRANCH  22  24
HETATM   24  C   UNL     1      -8.409   6.443  65.052  1.00  0.00    -0.087 A  
HETATM   25  C   UNL     1      -9.039   5.675  66.042  1.00  0.00    -0.156 A  
HETATM   26  F   UNL     1      -9.411   6.255  67.194  1.00  0.00    -0.119 F  
HETATM   27  C   UNL     1      -9.290   4.311  65.868  1.00  0.00    -0.163 A  
HETATM   28  C   UNL     1      -8.889   3.696  64.689  1.00  0.00    -0.119 A  
HETATM   29 BR   UNL     1      -9.186   1.846  64.433  1.00  0.00    -0.133 Br 
HETATM   30  C   UNL     1      -8.230   4.427  63.699  1.00  0.00    -0.099 A  
HETATM   31  C   UNL     1      -7.989   5.791  63.886  1.00  0.00    -0.121 A  
ENDBRANCH  22  24
ENDBRANCH   5  22
ENDBRANCH   2   3
TORSDOF 6
ENDMDL
MODEL       93
REMARK 921   NORMALIZED FREE ENERGY PREDICTED BY IDOCK:   -5.30 KCAL/MOL
REMARK 922        TOTAL FREE ENERGY PREDICTED BY IDOCK:   -8.21 KCAL/MOL
REMARK 923 INTER-LIGAND FREE ENERGY PREDICTED BY IDOCK:   -7.01 KCAL/MOL
REMARK 924 INTRA-LIGAND FREE ENERGY PREDICTED BY IDOCK:   -1.20 KCAL/MOL
REMARK 927      BINDING AFFINITY PREDICTED BY RF-SCORE:    0.00 PKD
ROOT
HETATM    1  C   UNL     1     -12.536  12.245  64.259  1.00  0.00    -0.413 C  
HETATM    2  O   UNL     1     -12.332  12.347  65.670  1.00  0.00    -0.639 OA 
ENDROOT
BRANCH   2   3
HETATM    3  C   UNL     1     -11.043  12.510  66.109  1.00  0.00    -0.298 A  
HETATM    4  C   UNL     1     -10.496  13.797  66.193  1.00  0.00    -0.297 A  
HETATM    5  C   UNL     1      -8.099  10.572  67.478  1.00  0.00    -0.107 A  
HETATM    6  C   UNL     1      -9.176  13.954  66.652  1.00  0.00    -0.253 A  
HETATM    7  N   UNL     1      -6.881  10.809  67.993  1.00  0.00    -0.067 NA 
HETATM    8  C   UNL     1      -8.393  12.892  67.080  1.00  0.00    -0.157 A  
HETATM    9  C   UNL     1     -10.247  11.430  66.518  1.00  0.00    -0.259 A  
HETATM   10  N   UNL     1      -7.170  13.135  67.565  1.00  0.00    -0.157 NA 
HETATM   11  C   UNL     1      -8.926  11.606  67.002  1.00  0.00    -0.182 A  
HETATM   12  C   UNL     1      -6.478  12.083  68.011  1.00  0.00    -0.061 A  
BRANCH   4  13
HETATM   13  O   UNL     1     -11.049  15.001  65.830  1.00  0.00    -0.336 OA 
BRANCH  13  14
HETATM   14  C   UNL     1     -10.188  16.125  65.672  1.00  0.00    -0.364 C  
BRANCH  14  15
HETATM   15  C   UNL     1     -10.755  17.334  66.462  1.00  0.00    -0.078 C  
HETATM   16  N   UNL     1      -8.870  18.692  68.360  1.00  0.00    -0.331 NA 
HETATM   17  C   UNL     1     -10.117  18.706  66.147  1.00  0.00    -0.399 C  
HETATM   18  C   UNL     1      -9.644  19.630  69.173  1.00  0.00    -0.252 C  
HETATM   19  C   UNL     1      -8.844  19.040  66.937  1.00  0.00    -0.301 C  
HETATM   20  C   UNL     1     -10.704  17.050  67.969  1.00  0.00    -0.365 C  
HETATM   21  C   UNL     1      -9.311  17.307  68.544  1.00  0.00    -0.276 C  
ENDBRANCH  14  15
ENDBRANCH  13  14
ENDBRANCH   4  13
BRANCH   5  22
HETATM   22  N   UNL     1      -8.546   9.230  67.385  1.00  0.00    -0.122 NA 
HETATM   23  H   UNL     1      -8.642   8.836  66.450  1.00  0.00     0.000 HD 
BRANCH  22  24
HETATM   24  C   UNL     1      -8.871   8.388  68.474  1.00  0.00    -0.136 A  
HETATM   25  C   UNL     1      -7.948   7.441  68.939  1.00  0.00    -0.126 A  
HETATM   26  F   UNL     1      -6.718   7.397  68.403  1.00  0.00    -0.046 F  
HETATM   27  C   UNL     1      -8.271   6.529  69.948  1.00  0.00    -0.126 A  
HETATM   28  C   UNL     1      -9.549   6.550  70.493  1.00  0.00    -0.169 A  
HETATM   29 BR   UNL     1     -10.029   5.311  71.838  1.00  0.00    -0.249 Br 
HETATM   30  C   UNL     1     -10.500   7.459  70.029  1.00  0.00    -0.233 A  
HETATM   31  C   UNL     1     -10.161   8.368  69.021  1.00  0.00    -0.209 A  
ENDBRANCH  22  24
ENDBRANCH   5  22
ENDBRANCH   2   3
TORSDOF 6
ENDMDL
MODEL       94
REMARK 921   NORMALIZED FREE ENERGY PREDICTED BY IDOCK:   -5.30 KCAL/MOL
REMARK 922        TOTAL FREE ENERGY PREDICTED BY IDOCK:   -8.20 KCAL/MOL
REMARK 923 INTER-LIGAND FREE ENERGY PREDICTED BY IDOCK:   -7.57 KCAL/MOL
REMARK 924 INTRA-LIGAND FREE ENERGY PREDICTED BY IDOCK:   -0.63 KCAL/MOL
REMARK 927      BINDING AFFINITY PREDICTED BY RF-SCORE:    0.00 PKD
ROOT
HETATM    1  C   UNL     1      -7.344   7.964  70.407  1.00  0.00    -0.068 C  
HETATM    2  O   UNL     1      -8.605   7.503  69.917  1.00  0.00    -0.137 OA 
ENDROOT
BRANCH   2   3
HETATM    3  C   UNL     1      -9.733   8.079  70.442  1.00  0.00    -0.178 A  
HETATM    4  C   UNL     1     -10.522   7.360  71.350  1.00  0.00    -0.202 A  
HETATM    5  C   UNL     1     -11.680  11.321  70.473  1.00  0.00    -0.247 A  
HETATM    6  C   UNL     1     -11.673   7.962  71.888  1.00  0.00    -0.342 A  
HETATM    7  N   UNL     1     -12.739  11.860  71.099  1.00  0.00    -0.344 NA 
HETATM    8  C   UNL     1     -12.047   9.267  71.603  1.00  0.00    -0.379 A  
HETATM    9  C   UNL     1     -10.121   9.391  70.131  1.00  0.00    -0.273 A  
HETATM   10  N   UNL     1     -13.120   9.787  72.209  1.00  0.00    -0.402 NA 
HETATM   11  C   UNL     1     -11.270   9.994  70.701  1.00  0.00    -0.425 A  
HETATM   12  C   UNL     1     -13.407  11.064  71.939  1.00  0.00    -0.318 A  
BRANCH   4  13
HETATM   13  O   UNL     1     -10.378   6.066  71.790  1.00  0.00    -0.204 OA 
BRANCH  13  14
HETATM   14  C   UNL     1      -9.264   5.749  72.619  1.00  0.00    -0.137 C  
BRANCH  14  15
HETATM   15  C   UNL     1      -8.788   4.302  72.326  1.00  0.00    -0.123 C  
HETATM   16  N   UNL     1      -8.246   3.631  69.452  1.00  0.00    -0.053 NA 
HETATM   17  C   UNL     1      -7.352   4.163  71.770  1.00  0.00    -0.059 C  
HETATM   18  C   UNL     1      -8.049   2.185  69.354  1.00  0.00    -0.044 C  
HETATM   19  C   UNL     1      -7.215   4.305  70.248  1.00  0.00    -0.045 C  
HETATM   20  C   UNL     1      -9.791   3.593  71.406  1.00  0.00    -0.219 C  
HETATM   21  C   UNL     1      -9.582   3.976  69.941  1.00  0.00    -0.211 C  
ENDBRANCH  14  15
ENDBRANCH  13  14
ENDBRANCH   4  13
BRANCH   5  22
HETATM   22  N   UNL     1     -10.974  12.110  69.530  1.00  0.00    -0.462 NA 
HETATM   23  H   UNL     1     -10.102  12.536  69.842  1.00  0.00     0.000 HD 
BRANCH  22  24
HETATM   24  C   UNL     1     -11.372  12.360  68.196  1.00  0.00    -0.291 A  
HETATM   25  C   UNL     1     -11.006  11.477  67.171  1.00  0.00    -0.286 A  
HETATM   26  F   UNL     1     -10.353  10.344  67.473  1.00  0.00    -0.209 F  
HETATM   27  C   UNL     1     -11.299  11.742  65.830  1.00  0.00    -0.309 A  
HETATM   28  C   UNL     1     -11.954  12.923  65.503  1.00  0.00    -0.436 A  
HETATM   29 BR   UNL     1     -12.339  13.328  63.697  1.00  0.00    -0.365 Br 
HETATM   30  C   UNL     1     -12.302  13.837  66.498  1.00  0.00    -0.432 A  
HETATM   31  C   UNL     1     -12.005  13.556  67.836  1.00  0.00    -0.372 A  
ENDBRANCH  22  24
ENDBRANCH   5  22
ENDBRANCH   2   3
TORSDOF 6
ENDMDL
MODEL       95
REMARK 921   NORMALIZED FREE ENERGY PREDICTED BY IDOCK:   -5.28 KCAL/MOL
REMARK 922        TOTAL FREE ENERGY PREDICTED BY IDOCK:   -8.19 KCAL/MOL
REMARK 923 INTER-LIGAND FREE ENERGY PREDICTED BY IDOCK:   -7.18 KCAL/MOL
REMARK 924 INTRA-LIGAND FREE ENERGY PREDICTED BY IDOCK:   -1.00 KCAL/MOL
REMARK 927      BINDING AFFINITY PREDICTED BY RF-SCORE:    0.00 PKD
ROOT
HETATM    1  C   UNL     1      -5.977  14.593  68.413  1.00  0.00    -0.103 C  
HETATM    2  O   UNL     1      -6.740  14.374  67.224  1.00  0.00    -0.269 OA 
ENDROOT
BRANCH   2   3
HETATM    3  C   UNL     1      -8.015  13.893  67.373  1.00  0.00    -0.170 A  
HETATM    4  C   UNL     1      -9.083  14.555  66.753  1.00  0.00    -0.261 A  
HETATM    5  C   UNL     1      -9.957  11.029  68.898  1.00  0.00    -0.188 A  
HETATM    6  C   UNL     1     -10.387  14.051  66.907  1.00  0.00    -0.269 A  
HETATM    7  N   UNL     1     -11.214  10.556  68.922  1.00  0.00    -0.258 NA 
HETATM    8  C   UNL     1     -10.669  12.887  67.607  1.00  0.00    -0.223 A  
HETATM    9  C   UNL     1      -8.299  12.729  68.104  1.00  0.00    -0.172 A  
HETATM   10  N   UNL     1     -11.930  12.439  67.649  1.00  0.00    -0.481 NA 
HETATM   11  C   UNL     1      -9.615  12.218  68.228  1.00  0.00    -0.212 A  
HETATM   12  C   UNL     1     -12.139  11.287  68.293  1.00  0.00     0.012 A  
BRANCH   4  13
HETATM   13  O   UNL     1      -9.076  15.716  66.019  1.00  0.00    -0.334 OA 
BRANCH  13  14
HETATM   14  C   UNL     1      -9.518  16.919  66.642  1.00  0.00    -0.265 C  
BRANCH  14  15
HETATM   15  C   UNL     1      -8.603  18.097  66.214  1.00  0.00    -0.205 C  
HETATM   16  N   UNL     1      -7.238  19.598  68.424  1.00  0.00    -0.310 NA 
HETATM   17  C   UNL     1      -7.097  17.926  66.516  1.00  0.00    -0.270 C  
HETATM   18  C   UNL     1      -6.629  20.796  67.848  1.00  0.00    -0.320 C  
HETATM   19  C   UNL     1      -6.652  18.351  67.922  1.00  0.00    -0.208 C  
HETATM   20  C   UNL     1      -9.125  19.412  66.807  1.00  0.00    -0.382 C  
HETATM   21  C   UNL     1      -8.693  19.585  68.263  1.00  0.00    -0.336 C  
ENDBRANCH  14  15
ENDBRANCH  13  14
ENDBRANCH   4  13
BRANCH   5  22
HETATM   22  N   UNL     1      -8.951  10.317  69.600  1.00  0.00    -0.365 NA 
HETATM   23  H   UNL     1      -8.045  10.773  69.701  1.00  0.00     0.000 HD 
BRANCH  22  24
HETATM   24  C   UNL     1      -9.093   9.031  70.172  1.00  0.00    -0.188 A  
HETATM   25  C   UNL     1      -8.879   7.883  69.397  1.00  0.00    -0.145 A  
HETATM   26  F   UNL     1      -8.451   8.008  68.131  1.00  0.00    -0.119 F  
HETATM   27  C   UNL     1      -9.104   6.599  69.903  1.00  0.00    -0.143 A  
HETATM   28  C   UNL     1      -9.569   6.459  71.204  1.00  0.00    -0.174 A  
HETATM   29 BR   UNL     1      -9.912   4.739  71.910  1.00  0.00    -0.261 Br 
HETATM   30  C   UNL     1      -9.823   7.584  71.989  1.00  0.00    -0.200 A  
HETATM   31  C   UNL     1      -9.590   8.862  71.470  1.00  0.00    -0.362 A  
ENDBRANCH  22  24
ENDBRANCH   5  22
ENDBRANCH   2   3
TORSDOF 6
ENDMDL
MODEL       96
REMARK 921   NORMALIZED FREE ENERGY PREDICTED BY IDOCK:   -5.24 KCAL/MOL
REMARK 922        TOTAL FREE ENERGY PREDICTED BY IDOCK:   -8.13 KCAL/MOL
REMARK 923 INTER-LIGAND FREE ENERGY PREDICTED BY IDOCK:   -7.01 KCAL/MOL
REMARK 924 INTRA-LIGAND FREE ENERGY PREDICTED BY IDOCK:   -1.12 KCAL/MOL
REMARK 927      BINDING AFFINITY PREDICTED BY RF-SCORE:    0.00 PKD
ROOT
HETATM    1  C   UNL     1     -12.488  13.047  65.128  1.00  0.00    -0.496 C  
HETATM    2  O   UNL     1     -12.404  12.479  66.436  1.00  0.00    -0.537 OA 
ENDROOT
BRANCH   2   3
HETATM    3  C   UNL     1     -11.169  12.446  67.030  1.00  0.00    -0.303 A  
HETATM    4  C   UNL     1     -10.499  11.223  67.174  1.00  0.00    -0.222 A  
HETATM    5  C   UNL     1      -8.501  14.703  68.478  1.00  0.00    -0.161 A  
HETATM    6  C   UNL     1      -9.230  11.201  67.778  1.00  0.00    -0.153 A  
HETATM    7  N   UNL     1      -7.250  14.613  68.958  1.00  0.00    -0.127 NA 
HETATM    8  C   UNL     1      -8.573  12.348  68.199  1.00  0.00    -0.185 A  
HETATM    9  C   UNL     1     -10.518  13.607  67.477  1.00  0.00    -0.241 A  
HETATM   10  N   UNL     1      -7.337  12.246  68.703  1.00  0.00    -0.108 NA 
HETATM   11  C   UNL     1      -9.228  13.572  68.061  1.00  0.00    -0.209 A  
HETATM   12  C   UNL     1      -6.730  13.386  69.045  1.00  0.00    -0.108 A  
BRANCH   4  13
HETATM   13  O   UNL     1     -10.925   9.958  66.850  1.00  0.00    -0.134 OA 
BRANCH  13  14
HETATM   14  C   UNL     1     -10.650   8.895  67.758  1.00  0.00    -0.202 C  
BRANCH  14  15
HETATM   15  C   UNL     1     -10.506   7.563  66.975  1.00  0.00    -0.409 C  
HETATM   16  N   UNL     1      -8.396   5.664  67.946  1.00  0.00    -0.101 NA 
HETATM   17  C   UNL     1     -10.854   6.278  67.760  1.00  0.00    -0.424 C  
HETATM   18  C   UNL     1      -8.253   4.600  66.953  1.00  0.00    -0.106 C  
HETATM   19  C   UNL     1      -9.711   5.682  68.593  1.00  0.00    -0.137 C  
HETATM   20  C   UNL     1      -9.102   7.457  66.366  1.00  0.00    -0.196 C  
HETATM   21  C   UNL     1      -8.075   6.982  67.394  1.00  0.00    -0.116 C  
ENDBRANCH  14  15
ENDBRANCH  13  14
ENDBRANCH   4  13
BRANCH   5  22
HETATM   22  N   UNL     1      -9.116  15.979  68.419  1.00  0.00    -0.187 NA 
HETATM   23  H   UNL     1     -10.061  16.057  68.795  1.00  0.00     0.000 HD 
BRANCH  22  24
HETATM   24  C   UNL     1      -8.536  17.154  67.888  1.00  0.00    -0.214 A  
HETATM   25  C   UNL     1      -8.219  17.234  66.524  1.00  0.00    -0.276 A  
HETATM   26  F   UNL     1      -8.551  16.223  65.707  1.00  0.00    -0.345 F  
HETATM   27  C   UNL     1      -7.558  18.341  65.984  1.00  0.00    -0.229 A  
HETATM   28  C   UNL     1      -7.189  19.383  66.826  1.00  0.00    -0.213 A  
HETATM   29 BR   UNL     1      -6.267  20.882  66.134  1.00  0.00    -0.296 Br 
HETATM   30  C   UNL     1      -7.462  19.318  68.192  1.00  0.00    -0.324 A  
HETATM   31  C   UNL     1      -8.127  18.206  68.717  1.00  0.00    -0.251 A  
ENDBRANCH  22  24
ENDBRANCH   5  22
ENDBRANCH   2   3
TORSDOF 6
ENDMDL
MODEL       97
REMARK 921   NORMALIZED FREE ENERGY PREDICTED BY IDOCK:   -5.22 KCAL/MOL
REMARK 922        TOTAL FREE ENERGY PREDICTED BY IDOCK:   -8.09 KCAL/MOL
REMARK 923 INTER-LIGAND FREE ENERGY PREDICTED BY IDOCK:   -7.31 KCAL/MOL
REMARK 924 INTRA-LIGAND FREE ENERGY PREDICTED BY IDOCK:   -0.78 KCAL/MOL
REMARK 927      BINDING AFFINITY PREDICTED BY RF-SCORE:    0.00 PKD
ROOT
HETATM    1  C   UNL     1     -13.215   9.401  71.559  1.00  0.00    -0.384 C  
HETATM    2  O   UNL     1     -11.986   8.893  71.037  1.00  0.00    -0.290 OA 
ENDROOT
BRANCH   2   3
HETATM    3  C   UNL     1     -11.312   9.679  70.138  1.00  0.00    -0.227 A  
HETATM    4  C   UNL     1     -10.162   9.183  69.507  1.00  0.00    -0.203 A  
HETATM    5  C   UNL     1     -11.484  13.034  68.401  1.00  0.00    -0.310 A  
HETATM    6  C   UNL     1      -9.482   9.994  68.582  1.00  0.00    -0.156 A  
HETATM    7  N   UNL     1     -10.836  13.711  67.439  1.00  0.00    -0.270 NA 
HETATM    8  C   UNL     1      -9.924  11.257  68.215  1.00  0.00    -0.195 A  
HETATM    9  C   UNL     1     -11.749  10.966  69.788  1.00  0.00    -0.413 A  
HETATM   10  N   UNL     1      -9.255  11.936  67.276  1.00  0.00    -0.175 NA 
HETATM   11  C   UNL     1     -11.067  11.762  68.834  1.00  0.00    -0.297 A  
HETATM   12  C   UNL     1      -9.752  13.125  66.923  1.00  0.00    -0.243 A  
BRANCH   4  13
HETATM   13  O   UNL     1      -9.519   7.984  69.694  1.00  0.00    -0.162 OA 
BRANCH  13  14
HETATM   14  C   UNL     1      -8.348   7.959  70.505  1.00  0.00    -0.124 C  
BRANCH  14  15
HETATM   15  C   UNL     1      -7.102   7.706  69.615  1.00  0.00    -0.064 C  
HETATM   16  N   UNL     1      -6.584   4.861  68.818  1.00  0.00    -0.047 NA 
HETATM   17  C   UNL     1      -7.385   7.187  68.188  1.00  0.00    -0.097 C  
HETATM   18  C   UNL     1      -5.259   4.797  68.202  1.00  0.00    -0.010 C  
HETATM   19  C   UNL     1      -7.542   5.666  68.056  1.00  0.00    -0.085 C  
HETATM   20  C   UNL     1      -6.116   6.779  70.339  1.00  0.00    -0.024 C  
HETATM   21  C   UNL     1      -6.524   5.311  70.210  1.00  0.00    -0.034 C  
ENDBRANCH  14  15
ENDBRANCH  13  14
ENDBRANCH   4  13
BRANCH   5  22
HETATM   22  N   UNL     1     -12.608  13.640  69.018  1.00  0.00    -0.096 NA 
HETATM   23  H   UNL     1     -13.484  13.629  68.498  1.00  0.00     0.000 HD 
BRANCH  22  24
HETATM   24  C   UNL     1     -12.621  14.258  70.290  1.00  0.00    -0.319 A  
HETATM   25  C   UNL     1     -12.075  15.538  70.463  1.00  0.00    -0.386 A  
HETATM   26  F   UNL     1     -11.620  16.213  69.396  1.00  0.00    -0.314 F  
HETATM   27  C   UNL     1     -11.984  16.138  71.722  1.00  0.00    -0.560 A  
HETATM   28  C   UNL     1     -12.431  15.438  72.836  1.00  0.00    -0.418 A  
HETATM   29 BR   UNL     1     -12.296  16.207  74.558  1.00  0.00    -0.518 Br 
HETATM   30  C   UNL     1     -12.949  14.150  72.701  1.00  0.00    -0.505 A  
HETATM   31  C   UNL     1     -13.036  13.564  71.434  1.00  0.00    -0.385 A  
ENDBRANCH  22  24
ENDBRANCH   5  22
ENDBRANCH   2   3
TORSDOF 6
ENDMDL
MODEL       98
REMARK 921   NORMALIZED FREE ENERGY PREDICTED BY IDOCK:   -5.21 KCAL/MOL
REMARK 922        TOTAL FREE ENERGY PREDICTED BY IDOCK:   -8.08 KCAL/MOL
REMARK 923 INTER-LIGAND FREE ENERGY PREDICTED BY IDOCK:   -7.02 KCAL/MOL
REMARK 924 INTRA-LIGAND FREE ENERGY PREDICTED BY IDOCK:   -1.06 KCAL/MOL
REMARK 927      BINDING AFFINITY PREDICTED BY RF-SCORE:    0.00 PKD
ROOT
HETATM    1  C   UNL     1     -10.175  10.784  64.858  1.00  0.00    -0.320 C  
HETATM    2  O   UNL     1      -9.426  10.998  66.056  1.00  0.00    -0.192 OA 
ENDROOT
BRANCH   2   3
HETATM    3  C   UNL     1      -9.871  10.380  67.196  1.00  0.00    -0.181 A  
HETATM    4  C   UNL     1      -9.429   9.085  67.502  1.00  0.00    -0.137 A  
HETATM    5  C   UNL     1     -11.992  10.974  70.269  1.00  0.00    -0.365 A  
HETATM    6  C   UNL     1      -9.886   8.463  68.677  1.00  0.00    -0.180 A  
HETATM    7  N   UNL     1     -12.311  10.352  71.417  1.00  0.00    -0.390 NA 
HETATM    8  C   UNL     1     -10.724   9.090  69.588  1.00  0.00    -0.219 A  
HETATM    9  C   UNL     1     -10.738  11.009  68.102  1.00  0.00    -0.246 A  
HETATM   10  N   UNL     1     -11.058   8.450  70.715  1.00  0.00    -0.254 NA 
HETATM   11  C   UNL     1     -11.171  10.378  69.296  1.00  0.00    -0.304 A  
HETATM   12  C   UNL     1     -11.825   9.119  71.582  1.00  0.00    -0.372 A  
BRANCH   4  13
HETATM   13  O   UNL     1      -8.614   8.252  66.775  1.00  0.00    -0.121 OA 
BRANCH  13  14
HETATM   14  C   UNL     1      -9.191   7.104  66.160  1.00  0.00    -0.082 C  
BRANCH  14  15
HETATM   15  C   UNL     1      -8.169   5.936  66.169  1.00  0.00    -0.116 C  
HETATM   16  N   UNL     1      -8.475   3.911  68.361  1.00  0.00    -0.090 NA 
HETATM   17  C   UNL     1      -8.750   4.528  65.912  1.00  0.00    -0.119 C  
HETATM   18  C   UNL     1      -7.297   3.045  68.346  1.00  0.00    -0.049 C  
HETATM   19  C   UNL     1      -9.293   3.800  67.150  1.00  0.00    -0.196 C  
HETATM   20  C   UNL     1      -7.360   5.954  67.473  1.00  0.00    -0.077 C  
HETATM   21  C   UNL     1      -8.131   5.310  68.625  1.00  0.00    -0.090 C  
ENDBRANCH  14  15
ENDBRANCH  13  14
ENDBRANCH   4  13
BRANCH   5  22
HETATM   22  N   UNL     1     -12.531  12.263  70.025  1.00  0.00    -0.049 NA 
HETATM   23  H   UNL     1     -12.972  12.417  69.118  1.00  0.00     0.000 HD 
BRANCH  22  24
HETATM   24  C   UNL     1     -12.513  13.353  70.925  1.00  0.00    -0.359 A  
HETATM   25  C   UNL     1     -11.543  14.358  70.802  1.00  0.00    -0.167 A  
HETATM   26  F   UNL     1     -10.685  14.328  69.770  1.00  0.00    -0.214 F  
HETATM   27  C   UNL     1     -11.435  15.397  71.731  1.00  0.00    -0.497 A  
HETATM   28  C   UNL     1     -12.303  15.425  72.816  1.00  0.00    -0.407 A  
HETATM   29 BR   UNL     1     -12.166  16.799  74.107  1.00  0.00    -0.107 Br 
HETATM   30  C   UNL     1     -13.258  14.421  72.983  1.00  0.00    -0.547 A  
HETATM   31  C   UNL     1     -13.355  13.390  72.044  1.00  0.00    -0.569 A  
ENDBRANCH  22  24
ENDBRANCH   5  22
ENDBRANCH   2   3
TORSDOF 6
ENDMDL
MODEL       99
REMARK 921   NORMALIZED FREE ENERGY PREDICTED BY IDOCK:   -5.19 KCAL/MOL
REMARK 922        TOTAL FREE ENERGY PREDICTED BY IDOCK:   -8.06 KCAL/MOL
REMARK 923 INTER-LIGAND FREE ENERGY PREDICTED BY IDOCK:   -7.35 KCAL/MOL
REMARK 924 INTRA-LIGAND FREE ENERGY PREDICTED BY IDOCK:   -0.71 KCAL/MOL
REMARK 927      BINDING AFFINITY PREDICTED BY RF-SCORE:    0.00 PKD
ROOT
HETATM    1  C   UNL     1     -11.685   9.380  71.625  1.00  0.00    -0.398 C  
HETATM    2  O   UNL     1     -10.906   8.610  70.706  1.00  0.00    -0.216 OA 
ENDROOT
BRANCH   2   3
HETATM    3  C   UNL     1     -10.627   9.176  69.489  1.00  0.00    -0.223 A  
HETATM    4  C   UNL     1     -10.582   8.370  68.343  1.00  0.00    -0.105 A  
HETATM    5  C   UNL     1      -9.992  12.517  67.835  1.00  0.00    -0.212 A  
HETATM    6  C   UNL     1     -10.302   8.961  67.098  1.00  0.00    -0.351 A  
HETATM    7  N   UNL     1      -9.823  13.020  66.601  1.00  0.00    -0.246 NA 
HETATM    8  C   UNL     1     -10.116  10.326  66.934  1.00  0.00    -0.221 A  
HETATM    9  C   UNL     1     -10.414  10.554  69.332  1.00  0.00    -0.264 A  
HETATM   10  N   UNL     1      -9.920  10.815  65.704  1.00  0.00    -0.247 NA 
HETATM   11  C   UNL     1     -10.158  11.139  68.067  1.00  0.00    -0.191 A  
HETATM   12  C   UNL     1      -9.797  12.142  65.596  1.00  0.00    -0.237 A  
BRANCH   4  13
HETATM   13  O   UNL     1     -10.723   7.008  68.234  1.00  0.00    -0.208 OA 
BRANCH  13  14
HETATM   14  C   UNL     1      -9.679   6.174  68.728  1.00  0.00    -0.129 C  
BRANCH  14  15
HETATM   15  C   UNL     1     -10.263   5.140  69.726  1.00  0.00    -0.357 C  
HETATM   16  N   UNL     1      -8.377   4.070  71.799  1.00  0.00    -0.092 NA 
HETATM   17  C   UNL     1     -10.324   5.589  71.204  1.00  0.00    -0.300 C  
HETATM   18  C   UNL     1      -9.033   2.952  72.475  1.00  0.00    -0.086 C  
HETATM   19  C   UNL     1      -9.045   5.356  72.019  1.00  0.00    -0.137 C  
HETATM   20  C   UNL     1      -9.518   3.805  69.600  1.00  0.00    -0.258 C  
HETATM   21  C   UNL     1      -8.196   3.822  70.367  1.00  0.00    -0.057 C  
ENDBRANCH  14  15
ENDBRANCH  13  14
ENDBRANCH   4  13
BRANCH   5  22
HETATM   22  N   UNL     1      -9.970  13.405  68.940  1.00  0.00    -0.431 NA 
HETATM   23  H   UNL     1      -9.967  12.989  69.870  1.00  0.00     0.000 HD 
BRANCH  22  24
HETATM   24  C   UNL     1      -9.950  14.818  68.866  1.00  0.00    -0.233 A  
HETATM   25  C   UNL     1     -11.140  15.534  68.673  1.00  0.00    -0.297 A  
HETATM   26  F   UNL     1     -12.311  14.879  68.647  1.00  0.00    -0.255 F  
HETATM   27  C   UNL     1     -11.146  16.921  68.499  1.00  0.00    -0.213 A  
HETATM   28  C   UNL     1      -9.938  17.606  68.500  1.00  0.00    -0.368 A  
HETATM   29 BR   UNL     1      -9.907  19.478  68.238  1.00  0.00    -0.543 Br 
HETATM   30  C   UNL     1      -8.735  16.917  68.658  1.00  0.00    -0.267 A  
HETATM   31  C   UNL     1      -8.745  15.530  68.834  1.00  0.00    -0.206 A  
ENDBRANCH  22  24
ENDBRANCH   5  22
ENDBRANCH   2   3
TORSDOF 6
ENDMDL
MODEL      100
REMARK 921   NORMALIZED FREE ENERGY PREDICTED BY IDOCK:   -5.18 KCAL/MOL
REMARK 922        TOTAL FREE ENERGY PREDICTED BY IDOCK:   -8.04 KCAL/MOL
REMARK 923 INTER-LIGAND FREE ENERGY PREDICTED BY IDOCK:   -7.02 KCAL/MOL
REMARK 924 INTRA-LIGAND FREE ENERGY PREDICTED BY IDOCK:   -1.02 KCAL/MOL
REMARK 927      BINDING AFFINITY PREDICTED BY RF-SCORE:    0.00 PKD
ROOT
HETATM    1  C   UNL     1     -11.722  10.790  70.064  1.00  0.00    -0.336 C  
HETATM    2  O   UNL     1     -12.032  10.997  68.684  1.00  0.00    -0.496 OA 
ENDROOT
BRANCH   2   3
HETATM    3  C   UNL     1     -11.138  10.521  67.760  1.00  0.00    -0.317 A  
HETATM    4  C   UNL     1     -10.331  11.418  67.048  1.00  0.00    -0.223 A  
HETATM    5  C   UNL     1      -9.765   7.299  66.333  1.00  0.00    -0.079 A  
HETATM    6  C   UNL     1      -9.413  10.920  66.107  1.00  0.00    -0.230 A  
HETATM    7  N   UNL     1      -8.802   6.895  65.488  1.00  0.00    -0.029 NA 
HETATM    8  C   UNL     1      -9.224   9.564  65.880  1.00  0.00    -0.206 A  
HETATM    9  C   UNL     1     -10.969   9.149  67.515  1.00  0.00    -0.010 A  
HETATM   10  N   UNL     1      -8.282   9.172  65.014  1.00  0.00    -0.140 NA 
HETATM   11  C   UNL     1     -10.021   8.660  66.582  1.00  0.00    -0.357 A  
HETATM   12  C   UNL     1      -8.107   7.855  64.871  1.00  0.00    -0.144 A  
BRANCH   4  13
HETATM   13  O   UNL     1     -10.324  12.792  67.080  1.00  0.00    -0.231 OA 
BRANCH  13  14
HETATM   14  C   UNL     1      -9.573  13.444  68.101  1.00  0.00    -0.222 C  
BRANCH  14  15
HETATM   15  C   UNL     1     -10.392  14.631  68.674  1.00  0.00    -0.246 C  
HETATM   16  N   UNL     1      -9.392  17.383  68.022  1.00  0.00    -0.269 NA 
HETATM   17  C   UNL     1     -11.091  15.534  67.634  1.00  0.00    -0.311 C  
HETATM   18  C   UNL     1     -10.138  18.341  68.838  1.00  0.00    -0.335 C  
HETATM   19  C   UNL     1     -10.229  16.666  67.056  1.00  0.00    -0.290 C  
HETATM   20  C   UNL     1      -9.517  15.470  69.615  1.00  0.00    -0.244 C  
HETATM   21  C   UNL     1      -8.625  16.440  68.840  1.00  0.00    -0.250 C  
ENDBRANCH  14  15
ENDBRANCH  13  14
ENDBRANCH   4  13
BRANCH   5  22
HETATM   22  N   UNL     1     -10.567   6.317  66.967  1.00  0.00    -0.277 NA 
HETATM   23  H   UNL     1     -11.445   6.071  66.513  1.00  0.00     0.000 HD 
BRANCH  22  24
HETATM   24  C   UNL     1     -10.257   5.648  68.174  1.00  0.00    -0.186 A  
HETATM   25  C   UNL     1      -9.748   4.342  68.150  1.00  0.00    -0.102 A  
HETATM   26  F   UNL     1      -9.471   3.760  66.973  1.00  0.00    -0.169 F  
HETATM   27  C   UNL     1      -9.523   3.617  69.324  1.00  0.00    -0.244 A  
HETATM   28  C   UNL     1      -9.828   4.201  70.548  1.00  0.00    -0.182 A  
HETATM   29 BR   UNL     1      -9.563   3.238  72.153  1.00  0.00    -0.219 Br 
HETATM   30  C   UNL     1     -10.365   5.487  70.602  1.00  0.00    -0.332 A  
HETATM   31  C   UNL     1     -10.583   6.201  69.419  1.00  0.00    -0.349 A  
ENDBRANCH  22  24
ENDBRANCH   5  22
ENDBRANCH   2   3
TORSDOF 6
ENDMDL
MODEL      101
REMARK 921   NORMALIZED FREE ENERGY PREDICTED BY IDOCK:   -5.17 KCAL/MOL
REMARK 922        TOTAL FREE ENERGY PREDICTED BY IDOCK:   -8.04 KCAL/MOL
REMARK 923 INTER-LIGAND FREE ENERGY PREDICTED BY IDOCK:   -7.14 KCAL/MOL
REMARK 924 INTRA-LIGAND FREE ENERGY PREDICTED BY IDOCK:   -0.90 KCAL/MOL
REMARK 927      BINDING AFFINITY PREDICTED BY RF-SCORE:    0.00 PKD
ROOT
HETATM    1  C   UNL     1     -11.693  10.793  69.637  1.00  0.00    -0.323 C  
HETATM    2  O   UNL     1     -12.122  11.733  68.650  1.00  0.00    -0.406 OA 
ENDROOT
BRANCH   2   3
HETATM    3  C   UNL     1     -11.528  11.667  67.416  1.00  0.00    -0.285 A  
HETATM    4  C   UNL     1     -11.511  12.799  66.591  1.00  0.00    -0.350 A  
HETATM    5  C   UNL     1      -9.554   9.336  65.186  1.00  0.00    -0.033 A  
HETATM    6  C   UNL     1     -10.893  12.723  65.331  1.00  0.00    -0.313 A  
HETATM    7  N   UNL     1      -8.904   9.368  64.011  1.00  0.00    -0.206 NA 
HETATM    8  C   UNL     1     -10.244  11.584  64.875  1.00  0.00    -0.275 A  
HETATM    9  C   UNL     1     -10.894  10.505  66.949  1.00  0.00    -0.252 A  
HETATM   10  N   UNL     1      -9.623  11.616  63.690  1.00  0.00    -0.247 NA 
HETATM   11  C   UNL     1     -10.253  10.450  65.686  1.00  0.00    -0.308 A  
HETATM   12  C   UNL     1      -8.970  10.510  63.321  1.00  0.00    -0.229 A  
BRANCH   4  13
HETATM   13  O   UNL     1     -12.079  14.033  66.799  1.00  0.00    -0.428 OA 
BRANCH  13  14
HETATM   14  C   UNL     1     -11.852  14.684  68.047  1.00  0.00    -0.311 C  
BRANCH  14  15
HETATM   15  C   UNL     1     -11.225  16.082  67.800  1.00  0.00    -0.231 C  
HETATM   16  N   UNL     1      -8.259  16.303  68.195  1.00  0.00    -0.160 NA 
HETATM   17  C   UNL     1     -10.242  16.180  66.612  1.00  0.00    -0.291 C  
HETATM   18  C   UNL     1      -7.902  17.721  68.156  1.00  0.00    -0.264 C  
HETATM   19  C   UNL     1      -8.788  15.801  66.923  1.00  0.00    -0.245 C  
HETATM   20  C   UNL     1     -10.568  16.599  69.086  1.00  0.00    -0.340 C  
HETATM   21  C   UNL     1      -9.179  15.995  69.292  1.00  0.00    -0.243 C  
ENDBRANCH  14  15
ENDBRANCH  13  14
ENDBRANCH   4  13
BRANCH   5  22
HETATM   22  N   UNL     1      -9.559   8.127  65.926  1.00  0.00    -0.446 NA 
HETATM   23  H   UNL     1     -10.115   7.357  65.554  1.00  0.00     0.000 HD 
BRANCH  22  24
HETATM   24  C   UNL     1      -8.862   7.893  67.134  1.00  0.00    -0.132 A  
HETATM   25  C   UNL     1      -9.519   7.318  68.232  1.00  0.00    -0.141 A  
HETATM   26  F   UNL     1     -10.790   6.908  68.103  1.00  0.00    -0.232 F  
HETATM   27  C   UNL     1      -8.888   7.162  69.470  1.00  0.00    -0.137 A  
HETATM   28  C   UNL     1      -7.580   7.605  69.621  1.00  0.00    -0.093 A  
HETATM   29 BR   UNL     1      -6.706   7.436  71.289  1.00  0.00    -0.050 Br 
HETATM   30  C   UNL     1      -6.911   8.210  68.556  1.00  0.00    -0.068 A  
HETATM   31  C   UNL     1      -7.554   8.356  67.323  1.00  0.00    -0.097 A  
ENDBRANCH  22  24
ENDBRANCH   5  22
ENDBRANCH   2   3
TORSDOF 6
ENDMDL
MODEL      102
REMARK 921   NORMALIZED FREE ENERGY PREDICTED BY IDOCK:   -5.14 KCAL/MOL
REMARK 922        TOTAL FREE ENERGY PREDICTED BY IDOCK:   -7.99 KCAL/MOL
REMARK 923 INTER-LIGAND FREE ENERGY PREDICTED BY IDOCK:   -7.13 KCAL/MOL
REMARK 924 INTRA-LIGAND FREE ENERGY PREDICTED BY IDOCK:   -0.85 KCAL/MOL
REMARK 927      BINDING AFFINITY PREDICTED BY RF-SCORE:    0.00 PKD
ROOT
HETATM    1  C   UNL     1     -12.031   8.374  70.893  1.00  0.00    -0.177 C  
HETATM    2  O   UNL     1     -10.768   8.980  70.612  1.00  0.00    -0.212 OA 
ENDROOT
BRANCH   2   3
HETATM    3  C   UNL     1     -10.381   9.051  69.299  1.00  0.00    -0.219 A  
HETATM    4  C   UNL     1      -9.572   8.042  68.758  1.00  0.00    -0.149 A  
HETATM    5  C   UNL     1     -10.845  11.119  66.167  1.00  0.00    -0.185 A  
HETATM    6  C   UNL     1      -9.187   8.120  67.408  1.00  0.00    -0.159 A  
HETATM    7  N   UNL     1     -10.514  11.075  64.866  1.00  0.00    -0.314 NA 
HETATM    8  C   UNL     1      -9.613   9.130  66.557  1.00  0.00    -0.227 A  
HETATM    9  C   UNL     1     -10.795  10.087  68.448  1.00  0.00    -0.277 A  
HETATM   10  N   UNL     1      -9.254   9.093  65.269  1.00  0.00    -0.209 NA 
HETATM   11  C   UNL     1     -10.419  10.139  67.083  1.00  0.00    -0.305 A  
HETATM   12  C   UNL     1      -9.734  10.060  64.482  1.00  0.00    -0.239 A  
BRANCH   4  13
HETATM   13  O   UNL     1      -9.015   6.951  69.379  1.00  0.00    -0.138 OA 
BRANCH  13  14
HETATM   14  C   UNL     1      -9.447   5.651  68.985  1.00  0.00    -0.126 C  
BRANCH  14  15
HETATM   15  C   UNL     1      -9.830   4.825  70.242  1.00  0.00    -0.313 C  
HETATM   16  N   UNL     1      -7.559   3.667  71.824  1.00  0.00    -0.055 NA 
HETATM   17  C   UNL     1      -9.388   5.416  71.599  1.00  0.00    -0.173 C  
HETATM   18  C   UNL     1      -8.119   2.739  72.806  1.00  0.00    -0.066 C  
HETATM   19  C   UNL     1      -7.963   5.059  72.043  1.00  0.00    -0.111 C  
HETATM   20  C   UNL     1      -9.333   3.381  70.096  1.00  0.00    -0.244 C  
HETATM   21  C   UNL     1      -7.850   3.257  70.448  1.00  0.00    -0.043 C  
ENDBRANCH  14  15
ENDBRANCH  13  14
ENDBRANCH   4  13
BRANCH   5  22
HETATM   22  N   UNL     1     -11.624  12.208  66.632  1.00  0.00    -0.483 NA 
HETATM   23  H   UNL     1     -12.566  11.997  66.963  1.00  0.00     0.000 HD 
BRANCH  22  24
HETATM   24  C   UNL     1     -11.213  13.560  66.679  1.00  0.00    -0.312 A  
HETATM   25  C   UNL     1     -11.564  14.371  67.768  1.00  0.00    -0.356 A  
HETATM   26  F   UNL     1     -12.217  13.834  68.811  1.00  0.00    -0.377 F  
HETATM   27  C   UNL     1     -11.258  15.734  67.802  1.00  0.00    -0.286 A  
HETATM   28  C   UNL     1     -10.604  16.306  66.718  1.00  0.00    -0.257 A  
HETATM   29 BR   UNL     1     -10.201  18.153  66.717  1.00  0.00    -0.398 Br 
HETATM   30  C   UNL     1     -10.270  15.532  65.606  1.00  0.00    -0.403 A  
HETATM   31  C   UNL     1     -10.580  14.169  65.588  1.00  0.00    -0.317 A  
ENDBRANCH  22  24
ENDBRANCH   5  22
ENDBRANCH   2   3
TORSDOF 6
ENDMDL
MODEL      103
REMARK 921   NORMALIZED FREE ENERGY PREDICTED BY IDOCK:   -5.12 KCAL/MOL
REMARK 922        TOTAL FREE ENERGY PREDICTED BY IDOCK:   -7.96 KCAL/MOL
REMARK 923 INTER-LIGAND FREE ENERGY PREDICTED BY IDOCK:   -7.06 KCAL/MOL
REMARK 924 INTRA-LIGAND FREE ENERGY PREDICTED BY IDOCK:   -0.90 KCAL/MOL
REMARK 927      BINDING AFFINITY PREDICTED BY RF-SCORE:    0.00 PKD
ROOT
HETATM    1  C   UNL     1     -11.040  11.672  63.633  1.00  0.00    -0.425 C  
HETATM    2  O   UNL     1     -10.433  10.628  64.397  1.00  0.00    -0.350 OA 
ENDROOT
BRANCH   2   3
HETATM    3  C   UNL     1      -9.539  10.997  65.368  1.00  0.00    -0.225 A  
HETATM    4  C   UNL     1      -8.374  10.242  65.563  1.00  0.00    -0.164 A  
HETATM    5  C   UNL     1      -8.882  13.690  67.941  1.00  0.00    -0.188 A  
HETATM    6  C   UNL     1      -7.460  10.633  66.557  1.00  0.00    -0.134 A  
HETATM    7  N   UNL     1      -7.919  14.052  68.805  1.00  0.00    -0.118 NA 
HETATM    8  C   UNL     1      -7.627  11.771  67.333  1.00  0.00    -0.143 A  
HETATM    9  C   UNL     1      -9.724  12.135  66.167  1.00  0.00    -0.254 A  
HETATM   10  N   UNL     1      -6.676  12.108  68.211  1.00  0.00    -0.058 NA 
HETATM   11  C   UNL     1      -8.781  12.531  67.148  1.00  0.00    -0.200 A  
HETATM   12  C   UNL     1      -6.862  13.241  68.895  1.00  0.00    -0.103 A  
BRANCH   4  13
HETATM   13  O   UNL     1      -7.977   9.083  64.942  1.00  0.00    -0.113 OA 
BRANCH  13  14
HETATM   14  C   UNL     1      -8.591   7.857  65.332  1.00  0.00    -0.095 C  
BRANCH  14  15
HETATM   15  C   UNL     1      -9.012   7.936  66.824  1.00  0.00    -0.169 C  
HETATM   16  N   UNL     1     -10.338   5.500  67.967  1.00  0.00    -0.188 NA 
HETATM   17  C   UNL     1      -8.277   6.974  67.784  1.00  0.00    -0.114 C  
HETATM   18  C   UNL     1     -10.869   5.849  69.284  1.00  0.00    -0.344 C  
HETATM   19  C   UNL     1      -8.875   5.564  67.894  1.00  0.00    -0.105 C  
HETATM   20  C   UNL     1     -10.531   7.768  66.953  1.00  0.00    -0.388 C  
HETATM   21  C   UNL     1     -10.943   6.297  66.898  1.00  0.00    -0.329 C  
ENDBRANCH  14  15
ENDBRANCH  13  14
ENDBRANCH   4  13
BRANCH   5  22
HETATM   22  N   UNL     1     -10.050  14.489  67.852  1.00  0.00    -0.225 NA 
HETATM   23  H   UNL     1     -10.947  14.010  67.923  1.00  0.00     0.000 HD 
BRANCH  22  24
HETATM   24  C   UNL     1     -10.082  15.892  67.673  1.00  0.00    -0.242 A  
HETATM   25  C   UNL     1      -9.802  16.453  66.419  1.00  0.00    -0.294 A  
HETATM   26  F   UNL     1      -9.591  15.650  65.365  1.00  0.00    -0.341 F  
HETATM   27  C   UNL     1      -9.729  17.836  66.230  1.00  0.00    -0.277 A  
HETATM   28  C   UNL     1      -9.923  18.677  67.319  1.00  0.00    -0.329 A  
HETATM   29 BR   UNL     1      -9.803  20.552  67.105  1.00  0.00    -0.469 Br 
HETATM   30  C   UNL     1     -10.171  18.148  68.586  1.00  0.00    -0.382 A  
HETATM   31  C   UNL     1     -10.243  16.762  68.759  1.00  0.00    -0.299 A  
ENDBRANCH  22  24
ENDBRANCH   5  22
ENDBRANCH   2   3
TORSDOF 6
ENDMDL
MODEL      104
REMARK 921   NORMALIZED FREE ENERGY PREDICTED BY IDOCK:   -5.12 KCAL/MOL
REMARK 922        TOTAL FREE ENERGY PREDICTED BY IDOCK:   -7.96 KCAL/MOL
REMARK 923 INTER-LIGAND FREE ENERGY PREDICTED BY IDOCK:   -7.48 KCAL/MOL
REMARK 924 INTRA-LIGAND FREE ENERGY PREDICTED BY IDOCK:   -0.49 KCAL/MOL
REMARK 927      BINDING AFFINITY PREDICTED BY RF-SCORE:    0.00 PKD
ROOT
HETATM    1  C   UNL     1      -8.870   9.840  64.423  1.00  0.00    -0.227 C  
HETATM    2  O   UNL     1      -9.309   8.885  65.391  1.00  0.00    -0.193 OA 
ENDROOT
BRANCH   2   3
HETATM    3  C   UNL     1      -9.876   9.369  66.541  1.00  0.00    -0.258 A  
HETATM    4  C   UNL     1      -9.812   8.612  67.719  1.00  0.00    -0.175 A  
HETATM    5  C   UNL     1     -11.640  12.408  67.939  1.00  0.00    -0.356 A  
HETATM    6  C   UNL     1     -10.391   9.120  68.895  1.00  0.00    -0.232 A  
HETATM    7  N   UNL     1     -12.087  12.866  69.120  1.00  0.00    -0.231 NA 
HETATM    8  C   UNL     1     -10.985  10.372  68.965  1.00  0.00    -0.238 A  
HETATM    9  C   UNL     1     -10.498  10.625  66.601  1.00  0.00    -0.296 A  
HETATM   10  N   UNL     1     -11.453  10.809  70.141  1.00  0.00    -0.312 NA 
HETATM   11  C   UNL     1     -11.054  11.136  67.801  1.00  0.00    -0.344 A  
HETATM   12  C   UNL     1     -11.969  12.041  70.164  1.00  0.00    -0.321 A  
BRANCH   4  13
HETATM   13  O   UNL     1      -9.293   7.355  67.916  1.00  0.00    -0.134 OA 
BRANCH  13  14
HETATM   14  C   UNL     1      -8.927   6.970  69.238  1.00  0.00    -0.138 C  
BRANCH  14  15
HETATM   15  C   UNL     1      -9.166   5.448  69.424  1.00  0.00    -0.150 C  
HETATM   16  N   UNL     1      -8.861   4.380  72.211  1.00  0.00    -0.112 NA 
HETATM   17  C   UNL     1     -10.383   5.058  70.293  1.00  0.00    -0.299 C  
HETATM   18  C   UNL     1      -8.884   2.919  72.141  1.00  0.00    -0.081 C  
HETATM   19  C   UNL     1     -10.125   5.001  71.805  1.00  0.00    -0.200 C  
HETATM   20  C   UNL     1      -7.891   4.775  69.950  1.00  0.00    -0.062 C  
HETATM   21  C   UNL     1      -7.741   4.952  71.460  1.00  0.00    -0.096 C  
ENDBRANCH  14  15
ENDBRANCH  13  14
ENDBRANCH   4  13
BRANCH   5  22
HETATM   22  N   UNL     1     -11.796  13.226  66.791  1.00  0.00    -0.383 NA 
HETATM   23  H   UNL     1     -12.200  12.790  65.963  1.00  0.00     0.000 HD 
BRANCH  22  24
HETATM   24  C   UNL     1     -11.441  14.591  66.693  1.00  0.00    -0.366 A  
HETATM   25  C   UNL     1     -11.275  15.192  65.437  1.00  0.00    -0.338 A  
HETATM   26  F   UNL     1     -11.543  14.489  64.325  1.00  0.00    -0.371 F  
HETATM   27  C   UNL     1     -10.831  16.510  65.303  1.00  0.00    -0.233 A  
HETATM   28  C   UNL     1     -10.529  17.240  66.445  1.00  0.00    -0.263 A  
HETATM   29 BR   UNL     1      -9.897  19.016  66.300  1.00  0.00    -0.405 Br 
HETATM   30  C   UNL     1     -10.652  16.659  67.708  1.00  0.00    -0.342 A  
HETATM   31  C   UNL     1     -11.101  15.340  67.826  1.00  0.00    -0.318 A  
ENDBRANCH  22  24
ENDBRANCH   5  22
ENDBRANCH   2   3
TORSDOF 6
ENDMDL
MODEL      105
REMARK 921   NORMALIZED FREE ENERGY PREDICTED BY IDOCK:   -5.11 KCAL/MOL
REMARK 922        TOTAL FREE ENERGY PREDICTED BY IDOCK:   -7.95 KCAL/MOL
REMARK 923 INTER-LIGAND FREE ENERGY PREDICTED BY IDOCK:   -7.00 KCAL/MOL
REMARK 924 INTRA-LIGAND FREE ENERGY PREDICTED BY IDOCK:   -0.95 KCAL/MOL
REMARK 927      BINDING AFFINITY PREDICTED BY RF-SCORE:    0.00 PKD
ROOT
HETATM    1  C   UNL     1      -8.086   8.429  70.075  1.00  0.00    -0.115 C  
HETATM    2  O   UNL     1      -8.915   9.497  70.538  1.00  0.00    -0.242 OA 
ENDROOT
BRANCH   2   3
HETATM    3  C   UNL     1      -9.706  10.127  69.612  1.00  0.00    -0.221 A  
HETATM    4  C   UNL     1     -10.992  10.553  69.973  1.00  0.00    -0.286 A  
HETATM    5  C   UNL     1      -9.671  11.432  66.063  1.00  0.00    -0.223 A  
HETATM    6  C   UNL     1     -11.793  11.204  69.018  1.00  0.00    -0.418 A  
HETATM    7  N   UNL     1     -10.458  12.142  65.237  1.00  0.00    -0.267 NA 
HETATM    8  C   UNL     1     -11.352  11.498  67.735  1.00  0.00    -0.296 A  
HETATM    9  C   UNL     1      -9.265  10.400  68.308  1.00  0.00    -0.149 A  
HETATM   10  N   UNL     1     -12.154  12.180  66.910  1.00  0.00    -0.556 NA 
HETATM   11  C   UNL     1     -10.074  11.080  67.365  1.00  0.00    -0.216 A  
HETATM   12  C   UNL     1     -11.662  12.482  65.704  1.00  0.00    -0.423 A  
BRANCH   4  13
HETATM   13  O   UNL     1     -11.661  10.382  71.160  1.00  0.00    -0.352 OA 
BRANCH  13  14
HETATM   14  C   UNL     1     -12.974   9.830  71.127  1.00  0.00    -0.348 C  
BRANCH  14  15
HETATM   15  C   UNL     1     -13.048   8.600  72.071  1.00  0.00    -0.417 C  
HETATM   16  N   UNL     1     -10.965   6.479  71.665  1.00  0.00    -0.240 NA 
HETATM   17  C   UNL     1     -11.857   8.421  73.039  1.00  0.00     0.247 C  
HETATM   18  C   UNL     1     -11.341   5.316  72.468  1.00  0.00    -0.179 C  
HETATM   19  C   UNL     1     -10.649   7.663  72.470  1.00  0.00    -0.281 C  
HETATM   20  C   UNL     1     -13.274   7.321  71.254  1.00  0.00    -0.352 C  
HETATM   21  C   UNL     1     -11.971   6.799  70.650  1.00  0.00    -0.362 C  
ENDBRANCH  14  15
ENDBRANCH  13  14
ENDBRANCH   4  13
BRANCH   5  22
HETATM   22  N   UNL     1      -8.406  11.000  65.591  1.00  0.00    -0.322 NA 
HETATM   23  H   UNL     1      -7.623  11.643  65.708  1.00  0.00     0.000 HD 
BRANCH  22  24
HETATM   24  C   UNL     1      -8.133   9.758  64.972  1.00  0.00    -0.134 A  
HETATM   25  C   UNL     1      -7.884   9.692  63.594  1.00  0.00    -0.138 A  
HETATM   26  F   UNL     1      -7.816  10.825  62.878  1.00  0.00    -0.151 F  
HETATM   27  C   UNL     1      -7.707   8.473  62.934  1.00  0.00    -0.124 A  
HETATM   28  C   UNL     1      -7.798   7.292  63.661  1.00  0.00    -0.108 A  
HETATM   29 BR   UNL     1      -7.592   5.624  62.795  1.00  0.00    -0.077 Br 
HETATM   30  C   UNL     1      -8.077   7.324  65.028  1.00  0.00    -0.120 A  
HETATM   31  C   UNL     1      -8.249   8.552  65.675  1.00  0.00    -0.130 A  
ENDBRANCH  22  24
ENDBRANCH   5  22
ENDBRANCH   2   3
TORSDOF 6
ENDMDL
MODEL      106
REMARK 921   NORMALIZED FREE ENERGY PREDICTED BY IDOCK:   -5.00 KCAL/MOL
REMARK 922        TOTAL FREE ENERGY PREDICTED BY IDOCK:   -7.80 KCAL/MOL
REMARK 923 INTER-LIGAND FREE ENERGY PREDICTED BY IDOCK:   -6.95 KCAL/MOL
REMARK 924 INTRA-LIGAND FREE ENERGY PREDICTED BY IDOCK:   -0.85 KCAL/MOL
REMARK 927      BINDING AFFINITY PREDICTED BY RF-SCORE:    0.00 PKD
ROOT
HETATM    1  C   UNL     1     -11.933  13.293  69.100  1.00  0.00    -0.296 C  
HETATM    2  O   UNL     1     -11.086  12.171  69.356  1.00  0.00    -0.207 OA 
ENDROOT
BRANCH   2   3
HETATM    3  C   UNL     1     -10.325  11.707  68.315  1.00  0.00    -0.200 A  
HETATM    4  C   UNL     1      -9.347  12.534  67.746  1.00  0.00    -0.198 A  
HETATM    5  C   UNL     1      -9.696   8.609  66.239  1.00  0.00    -0.251 A  
HETATM    6  C   UNL     1      -8.567  12.046  66.683  1.00  0.00    -0.143 A  
HETATM    7  N   UNL     1      -8.851   8.183  65.285  1.00  0.00    -0.062 NA 
HETATM    8  C   UNL     1      -8.680  10.752  66.194  1.00  0.00    -0.180 A  
HETATM    9  C   UNL     1     -10.459  10.405  67.808  1.00  0.00    -0.268 A  
HETATM   10  N   UNL     1      -7.852  10.345  65.225  1.00  0.00    -0.151 NA 
HETATM   11  C   UNL     1      -9.648   9.918  66.753  1.00  0.00    -0.231 A  
HETATM   12  C   UNL     1      -7.969   9.075  64.827  1.00  0.00    -0.129 A  
BRANCH   4  13
HETATM   13  O   UNL     1      -9.041  13.841  68.036  1.00  0.00    -0.177 OA 
BRANCH  13  14
HETATM   14  C   UNL     1      -9.052  14.794  66.976  1.00  0.00    -0.239 C  
BRANCH  14  15
HETATM   15  C   UNL     1      -8.388  16.113  67.451  1.00  0.00    -0.191 C  
HETATM   16  N   UNL     1     -10.121  18.562  67.438  1.00  0.00    -0.335 NA 
HETATM   17  C   UNL     1      -8.957  16.725  68.751  1.00  0.00    -0.254 C  
HETATM   18  C   UNL     1      -9.266  19.723  67.680  1.00  0.00    -0.338 C  
HETATM   19  C   UNL     1     -10.179  17.636  68.573  1.00  0.00    -0.386 C  
HETATM   20  C   UNL     1      -8.401  17.148  66.319  1.00  0.00    -0.298 C  
HETATM   21  C   UNL     1      -9.754  17.850  66.212  1.00  0.00    -0.269 C  
ENDBRANCH  14  15
ENDBRANCH  13  14
ENDBRANCH   4  13
BRANCH   5  22
HETATM   22  N   UNL     1     -10.687   7.715  66.716  1.00  0.00    -0.472 NA 
HETATM   23  H   UNL     1     -11.659   7.949  66.516  1.00  0.00     0.000 HD 
BRANCH  22  24
HETATM   24  C   UNL     1     -10.449   6.526  67.445  1.00  0.00    -0.252 A  
HETATM   25  C   UNL     1     -10.285   6.569  68.837  1.00  0.00    -0.181 A  
HETATM   26  F   UNL     1     -10.446   7.732  69.487  1.00  0.00    -0.206 F  
HETATM   27  C   UNL     1      -9.953   5.430  69.576  1.00  0.00    -0.289 A  
HETATM   28  C   UNL     1      -9.761   4.226  68.910  1.00  0.00    -0.125 A  
HETATM   29 BR   UNL     1      -9.282   2.672  69.875  1.00  0.00    -0.195 Br 
HETATM   30  C   UNL     1      -9.885   4.159  67.522  1.00  0.00    -0.139 A  
HETATM   31  C   UNL     1     -10.221   5.306  66.796  1.00  0.00    -0.287 A  
ENDBRANCH  22  24
ENDBRANCH   5  22
ENDBRANCH   2   3
TORSDOF 6
ENDMDL
MODEL      107
REMARK 921   NORMALIZED FREE ENERGY PREDICTED BY IDOCK:   -5.00 KCAL/MOL
REMARK 922        TOTAL FREE ENERGY PREDICTED BY IDOCK:   -7.80 KCAL/MOL
REMARK 923 INTER-LIGAND FREE ENERGY PREDICTED BY IDOCK:   -7.01 KCAL/MOL
REMARK 924 INTRA-LIGAND FREE ENERGY PREDICTED BY IDOCK:   -0.79 KCAL/MOL
REMARK 927      BINDING AFFINITY PREDICTED BY RF-SCORE:    0.00 PKD
ROOT
HETATM    1  C   UNL     1     -10.531   6.931  67.044  1.00  0.00    -0.304 C  
HETATM    2  O   UNL     1     -10.013   8.147  66.499  1.00  0.00    -0.256 OA 
ENDROOT
BRANCH   2   3
HETATM    3  C   UNL     1      -9.050   8.801  67.222  1.00  0.00    -0.132 A  
HETATM    4  C   UNL     1      -8.324   9.842  66.628  1.00  0.00    -0.125 A  
HETATM    5  C   UNL     1      -7.522   8.967  70.677  1.00  0.00    -0.110 A  
HETATM    6  C   UNL     1      -7.342  10.512  67.381  1.00  0.00    -0.093 A  
HETATM    7  N   UNL     1      -6.637   9.713  71.358  1.00  0.00    -0.310 NA 
HETATM    8  C   UNL     1      -7.086  10.226  68.714  1.00  0.00    -0.072 A  
HETATM    9  C   UNL     1      -8.777   8.491  68.563  1.00  0.00    -0.139 A  
HETATM   10  N   UNL     1      -6.181  10.956  69.377  1.00  0.00    -0.055 NA 
HETATM   11  C   UNL     1      -7.803   9.192  69.317  1.00  0.00    -0.095 A  
HETATM   12  C   UNL     1      -6.011  10.673  70.672  1.00  0.00    -0.097 A  
BRANCH   4  13
HETATM   13  O   UNL     1      -8.377  10.313  65.339  1.00  0.00    -0.150 OA 
BRANCH  13  14
HETATM   14  C   UNL     1      -9.462  11.159  64.968  1.00  0.00    -0.227 C  
BRANCH  14  15
HETATM   15  C   UNL     1     -10.016  11.880  66.226  1.00  0.00    -0.245 C  
HETATM   16  N   UNL     1     -11.558  14.408  65.744  1.00  0.00    -0.349 NA 
HETATM   17  C   UNL     1     -11.555  11.940  66.346  1.00  0.00    -0.315 C  
HETATM   18  C   UNL     1     -11.781  15.056  67.036  1.00  0.00    -0.188 C  
HETATM   19  C   UNL     1     -12.231  13.112  65.620  1.00  0.00    -0.466 C  
HETATM   20  C   UNL     1      -9.413  13.287  66.335  1.00  0.00    -0.225 C  
HETATM   21  C   UNL     1     -10.134  14.282  65.427  1.00  0.00    -0.351 C  
ENDBRANCH  14  15
ENDBRANCH  13  14
ENDBRANCH   4  13
BRANCH   5  22
HETATM   22  N   UNL     1      -8.170   7.900  71.350  1.00  0.00    -0.102 NA 
HETATM   23  H   UNL     1      -7.576   7.166  71.735  1.00  0.00     0.000 HD 
BRANCH  22  24
HETATM   24  C   UNL     1      -9.565   7.762  71.533  1.00  0.00    -0.155 A  
HETATM   25  C   UNL     1     -10.236   6.631  71.047  1.00  0.00    -0.191 A  
HETATM   26  F   UNL     1      -9.534   5.635  70.485  1.00  0.00    -0.162 F  
HETATM   27  C   UNL     1     -11.626   6.507  71.126  1.00  0.00    -0.390 A  
HETATM   28  C   UNL     1     -12.365   7.542  71.685  1.00  0.00    -0.333 A  
HETATM   29 BR   UNL     1     -14.249   7.421  71.780  1.00  0.00    -0.516 Br 
HETATM   30  C   UNL     1     -11.729   8.695  72.148  1.00  0.00    -0.442 A  
HETATM   31  C   UNL     1     -10.337   8.803  72.065  1.00  0.00    -0.411 A  
ENDBRANCH  22  24
ENDBRANCH   5  22
ENDBRANCH   2   3
TORSDOF 6
ENDMDL
MODEL      108
REMARK 921   NORMALIZED FREE ENERGY PREDICTED BY IDOCK:   -4.96 KCAL/MOL
REMARK 922        TOTAL FREE ENERGY PREDICTED BY IDOCK:   -7.75 KCAL/MOL
REMARK 923 INTER-LIGAND FREE ENERGY PREDICTED BY IDOCK:   -7.35 KCAL/MOL
REMARK 924 INTRA-LIGAND FREE ENERGY PREDICTED BY IDOCK:   -0.40 KCAL/MOL
REMARK 927      BINDING AFFINITY PREDICTED BY RF-SCORE:    0.00 PKD
ROOT
HETATM    1  C   UNL     1      -6.589  12.334  67.087  1.00  0.00    -0.109 C  
HETATM    2  O   UNL     1      -7.744  11.514  67.274  1.00  0.00    -0.133 OA 
ENDROOT
BRANCH   2   3
HETATM    3  C   UNL     1      -8.691  11.525  66.283  1.00  0.00    -0.159 A  
HETATM    4  C   UNL     1      -8.605  10.603  65.230  1.00  0.00    -0.169 A  
HETATM    5  C   UNL     1     -11.916  13.217  65.267  1.00  0.00    -0.388 A  
HETATM    6  C   UNL     1      -9.585  10.618  64.222  1.00  0.00    -0.350 A  
HETATM    7  N   UNL     1     -12.863  13.108  64.320  1.00  0.00    -0.664 NA 
HETATM    8  C   UNL     1     -10.676  11.474  64.241  1.00  0.00    -0.355 A  
HETATM    9  C   UNL     1      -9.780  12.410  66.293  1.00  0.00    -0.253 A  
HETATM   10  N   UNL     1     -11.600  11.378  63.277  1.00  0.00    -0.086 NA 
HETATM   11  C   UNL     1     -10.774  12.396  65.284  1.00  0.00    -0.322 A  
HETATM   12  C   UNL     1     -12.656  12.190  63.371  1.00  0.00    -0.463 A  
BRANCH   4  13
HETATM   13  O   UNL     1      -7.634   9.665  64.976  1.00  0.00    -0.107 OA 
BRANCH  13  14
HETATM   14  C   UNL     1      -8.033   8.313  64.766  1.00  0.00    -0.146 C  
BRANCH  14  15
HETATM   15  C   UNL     1      -8.038   7.554  66.120  1.00  0.00    -0.116 C  
HETATM   16  N   UNL     1     -10.684   6.482  67.041  1.00  0.00    -0.330 NA 
HETATM   17  C   UNL     1      -8.385   6.050  66.049  1.00  0.00    -0.134 C  
HETATM   18  C   UNL     1     -10.531   6.024  68.422  1.00  0.00    -0.238 C  
HETATM   19  C   UNL     1      -9.883   5.715  66.082  1.00  0.00    -0.079 C  
HETATM   20  C   UNL     1      -8.950   8.270  67.124  1.00  0.00    -0.154 C  
HETATM   21  C   UNL     1     -10.420   7.916  66.902  1.00  0.00    -0.318 C  
ENDBRANCH  14  15
ENDBRANCH  13  14
ENDBRANCH   4  13
BRANCH   5  22
HETATM   22  N   UNL     1     -12.064  14.216  66.263  1.00  0.00    -0.431 NA 
HETATM   23  H   UNL     1     -12.879  14.146  66.872  1.00  0.00     0.000 HD 
BRANCH  22  24
HETATM   24  C   UNL     1     -11.184  15.299  66.486  1.00  0.00    -0.228 A  
HETATM   25  C   UNL     1     -10.566  15.946  65.406  1.00  0.00    -0.419 A  
HETATM   26  F   UNL     1     -10.884  15.590  64.152  1.00  0.00    -0.202 F  
HETATM   27  C   UNL     1      -9.617  16.955  65.595  1.00  0.00     0.067 A  
HETATM   28  C   UNL     1      -9.264  17.315  66.890  1.00  0.00    -0.254 A  
HETATM   29 BR   UNL     1      -7.962  18.655  67.182  1.00  0.00    -0.260 Br 
HETATM   30  C   UNL     1      -9.837  16.667  67.985  1.00  0.00    -0.245 A  
HETATM   31  C   UNL     1     -10.787  15.662  67.780  1.00  0.00    -0.307 A  
ENDBRANCH  22  24
ENDBRANCH   5  22
ENDBRANCH   2   3
TORSDOF 6
ENDMDL
MODEL      109
REMARK 921   NORMALIZED FREE ENERGY PREDICTED BY IDOCK:   -4.96 KCAL/MOL
REMARK 922        TOTAL FREE ENERGY PREDICTED BY IDOCK:   -7.75 KCAL/MOL
REMARK 923 INTER-LIGAND FREE ENERGY PREDICTED BY IDOCK:   -6.98 KCAL/MOL
REMARK 924 INTRA-LIGAND FREE ENERGY PREDICTED BY IDOCK:   -0.77 KCAL/MOL
REMARK 927      BINDING AFFINITY PREDICTED BY RF-SCORE:    0.00 PKD
ROOT
HETATM    1  C   UNL     1     -11.357   9.596  70.237  1.00  0.00    -0.257 C  
HETATM    2  O   UNL     1     -10.231  10.188  69.585  1.00  0.00    -0.218 OA 
ENDROOT
BRANCH   2   3
HETATM    3  C   UNL     1     -10.332  10.413  68.237  1.00  0.00    -0.171 A  
HETATM    4  C   UNL     1      -9.748   9.511  67.337  1.00  0.00    -0.157 A  
HETATM    5  C   UNL     1     -11.899  12.761  65.720  1.00  0.00    -0.434 A  
HETATM    6  C   UNL     1      -9.863   9.748  65.955  1.00  0.00    -0.342 A  
HETATM    7  N   UNL     1     -12.045  12.868  64.389  1.00  0.00    -0.385 NA 
HETATM    8  C   UNL     1     -10.577  10.814  65.427  1.00  0.00    -0.154 A  
HETATM    9  C   UNL     1     -11.034  11.507  67.707  1.00  0.00    -0.291 A  
HETATM   10  N   UNL     1     -10.693  10.928  64.099  1.00  0.00    -0.288 NA 
HETATM   11  C   UNL     1     -11.163  11.718  66.312  1.00  0.00    -0.370 A  
HETATM   12  C   UNL     1     -11.434  11.943  63.644  1.00  0.00    -0.461 A  
BRANCH   4  13
HETATM   13  O   UNL     1      -8.991   8.395  67.596  1.00  0.00    -0.135 OA 
BRANCH  13  14
HETATM   14  C   UNL     1      -7.701   8.567  68.177  1.00  0.00    -0.102 C  
BRANCH  14  15
HETATM   15  C   UNL     1      -7.415   7.406  69.166  1.00  0.00    -0.099 C  
HETATM   16  N   UNL     1      -6.785   8.186  71.994  1.00  0.00    -0.067 NA 
HETATM   17  C   UNL     1      -8.434   7.231  70.314  1.00  0.00    -0.137 C  
HETATM   18  C   UNL     1      -6.314   6.994  72.698  1.00  0.00    -0.053 C  
HETATM   19  C   UNL     1      -8.182   8.091  71.560  1.00  0.00    -0.115 C  
HETATM   20  C   UNL     1      -5.991   7.529  69.725  1.00  0.00    -0.024 C  
HETATM   21  C   UNL     1      -5.919   8.542  70.867  1.00  0.00    -0.034 C  
ENDBRANCH  14  15
ENDBRANCH  13  14
ENDBRANCH   4  13
BRANCH   5  22
HETATM   22  N   UNL     1     -12.483  13.752  66.549  1.00  0.00    -0.396 NA 
HETATM   23  H   UNL     1     -13.457  13.617  66.818  1.00  0.00     0.000 HD 
BRANCH  22  24
HETATM   24  C   UNL     1     -11.835  14.912  67.035  1.00  0.00    -0.199 A  
HETATM   25  C   UNL     1     -11.126  15.748  66.161  1.00  0.00    -0.078 A  
HETATM   26  F   UNL     1     -11.140  15.493  64.843  1.00  0.00    -0.358 F  
HETATM   27  C   UNL     1     -10.395  16.846  66.622  1.00  0.00    -0.299 A  
HETATM   28  C   UNL     1     -10.355  17.106  67.986  1.00  0.00    -0.353 A  
HETATM   29 BR   UNL     1      -9.351  18.566  68.646  1.00  0.00    -0.335 Br 
HETATM   30  C   UNL     1     -11.023  16.273  68.884  1.00  0.00    -0.334 A  
HETATM   31  C   UNL     1     -11.753  15.180  68.408  1.00  0.00    -0.338 A  
ENDBRANCH  22  24
ENDBRANCH   5  22
ENDBRANCH   2   3
TORSDOF 6
ENDMDL
MODEL      110
REMARK 921   NORMALIZED FREE ENERGY PREDICTED BY IDOCK:   -4.95 KCAL/MOL
REMARK 922        TOTAL FREE ENERGY PREDICTED BY IDOCK:   -7.74 KCAL/MOL
REMARK 923 INTER-LIGAND FREE ENERGY PREDICTED BY IDOCK:   -6.73 KCAL/MOL
REMARK 924 INTRA-LIGAND FREE ENERGY PREDICTED BY IDOCK:   -1.00 KCAL/MOL
REMARK 927      BINDING AFFINITY PREDICTED BY RF-SCORE:    0.00 PKD
ROOT
HETATM    1  C   UNL     1     -10.931   6.492  67.044  1.00  0.00    -0.396 C  
HETATM    2  O   UNL     1     -10.762   7.895  66.834  1.00  0.00    -0.333 OA 
ENDROOT
BRANCH   2   3
HETATM    3  C   UNL     1      -9.669   8.491  67.408  1.00  0.00    -0.170 A  
HETATM    4  C   UNL     1      -8.788   9.238  66.614  1.00  0.00    -0.128 A  
HETATM    5  C   UNL     1      -8.006   9.063  70.756  1.00  0.00    -0.148 A  
HETATM    6  C   UNL     1      -7.673   9.850  67.213  1.00  0.00    -0.095 A  
HETATM    7  N   UNL     1      -6.974   9.752  71.270  1.00  0.00    -0.308 NA 
HETATM    8  C   UNL     1      -7.423   9.796  68.577  1.00  0.00    -0.079 A  
HETATM    9  C   UNL     1      -9.406   8.412  68.784  1.00  0.00    -0.143 A  
HETATM   10  N   UNL     1      -6.376  10.463  69.076  1.00  0.00    -0.044 NA 
HETATM   11  C   UNL     1      -8.292   9.057  69.379  1.00  0.00    -0.119 A  
HETATM   12  C   UNL     1      -6.210  10.421  70.402  1.00  0.00    -0.126 A  
BRANCH   4  13
HETATM   13  O   UNL     1      -8.804   9.440  65.256  1.00  0.00    -0.166 OA 
BRANCH  13  14
HETATM   14  C   UNL     1      -9.961  10.030  64.669  1.00  0.00    -0.136 C  
BRANCH  14  15
HETATM   15  C   UNL     1      -9.858  11.576  64.748  1.00  0.00    -0.286 C  
HETATM   16  N   UNL     1     -12.436  13.099  64.564  1.00  0.00    -0.599 NA 
HETATM   17  C   UNL     1     -10.514  12.234  65.983  1.00  0.00    -0.284 C  
HETATM   18  C   UNL     1     -12.114  14.517  64.414  1.00  0.00    -0.472 C  
HETATM   19  C   UNL     1     -12.013  12.540  65.851  1.00  0.00    -0.409 C  
HETATM   20  C   UNL     1     -10.390  12.207  63.455  1.00  0.00    -0.473 C  
HETATM   21  C   UNL     1     -11.916  12.294  63.456  1.00  0.00    -0.533 C  
ENDBRANCH  14  15
ENDBRANCH  13  14
ENDBRANCH   4  13
BRANCH   5  22
HETATM   22  N   UNL     1      -8.811   8.292  71.633  1.00  0.00    -0.155 NA 
HETATM   23  H   UNL     1      -9.531   8.788  72.158  1.00  0.00     0.000 HD 
BRANCH  22  24
HETATM   24  C   UNL     1      -8.706   6.898  71.844  1.00  0.00    -0.126 A  
HETATM   25  C   UNL     1      -9.818   6.066  71.652  1.00  0.00    -0.170 A  
HETATM   26  F   UNL     1     -10.961   6.586  71.179  1.00  0.00    -0.258 F  
HETATM   27  C   UNL     1      -9.776   4.699  71.944  1.00  0.00    -0.224 A  
HETATM   28  C   UNL     1      -8.605   4.154  72.456  1.00  0.00    -0.104 A  
HETATM   29 BR   UNL     1      -8.523   2.316  72.890  1.00  0.00    -0.063 Br 
HETATM   30  C   UNL     1      -7.492   4.963  72.689  1.00  0.00    -0.091 A  
HETATM   31  C   UNL     1      -7.548   6.328  72.389  1.00  0.00    -0.098 A  
ENDBRANCH  22  24
ENDBRANCH   5  22
ENDBRANCH   2   3
TORSDOF 6
ENDMDL
MODEL      111
REMARK 921   NORMALIZED FREE ENERGY PREDICTED BY IDOCK:   -4.94 KCAL/MOL
REMARK 922        TOTAL FREE ENERGY PREDICTED BY IDOCK:   -7.72 KCAL/MOL
REMARK 923 INTER-LIGAND FREE ENERGY PREDICTED BY IDOCK:   -7.08 KCAL/MOL
REMARK 924 INTRA-LIGAND FREE ENERGY PREDICTED BY IDOCK:   -0.64 KCAL/MOL
REMARK 927      BINDING AFFINITY PREDICTED BY RF-SCORE:    0.00 PKD
ROOT
HETATM    1  C   UNL     1      -7.508   7.124  68.933  1.00  0.00    -0.099 C  
HETATM    2  O   UNL     1      -8.829   6.767  68.521  1.00  0.00    -0.124 OA 
ENDROOT
BRANCH   2   3
HETATM    3  C   UNL     1      -9.865   7.134  69.340  1.00  0.00    -0.161 A  
HETATM    4  C   UNL     1     -10.647   6.146  69.954  1.00  0.00    -0.265 A  
HETATM    5  C   UNL     1     -11.524  10.172  70.863  1.00  0.00    -0.360 A  
HETATM    6  C   UNL     1     -11.703   6.532  70.799  1.00  0.00    -0.427 A  
HETATM    7  N   UNL     1     -12.488  10.460  71.753  1.00  0.00    -0.362 NA 
HETATM    8  C   UNL     1     -11.984   7.857  71.101  1.00  0.00    -0.285 A  
HETATM    9  C   UNL     1     -10.161   8.476  69.623  1.00  0.00    -0.209 A  
HETATM   10  N   UNL     1     -12.965   8.135  71.967  1.00  0.00    -0.321 NA 
HETATM   11  C   UNL     1     -11.213   8.849  70.497  1.00  0.00    -0.287 A  
HETATM   12  C   UNL     1     -13.161   9.424  72.262  1.00  0.00    -0.428 A  
BRANCH   4  13
HETATM   13  O   UNL     1     -10.583   4.781  69.820  1.00  0.00    -0.049 OA 
BRANCH  13  14
HETATM   14  C   UNL     1      -9.776   4.044  70.735  1.00  0.00    -0.193 C  
BRANCH  14  15
HETATM   15  C   UNL     1      -9.325   2.712  70.078  1.00  0.00    -0.192 C  
HETATM   16  N   UNL     1      -6.811   2.813  68.444  1.00  0.00    -0.047 NA 
HETATM   17  C   UNL     1      -7.989   2.127  70.588  1.00  0.00    -0.049 C  
HETATM   18  C   UNL     1      -6.688   1.547  67.724  1.00  0.00    -0.032 C  
HETATM   19  C   UNL     1      -6.726   2.665  69.900  1.00  0.00    -0.033 C  
HETATM   20  C   UNL     1      -9.300   2.858  68.551  1.00  0.00    -0.249 C  
HETATM   21  C   UNL     1      -8.023   3.546  68.071  1.00  0.00    -0.075 C  
ENDBRANCH  14  15
ENDBRANCH  13  14
ENDBRANCH   4  13
BRANCH   5  22
HETATM   22  N   UNL     1     -10.821  11.242  70.254  1.00  0.00    -0.289 NA 
HETATM   23  H   UNL     1     -10.044  11.644  70.778  1.00  0.00     0.000 HD 
BRANCH  22  24
HETATM   24  C   UNL     1     -11.101  11.800  68.985  1.00  0.00    -0.246 A  
HETATM   25  C   UNL     1     -11.396  13.165  68.861  1.00  0.00    -0.289 A  
HETATM   26  F   UNL     1     -11.323  13.960  69.940  1.00  0.00    -0.289 F  
HETATM   27  C   UNL     1     -11.771  13.731  67.639  1.00  0.00    -0.402 A  
HETATM   28  C   UNL     1     -11.872  12.913  66.520  1.00  0.00    -0.407 A  
HETATM   29 BR   UNL     1     -12.405  13.639  64.858  1.00  0.00    -0.442 Br 
HETATM   30  C   UNL     1     -11.616  11.545  66.619  1.00  0.00    -0.095 A  
HETATM   31  C   UNL     1     -11.239  10.995  67.848  1.00  0.00    -0.375 A  
ENDBRANCH  22  24
ENDBRANCH   5  22
ENDBRANCH   2   3
TORSDOF 6
ENDMDL
MODEL      112
REMARK 921   NORMALIZED FREE ENERGY PREDICTED BY IDOCK:   -4.93 KCAL/MOL
REMARK 922        TOTAL FREE ENERGY PREDICTED BY IDOCK:   -7.71 KCAL/MOL
REMARK 923 INTER-LIGAND FREE ENERGY PREDICTED BY IDOCK:   -6.63 KCAL/MOL
REMARK 924 INTRA-LIGAND FREE ENERGY PREDICTED BY IDOCK:   -1.07 KCAL/MOL
REMARK 927      BINDING AFFINITY PREDICTED BY RF-SCORE:    0.00 PKD
ROOT
HETATM    1  C   UNL     1     -11.089   6.423  71.648  1.00  0.00    -0.267 C  
HETATM    2  O   UNL     1     -10.805   6.004  70.311  1.00  0.00    -0.276 OA 
ENDROOT
BRANCH   2   3
HETATM    3  C   UNL     1     -10.255   6.931  69.464  1.00  0.00    -0.186 A  
HETATM    4  C   UNL     1      -9.024   6.664  68.848  1.00  0.00    -0.130 A  
HETATM    5  C   UNL     1     -10.954  10.283  67.861  1.00  0.00    -0.292 A  
HETATM    6  C   UNL     1      -8.472   7.618  67.975  1.00  0.00    -0.123 A  
HETATM    7  N   UNL     1     -10.409  11.102  66.947  1.00  0.00    -0.222 NA 
HETATM    8  C   UNL     1      -9.113   8.804  67.648  1.00  0.00    -0.134 A  
HETATM    9  C   UNL     1     -10.895   8.140  69.156  1.00  0.00    -0.033 A  
HETATM   10  N   UNL     1      -8.548   9.627  66.757  1.00  0.00    -0.133 NA 
HETATM   11  C   UNL     1     -10.338   9.081  68.254  1.00  0.00    -0.252 A  
HETATM   12  C   UNL     1      -9.231  10.731  66.439  1.00  0.00    -0.170 A  
BRANCH   4  13
HETATM   13  O   UNL     1      -8.192   5.582  69.004  1.00  0.00    -0.097 OA 
BRANCH  13  14
HETATM   14  C   UNL     1      -8.689   4.288  68.671  1.00  0.00    -0.096 C  
BRANCH  14  15
HETATM   15  C   UNL     1      -7.741   3.613  67.645  1.00  0.00    -0.074 C  
HETATM   16  N   UNL     1      -8.286   4.180  64.749  1.00  0.00    -0.101 NA 
HETATM   17  C   UNL     1      -6.856   4.568  66.813  1.00  0.00    -0.052 C  
HETATM   18  C   UNL     1      -7.459   3.279  63.948  1.00  0.00    -0.067 C  
HETATM   19  C   UNL     1      -7.506   5.134  65.543  1.00  0.00    -0.077 C  
HETATM   20  C   UNL     1      -8.539   2.681  66.724  1.00  0.00    -0.116 C  
HETATM   21  C   UNL     1      -9.231   3.453  65.601  1.00  0.00    -0.154 C  
ENDBRANCH  14  15
ENDBRANCH  13  14
ENDBRANCH   4  13
BRANCH   5  22
HETATM   22  N   UNL     1     -12.177  10.664  68.470  1.00  0.00    -0.801 NA 
HETATM   23  H   UNL     1     -13.027  10.224  68.119  1.00  0.00     0.000 HD 
BRANCH  22  24
HETATM   24  C   UNL     1     -12.323  11.599  69.521  1.00  0.00    -0.089 A  
HETATM   25  C   UNL     1     -12.804  11.190  70.773  1.00  0.00    -0.234 A  
HETATM   26  F   UNL     1     -13.040   9.888  70.998  1.00  0.00    -0.390 F  
HETATM   27  C   UNL     1     -13.052  12.102  71.802  1.00  0.00    -0.457 A  
HETATM   28  C   UNL     1     -12.833  13.455  71.572  1.00  0.00    -0.337 A  
HETATM   29 BR   UNL     1     -13.186  14.720  72.933  1.00  0.00    -0.610 Br 
HETATM   30  C   UNL     1     -12.386  13.897  70.326  1.00  0.00    -0.413 A  
HETATM   31  C   UNL     1     -12.140  12.971  69.307  1.00  0.00    -0.251 A  
ENDBRANCH  22  24
ENDBRANCH   5  22
ENDBRANCH   2   3
TORSDOF 6
ENDMDL
MODEL      113
REMARK 921   NORMALIZED FREE ENERGY PREDICTED BY IDOCK:   -4.87 KCAL/MOL
REMARK 922        TOTAL FREE ENERGY PREDICTED BY IDOCK:   -7.63 KCAL/MOL
REMARK 923 INTER-LIGAND FREE ENERGY PREDICTED BY IDOCK:   -6.59 KCAL/MOL
REMARK 924 INTRA-LIGAND FREE ENERGY PREDICTED BY IDOCK:   -1.04 KCAL/MOL
REMARK 927      BINDING AFFINITY PREDICTED BY RF-SCORE:    0.00 PKD
ROOT
HETATM    1  C   UNL     1     -10.717   9.809  68.922  1.00  0.00    -0.217 C  
HETATM    2  O   UNL     1     -10.297   8.738  68.073  1.00  0.00    -0.208 OA 
ENDROOT
BRANCH   2   3
HETATM    3  C   UNL     1      -9.779   9.071  66.849  1.00  0.00    -0.200 A  
HETATM    4  C   UNL     1      -8.821   8.240  66.251  1.00  0.00    -0.161 A  
HETATM    5  C   UNL     1     -10.101  11.620  64.075  1.00  0.00    -0.323 A  
HETATM    6  C   UNL     1      -8.301   8.587  64.992  1.00  0.00    -0.175 A  
HETATM    7  N   UNL     1      -9.628  11.835  62.836  1.00  0.00    -0.324 NA 
HETATM    8  C   UNL     1      -8.730   9.695  64.275  1.00  0.00    -0.206 A  
HETATM    9  C   UNL     1     -10.197  10.207  66.139  1.00  0.00    -0.285 A  
HETATM   10  N   UNL     1      -8.231   9.916  63.053  1.00  0.00    -0.141 NA 
HETATM   11  C   UNL     1      -9.683  10.529  64.859  1.00  0.00    -0.360 A  
HETATM   12  C   UNL     1      -8.715  10.968  62.386  1.00  0.00    -0.303 A  
BRANCH   4  13
HETATM   13  O   UNL     1      -8.231   7.102  66.744  1.00  0.00    -0.110 OA 
BRANCH  13  14
HETATM   14  C   UNL     1      -7.398   7.212  67.896  1.00  0.00    -0.097 C  
BRANCH  14  15
HETATM   15  C   UNL     1      -7.559   5.947  68.780  1.00  0.00    -0.090 C  
HETATM   16  N   UNL     1      -9.964   5.865  70.570  1.00  0.00    -0.182 NA 
HETATM   17  C   UNL     1      -8.785   5.059  68.470  1.00  0.00    -0.103 C  
HETATM   18  C   UNL     1      -9.812   4.732  71.482  1.00  0.00    -0.187 C  
HETATM   19  C   UNL     1     -10.091   5.468  69.165  1.00  0.00    -0.216 C  
HETATM   20  C   UNL     1      -7.536   6.334  70.264  1.00  0.00    -0.096 C  
HETATM   21  C   UNL     1      -8.895   6.853  70.732  1.00  0.00    -0.150 C  
ENDBRANCH  14  15
ENDBRANCH  13  14
ENDBRANCH   4  13
BRANCH   5  22
HETATM   22  N   UNL     1     -11.029  12.546  64.616  1.00  0.00    -0.295 NA 
HETATM   23  H   UNL     1     -12.000  12.455  64.319  1.00  0.00     0.000 HD 
BRANCH  22  24
HETATM   24  C   UNL     1     -10.728  13.583  65.529  1.00  0.00    -0.290 A  
HETATM   25  C   UNL     1     -11.758  14.257  66.200  1.00  0.00    -0.390 A  
HETATM   26  F   UNL     1     -13.028  13.855  66.040  1.00  0.00    -0.477 F  
HETATM   27  C   UNL     1     -11.503  15.349  67.034  1.00  0.00    -0.103 A  
HETATM   28  C   UNL     1     -10.194  15.789  67.189  1.00  0.00    -0.279 A  
HETATM   29 BR   UNL     1      -9.817  17.282  68.287  1.00  0.00    -0.322 Br 
HETATM   30  C   UNL     1      -9.152  15.159  66.509  1.00  0.00    -0.328 A  
HETATM   31  C   UNL     1      -9.422  14.066  65.680  1.00  0.00     0.027 A  
ENDBRANCH  22  24
ENDBRANCH   5  22
ENDBRANCH   2   3
TORSDOF 6
ENDMDL
MODEL      114
REMARK 921   NORMALIZED FREE ENERGY PREDICTED BY IDOCK:   -4.87 KCAL/MOL
REMARK 922        TOTAL FREE ENERGY PREDICTED BY IDOCK:   -7.63 KCAL/MOL
REMARK 923 INTER-LIGAND FREE ENERGY PREDICTED BY IDOCK:   -6.61 KCAL/MOL
REMARK 924 INTRA-LIGAND FREE ENERGY PREDICTED BY IDOCK:   -1.02 KCAL/MOL
REMARK 927      BINDING AFFINITY PREDICTED BY RF-SCORE:    0.00 PKD
ROOT
HETATM    1  C   UNL     1     -12.374  14.169  69.828  1.00  0.00    -0.299 C  
HETATM    2  O   UNL     1     -10.975  13.884  69.766  1.00  0.00    -0.094 OA 
ENDROOT
BRANCH   2   3
HETATM    3  C   UNL     1     -10.541  13.076  68.747  1.00  0.00    -0.193 A  
HETATM    4  C   UNL     1      -9.865  13.637  67.655  1.00  0.00    -0.228 A  
HETATM    5  C   UNL     1     -10.334   9.445  67.712  1.00  0.00    -0.238 A  
HETATM    6  C   UNL     1      -9.418  12.799  66.619  1.00  0.00    -0.249 A  
HETATM    7  N   UNL     1      -9.796   8.700  66.731  1.00  0.00    -0.228 NA 
HETATM    8  C   UNL     1      -9.568  11.420  66.644  1.00  0.00    -0.191 A  
HETATM    9  C   UNL     1     -10.717  11.684  68.765  1.00  0.00    -0.254 A  
HETATM   10  N   UNL     1      -9.054  10.688  65.648  1.00  0.00    -0.176 NA 
HETATM   11  C   UNL     1     -10.238  10.848  67.725  1.00  0.00    -0.209 A  
HETATM   12  C   UNL     1      -9.181   9.362  65.747  1.00  0.00    -0.219 A  
BRANCH   4  13
HETATM   13  O   UNL     1      -9.596  14.957  67.387  1.00  0.00    -0.203 OA 
BRANCH  13  14
HETATM   14  C   UNL     1      -8.251  15.333  67.101  1.00  0.00    -0.219 C  
BRANCH  14  15
HETATM   15  C   UNL     1      -8.053  16.841  67.406  1.00  0.00    -0.190 C  
HETATM   16  N   UNL     1      -5.229  17.852  67.370  1.00  0.00    -0.133 NA 
HETATM   17  C   UNL     1      -7.501  17.698  66.244  1.00  0.00    -0.340 C  
HETATM   18  C   UNL     1      -5.228  19.211  67.910  1.00  0.00    -0.171 C  
HETATM   19  C   UNL     1      -5.972  17.727  66.113  1.00  0.00    -0.216 C  
HETATM   20  C   UNL     1      -7.190  17.017  68.662  1.00  0.00    -0.221 C  
HETATM   21  C   UNL     1      -5.701  16.869  68.348  1.00  0.00    -0.130 C  
ENDBRANCH  14  15
ENDBRANCH  13  14
ENDBRANCH   4  13
BRANCH   5  22
HETATM   22  N   UNL     1     -11.046   8.790  68.748  1.00  0.00    -0.421 NA 
HETATM   23  H   UNL     1     -12.002   9.098  68.921  1.00  0.00     0.000 HD 
BRANCH  22  24
HETATM   24  C   UNL     1     -10.548   7.747  69.564  1.00  0.00    -0.221 A  
HETATM   25  C   UNL     1      -9.597   8.017  70.558  1.00  0.00    -0.170 A  
HETATM   26  F   UNL     1      -9.225   9.285  70.793  1.00  0.00    -0.233 F  
HETATM   27  C   UNL     1      -9.013   6.998  71.316  1.00  0.00    -0.137 A  
HETATM   28  C   UNL     1      -9.373   5.679  71.066  1.00  0.00    -0.153 A  
HETATM   29 BR   UNL     1      -8.581   4.274  72.052  1.00  0.00    -0.122 Br 
HETATM   30  C   UNL     1     -10.293   5.377  70.061  1.00  0.00    -0.366 A  
HETATM   31  C   UNL     1     -10.870   6.408  69.313  1.00  0.00    -0.387 A  
ENDBRANCH  22  24
ENDBRANCH   5  22
ENDBRANCH   2   3
TORSDOF 6
ENDMDL
MODEL      115
REMARK 921   NORMALIZED FREE ENERGY PREDICTED BY IDOCK:   -4.84 KCAL/MOL
REMARK 922        TOTAL FREE ENERGY PREDICTED BY IDOCK:   -7.59 KCAL/MOL
REMARK 923 INTER-LIGAND FREE ENERGY PREDICTED BY IDOCK:   -7.21 KCAL/MOL
REMARK 924 INTRA-LIGAND FREE ENERGY PREDICTED BY IDOCK:   -0.38 KCAL/MOL
REMARK 927      BINDING AFFINITY PREDICTED BY RF-SCORE:    0.00 PKD
ROOT
HETATM    1  C   UNL     1     -11.212  15.366  69.216  1.00  0.00    -0.296 C  
HETATM    2  O   UNL     1      -9.928  15.859  68.827  1.00  0.00    -0.205 OA 
ENDROOT
BRANCH   2   3
HETATM    3  C   UNL     1      -9.022  14.948  68.348  1.00  0.00    -0.183 A  
HETATM    4  C   UNL     1      -7.676  15.314  68.209  1.00  0.00    -0.112 A  
HETATM    5  C   UNL     1      -8.723  11.339  67.261  1.00  0.00    -0.145 A  
HETATM    6  C   UNL     1      -6.754  14.371  67.724  1.00  0.00    -0.191 A  
HETATM    7  N   UNL     1      -7.769  10.467  66.893  1.00  0.00    -0.110 NA 
HETATM    8  C   UNL     1      -7.100  13.062  67.419  1.00  0.00    -0.117 A  
HETATM    9  C   UNL     1      -9.382  13.632  68.018  1.00  0.00    -0.208 A  
HETATM   10  N   UNL     1      -6.148  12.208  67.026  1.00  0.00    -0.190 NA 
HETATM   11  C   UNL     1      -8.436  12.684  67.555  1.00  0.00    -0.176 A  
HETATM   12  C   UNL     1      -6.526  10.948  66.796  1.00  0.00    -0.115 A  
BRANCH   4  13
HETATM   13  O   UNL     1      -7.081  16.532  68.431  1.00  0.00    -0.149 OA 
BRANCH  13  14
HETATM   14  C   UNL     1      -7.878  17.595  68.946  1.00  0.00    -0.186 C  
BRANCH  14  15
HETATM   15  C   UNL     1      -7.990  18.725  67.888  1.00  0.00    -0.282 C  
HETATM   16  N   UNL     1     -10.723  19.228  66.757  1.00  0.00    -0.448 NA 
HETATM   17  C   UNL     1      -8.837  19.951  68.298  1.00  0.00    -0.276 C  
HETATM   18  C   UNL     1     -10.582  20.142  65.623  1.00  0.00    -0.195 C  
HETATM   19  C   UNL     1     -10.345  19.830  68.039  1.00  0.00    -0.434 C  
HETATM   20  C   UNL     1      -8.485  18.151  66.554  1.00  0.00    -0.283 C  
HETATM   21  C   UNL     1     -10.003  17.971  66.545  1.00  0.00    -0.371 C  
ENDBRANCH  14  15
ENDBRANCH  13  14
ENDBRANCH   4  13
BRANCH   5  22
HETATM   22  N   UNL     1     -10.066  10.888  67.323  1.00  0.00    -0.185 NA 
HETATM   23  H   UNL     1     -10.630  10.993  66.480  1.00  0.00     0.000 HD 
BRANCH  22  24
HETATM   24  C   UNL     1     -10.693  10.306  68.449  1.00  0.00    -0.226 A  
HETATM   25  C   UNL     1     -11.750  10.966  69.092  1.00  0.00    -0.326 A  
HETATM   26  F   UNL     1     -12.225  12.112  68.579  1.00  0.00    -0.353 F  
HETATM   27  C   UNL     1     -12.328  10.467  70.263  1.00  0.00    -0.377 A  
HETATM   28  C   UNL     1     -11.828   9.294  70.815  1.00  0.00    -0.243 A  
HETATM   29 BR   UNL     1     -12.567   8.607  72.414  1.00  0.00    -0.368 Br 
HETATM   30  C   UNL     1     -10.756   8.632  70.217  1.00  0.00    -0.243 A  
HETATM   31  C   UNL     1     -10.190   9.142  69.044  1.00  0.00    -0.219 A  
ENDBRANCH  22  24
ENDBRANCH   5  22
ENDBRANCH   2   3
TORSDOF 6
ENDMDL
MODEL      116
REMARK 921   NORMALIZED FREE ENERGY PREDICTED BY IDOCK:   -4.82 KCAL/MOL
REMARK 922        TOTAL FREE ENERGY PREDICTED BY IDOCK:   -7.56 KCAL/MOL
REMARK 923 INTER-LIGAND FREE ENERGY PREDICTED BY IDOCK:   -6.50 KCAL/MOL
REMARK 924 INTRA-LIGAND FREE ENERGY PREDICTED BY IDOCK:   -1.06 KCAL/MOL
REMARK 927      BINDING AFFINITY PREDICTED BY RF-SCORE:    0.00 PKD
ROOT
HETATM    1  C   UNL     1     -11.033   6.204  66.864  1.00  0.00    -0.305 C  
HETATM    2  O   UNL     1     -11.052   7.009  68.044  1.00  0.00    -0.142 OA 
ENDROOT
BRANCH   2   3
HETATM    3  C   UNL     1     -10.083   7.971  68.166  1.00  0.00    -0.197 A  
HETATM    4  C   UNL     1      -8.734   7.594  68.225  1.00  0.00    -0.123 A  
HETATM    5  C   UNL     1      -9.608  11.721  68.279  1.00  0.00    -0.199 A  
HETATM    6  C   UNL     1      -7.747   8.588  68.343  1.00  0.00    -0.101 A  
HETATM    7  N   UNL     1      -8.606  12.615  68.298  1.00  0.00    -0.180 NA 
HETATM    8  C   UNL     1      -8.038   9.945  68.354  1.00  0.00    -0.101 A  
HETATM    9  C   UNL     1     -10.384   9.341  68.201  1.00  0.00    -0.261 A  
HETATM   10  N   UNL     1      -7.034  10.828  68.402  1.00  0.00    -0.068 NA 
HETATM   11  C   UNL     1      -9.376  10.333  68.295  1.00  0.00    -0.140 A  
HETATM   12  C   UNL     1      -7.366  12.121  68.357  1.00  0.00    -0.108 A  
BRANCH   4  13
HETATM   13  O   UNL     1      -8.186   6.335  68.240  1.00  0.00    -0.114 OA 
BRANCH  13  14
HETATM   14  C   UNL     1      -7.815   5.770  69.495  1.00  0.00    -0.093 C  
BRANCH  14  15
HETATM   15  C   UNL     1      -9.052   5.712  70.429  1.00  0.00    -0.164 C  
HETATM   16  N   UNL     1      -9.233   3.346  72.263  1.00  0.00    -0.105 NA 
HETATM   17  C   UNL     1      -8.761   5.821  71.942  1.00  0.00    -0.135 C  
HETATM   18  C   UNL     1     -10.561   3.346  72.874  1.00  0.00    -0.123 C  
HETATM   19  C   UNL     1      -8.416   4.501  72.646  1.00  0.00    -0.114 C  
HETATM   20  C   UNL     1      -9.882   4.457  70.129  1.00  0.00    -0.288 C  
HETATM   21  C   UNL     1      -9.294   3.218  70.806  1.00  0.00    -0.153 C  
ENDBRANCH  14  15
ENDBRANCH  13  14
ENDBRANCH   4  13
BRANCH   5  22
HETATM   22  N   UNL     1     -10.943  12.199  68.273  1.00  0.00    -0.220 NA 
HETATM   23  H   UNL     1     -11.519  11.958  67.466  1.00  0.00     0.000 HD 
BRANCH  22  24
HETATM   24  C   UNL     1     -11.549  12.979  69.285  1.00  0.00    -0.310 A  
HETATM   25  C   UNL     1     -12.143  12.362  70.395  1.00  0.00    -0.297 A  
HETATM   26  F   UNL     1     -12.057  11.031  70.539  1.00  0.00    -0.344 F  
HETATM   27  C   UNL     1     -12.834  13.096  71.364  1.00  0.00    -0.401 A  
HETATM   28  C   UNL     1     -12.949  14.472  71.214  1.00  0.00    -0.333 A  
HETATM   29 BR   UNL     1     -13.902  15.491  72.490  1.00  0.00    -0.642 Br 
HETATM   30  C   UNL     1     -12.396  15.110  70.103  1.00  0.00    -0.385 A  
HETATM   31  C   UNL     1     -11.705  14.363  69.144  1.00  0.00    -0.354 A  
ENDBRANCH  22  24
ENDBRANCH   5  22
ENDBRANCH   2   3
TORSDOF 6
ENDMDL
MODEL      117
REMARK 921   NORMALIZED FREE ENERGY PREDICTED BY IDOCK:   -4.79 KCAL/MOL
REMARK 922        TOTAL FREE ENERGY PREDICTED BY IDOCK:   -7.52 KCAL/MOL
REMARK 923 INTER-LIGAND FREE ENERGY PREDICTED BY IDOCK:   -6.52 KCAL/MOL
REMARK 924 INTRA-LIGAND FREE ENERGY PREDICTED BY IDOCK:   -1.00 KCAL/MOL
REMARK 927      BINDING AFFINITY PREDICTED BY RF-SCORE:    0.00 PKD
ROOT
HETATM    1  C   UNL     1     -10.773   9.844  70.439  1.00  0.00    -0.318 C  
HETATM    2  O   UNL     1     -11.264  10.006  69.107  1.00  0.00    -0.216 OA 
ENDROOT
BRANCH   2   3
HETATM    3  C   UNL     1     -10.622   9.317  68.111  1.00  0.00    -0.198 A  
HETATM    4  C   UNL     1     -10.098  10.012  67.012  1.00  0.00    -0.219 A  
HETATM    5  C   UNL     1      -9.468   5.843  67.161  1.00  0.00    -0.117 A  
HETATM    6  C   UNL     1      -9.435   9.297  65.999  1.00  0.00    -0.311 A  
HETATM    7  N   UNL     1      -8.743   5.243  66.203  1.00  0.00    -0.125 NA 
HETATM    8  C   UNL     1      -9.223   7.927  66.055  1.00  0.00    -0.104 A  
HETATM    9  C   UNL     1     -10.432   7.927  68.159  1.00  0.00    -0.227 A  
HETATM   10  N   UNL     1      -8.524   7.334  65.081  1.00  0.00    -0.076 NA 
HETATM   11  C   UNL     1      -9.739   7.224  67.143  1.00  0.00    -0.218 A  
HETATM   12  C   UNL     1      -8.305   6.022  65.209  1.00  0.00    -0.148 A  
BRANCH   4  13
HETATM   13  O   UNL     1     -10.175  11.351  66.716  1.00  0.00    -0.211 OA 
BRANCH  13  14
HETATM   14  C   UNL     1     -11.302  11.822  65.983  1.00  0.00    -0.273 C  
BRANCH  14  15
HETATM   15  C   UNL     1     -11.666  13.257  66.447  1.00  0.00    -0.418 C  
HETATM   16  N   UNL     1     -10.186  15.505  65.121  1.00  0.00    -0.377 NA 
HETATM   17  C   UNL     1     -12.327  14.163  65.384  1.00  0.00    -0.475 C  
HETATM   18  C   UNL     1     -10.485  16.736  65.851  1.00  0.00    -0.301 C  
HETATM   19  C   UNL     1     -11.358  14.919  64.465  1.00  0.00    -0.300 C  
HETATM   20  C   UNL     1     -10.433  13.945  67.049  1.00  0.00    -0.278 C  
HETATM   21  C   UNL     1      -9.517  14.511  65.964  1.00  0.00    -0.229 C  
ENDBRANCH  14  15
ENDBRANCH  13  14
ENDBRANCH   4  13
BRANCH   5  22
HETATM   22  N   UNL     1     -10.002   5.047  68.206  1.00  0.00    -0.148 NA 
HETATM   23  H   UNL     1     -10.885   4.572  68.023  1.00  0.00     0.000 HD 
BRANCH  22  24
HETATM   24  C   UNL     1      -9.419   4.854  69.480  1.00  0.00    -0.148 A  
HETATM   25  C   UNL     1     -10.101   5.251  70.639  1.00  0.00    -0.239 A  
HETATM   26  F   UNL     1     -11.349   5.734  70.541  1.00  0.00    -0.363 F  
HETATM   27  C   UNL     1      -9.515   5.164  71.906  1.00  0.00    -0.184 A  
HETATM   28  C   UNL     1      -8.215   4.687  72.017  1.00  0.00    -0.105 A  
HETATM   29 BR   UNL     1      -7.382   4.583  73.711  1.00  0.00    -0.078 Br 
HETATM   30  C   UNL     1      -7.499   4.314  70.878  1.00  0.00    -0.051 A  
HETATM   31  C   UNL     1      -8.100   4.405  69.618  1.00  0.00    -0.061 A  
ENDBRANCH  22  24
ENDBRANCH   5  22
ENDBRANCH   2   3
TORSDOF 6
ENDMDL
MODEL      118
REMARK 921   NORMALIZED FREE ENERGY PREDICTED BY IDOCK:   -4.78 KCAL/MOL
REMARK 922        TOTAL FREE ENERGY PREDICTED BY IDOCK:   -7.50 KCAL/MOL
REMARK 923 INTER-LIGAND FREE ENERGY PREDICTED BY IDOCK:   -6.91 KCAL/MOL
REMARK 924 INTRA-LIGAND FREE ENERGY PREDICTED BY IDOCK:   -0.59 KCAL/MOL
REMARK 927      BINDING AFFINITY PREDICTED BY RF-SCORE:    0.00 PKD
ROOT
HETATM    1  C   UNL     1      -9.033  11.165  69.246  1.00  0.00     0.182 C  
HETATM    2  O   UNL     1      -8.648  12.363  68.568  1.00  0.00    -0.148 OA 
ENDROOT
BRANCH   2   3
HETATM    3  C   UNL     1      -9.448  12.789  67.540  1.00  0.00    -0.187 A  
HETATM    4  C   UNL     1      -9.899  14.115  67.514  1.00  0.00    -0.235 A  
HETATM    5  C   UNL     1     -10.969  11.631  64.276  1.00  0.00    -0.355 A  
HETATM    6  C   UNL     1     -10.713  14.544  66.451  1.00  0.00    -0.309 A  
HETATM    7  N   UNL     1     -11.671  12.139  63.249  1.00  0.00    -0.401 NA 
HETATM    8  C   UNL     1     -11.057  13.726  65.384  1.00  0.00    -0.302 A  
HETATM    9  C   UNL     1      -9.814  11.950  66.475  1.00  0.00    -0.225 A  
HETATM   10  N   UNL     1     -11.782  14.233  64.380  1.00  0.00    -0.405 NA 
HETATM   11  C   UNL     1     -10.615  12.404  65.397  1.00  0.00    -0.316 A  
HETATM   12  C   UNL     1     -12.041  13.418  63.353  1.00  0.00    -0.372 A  
BRANCH   4  13
HETATM   13  O   UNL     1      -9.710  15.114  68.438  1.00  0.00    -0.203 OA 
BRANCH  13  14
HETATM   14  C   UNL     1      -8.495  15.857  68.397  1.00  0.00    -0.176 C  
BRANCH  14  15
HETATM   15  C   UNL     1      -8.775  17.339  68.764  1.00  0.00    -0.232 C  
HETATM   16  N   UNL     1     -10.033  19.030  66.629  1.00  0.00    -0.348 NA 
HETATM   17  C   UNL     1     -10.264  17.752  68.813  1.00  0.00    -0.373 C  
HETATM   18  C   UNL     1      -9.993  20.422  67.073  1.00  0.00    -0.428 C  
HETATM   19  C   UNL     1     -10.876  18.175  67.471  1.00  0.00    -0.242 C  
HETATM   20  C   UNL     1      -7.988  18.271  67.835  1.00  0.00    -0.261 C  
HETATM   21  C   UNL     1      -8.693  18.455  66.491  1.00  0.00    -0.278 C  
ENDBRANCH  14  15
ENDBRANCH  13  14
ENDBRANCH   4  13
BRANCH   5  22
HETATM   22  N   UNL     1     -10.602  10.262  64.237  1.00  0.00    -0.191 NA 
HETATM   23  H   UNL     1     -11.325   9.596  63.965  1.00  0.00     0.000 HD 
BRANCH  22  24
HETATM   24  C   UNL     1      -9.324   9.738  64.540  1.00  0.00    -0.235 A  
HETATM   25  C   UNL     1      -8.265   9.880  63.632  1.00  0.00    -0.157 A  
HETATM   26  F   UNL     1      -8.445  10.596  62.512  1.00  0.00    -0.157 F  
HETATM   27  C   UNL     1      -7.018   9.291  63.857  1.00  0.00    -0.092 A  
HETATM   28  C   UNL     1      -6.827   8.529  65.002  1.00  0.00    -0.071 A  
HETATM   29 BR   UNL     1      -5.161   7.694  65.322  1.00  0.00    -0.029 Br 
HETATM   30  C   UNL     1      -7.872   8.342  65.908  1.00  0.00    -0.093 A  
HETATM   31  C   UNL     1      -9.113   8.940  65.672  1.00  0.00    -0.269 A  
ENDBRANCH  22  24
ENDBRANCH   5  22
ENDBRANCH   2   3
TORSDOF 6
ENDMDL
MODEL      119
REMARK 921   NORMALIZED FREE ENERGY PREDICTED BY IDOCK:   -4.78 KCAL/MOL
REMARK 922        TOTAL FREE ENERGY PREDICTED BY IDOCK:   -7.50 KCAL/MOL
REMARK 923 INTER-LIGAND FREE ENERGY PREDICTED BY IDOCK:   -6.66 KCAL/MOL
REMARK 924 INTRA-LIGAND FREE ENERGY PREDICTED BY IDOCK:   -0.84 KCAL/MOL
REMARK 927      BINDING AFFINITY PREDICTED BY RF-SCORE:    0.00 PKD
ROOT
HETATM    1  C   UNL     1      -8.765   9.468  66.189  1.00  0.00    -0.145 C  
HETATM    2  O   UNL     1      -8.375   8.809  67.396  1.00  0.00    -0.108 OA 
ENDROOT
BRANCH   2   3
HETATM    3  C   UNL     1      -9.260   8.836  68.442  1.00  0.00    -0.137 A  
HETATM    4  C   UNL     1      -9.158   7.881  69.463  1.00  0.00    -0.149 A  
HETATM    5  C   UNL     1     -12.137  10.843  69.856  1.00  0.00    -0.354 A  
HETATM    6  C   UNL     1     -10.066   7.922  70.536  1.00  0.00    -0.192 A  
HETATM    7  N   UNL     1     -12.907  10.873  70.956  1.00  0.00    -0.380 NA 
HETATM    8  C   UNL     1     -11.041   8.901  70.665  1.00  0.00    -0.262 A  
HETATM    9  C   UNL     1     -10.260   9.814  68.556  1.00  0.00    -0.209 A  
HETATM   10  N   UNL     1     -11.822   8.906  71.751  1.00  0.00    -0.334 NA 
HETATM   11  C   UNL     1     -11.152   9.858  69.656  1.00  0.00    -0.279 A  
HETATM   12  C   UNL     1     -12.709   9.901  71.851  1.00  0.00    -0.409 A  
BRANCH   4  13
HETATM   13  O   UNL     1      -8.299   6.815  69.571  1.00  0.00    -0.129 OA 
BRANCH  13  14
HETATM   14  C   UNL     1      -8.850   5.510  69.721  1.00  0.00    -0.119 C  
BRANCH  14  15
HETATM   15  C   UNL     1      -8.304   4.857  71.018  1.00  0.00    -0.109 C  
HETATM   16  N   UNL     1      -8.625   1.884  71.256  1.00  0.00    -0.056 NA 
HETATM   17  C   UNL     1      -7.117   3.884  70.837  1.00  0.00    -0.033 C  
HETATM   18  C   UNL     1      -8.279   1.499  72.623  1.00  0.00    -0.052 C  
HETATM   19  C   UNL     1      -7.495   2.435  70.503  1.00  0.00    -0.036 C  
HETATM   20  C   UNL     1      -9.444   4.177  71.787  1.00  0.00    -0.210 C  
HETATM   21  C   UNL     1      -9.768   2.798  71.212  1.00  0.00    -0.133 C  
ENDBRANCH  14  15
ENDBRANCH  13  14
ENDBRANCH   4  13
BRANCH   5  22
HETATM   22  N   UNL     1     -12.350  11.821  68.852  1.00  0.00    -0.233 NA 
HETATM   23  H   UNL     1     -12.976  11.571  68.087  1.00  0.00     0.000 HD 
BRANCH  22  24
HETATM   24  C   UNL     1     -11.772  13.111  68.816  1.00  0.00    -0.324 A  
HETATM   25  C   UNL     1     -12.165  14.090  69.740  1.00  0.00    -0.341 A  
HETATM   26  F   UNL     1     -13.028  13.770  70.717  1.00  0.00    -0.368 F  
HETATM   27  C   UNL     1     -11.687  15.402  69.673  1.00  0.00    -0.355 A  
HETATM   28  C   UNL     1     -10.812  15.750  68.652  1.00  0.00    -0.278 A  
HETATM   29 BR   UNL     1     -10.168  17.522  68.515  1.00  0.00    -0.389 Br 
HETATM   30  C   UNL     1     -10.428  14.806  67.699  1.00  0.00    -0.254 A  
HETATM   31  C   UNL     1     -10.912  13.497  67.780  1.00  0.00    -0.284 A  
ENDBRANCH  22  24
ENDBRANCH   5  22
ENDBRANCH   2   3
TORSDOF 6
ENDMDL
MODEL      120
REMARK 921   NORMALIZED FREE ENERGY PREDICTED BY IDOCK:   -4.75 KCAL/MOL
REMARK 922        TOTAL FREE ENERGY PREDICTED BY IDOCK:   -7.46 KCAL/MOL
REMARK 923 INTER-LIGAND FREE ENERGY PREDICTED BY IDOCK:   -6.38 KCAL/MOL
REMARK 924 INTRA-LIGAND FREE ENERGY PREDICTED BY IDOCK:   -1.08 KCAL/MOL
REMARK 927      BINDING AFFINITY PREDICTED BY RF-SCORE:    0.00 PKD
ROOT
HETATM    1  C   UNL     1     -12.271  10.938  69.807  1.00  0.00    -0.311 C  
HETATM    2  O   UNL     1     -12.096  11.294  68.435  1.00  0.00    -0.598 OA 
ENDROOT
BRANCH   2   3
HETATM    3  C   UNL     1     -10.831  11.203  67.917  1.00  0.00    -0.235 A  
HETATM    4  C   UNL     1      -9.933  12.266  68.085  1.00  0.00    -0.210 A  
HETATM    5  C   UNL     1      -8.521   8.818  66.106  1.00  0.00    -0.131 A  
HETATM    6  C   UNL     1      -8.634  12.160  67.556  1.00  0.00    -0.171 A  
HETATM    7  N   UNL     1      -7.238   8.753  65.711  1.00  0.00    -0.083 NA 
HETATM    8  C   UNL     1      -8.171  11.021  66.912  1.00  0.00    -0.140 A  
HETATM    9  C   UNL     1     -10.374  10.059  67.244  1.00  0.00    -0.293 A  
HETATM   10  N   UNL     1      -6.900  10.977  66.497  1.00  0.00    -0.130 NA 
HETATM   11  C   UNL     1      -9.054   9.956  66.739  1.00  0.00    -0.164 A  
HETATM   12  C   UNL     1      -6.491   9.839  65.929  1.00  0.00    -0.082 A  
BRANCH   4  13
HETATM   13  O   UNL     1     -10.139  13.491  68.671  1.00  0.00    -0.226 OA 
BRANCH  13  14
HETATM   14  C   UNL     1      -9.157  14.507  68.487  1.00  0.00    -0.190 C  
BRANCH  14  15
HETATM   15  C   UNL     1      -9.752  15.886  68.878  1.00  0.00    -0.230 C  
HETATM   16  N   UNL     1      -9.689  18.015  66.764  1.00  0.00    -0.308 NA 
HETATM   17  C   UNL     1     -11.020  16.317  68.106  1.00  0.00    -0.343 C  
HETATM   18  C   UNL     1     -10.062  19.284  67.389  1.00  0.00    -0.389 C  
HETATM   19  C   UNL     1     -10.771  17.026  66.768  1.00  0.00    -0.102 C  
HETATM   20  C   UNL     1      -8.672  16.972  68.786  1.00  0.00    -0.244 C  
HETATM   21  C   UNL     1      -8.471  17.448  67.348  1.00  0.00    -0.206 C  
ENDBRANCH  14  15
ENDBRANCH  13  14
ENDBRANCH   4  13
BRANCH   5  22
HETATM   22  N   UNL     1      -9.368   7.712  65.844  1.00  0.00    -0.398 NA 
HETATM   23  H   UNL     1     -10.070   7.827  65.115  1.00  0.00     0.000 HD 
BRANCH  22  24
HETATM   24  C   UNL     1      -9.325   6.462  66.505  1.00  0.00    -0.155 A  
HETATM   25  C   UNL     1      -8.815   5.331  65.851  1.00  0.00    -0.145 A  
HETATM   26  F   UNL     1      -8.284   5.458  64.625  1.00  0.00    -0.108 F  
HETATM   27  C   UNL     1      -8.848   4.063  66.438  1.00  0.00    -0.121 A  
HETATM   28  C   UNL     1      -9.416   3.916  67.697  1.00  0.00    -0.185 A  
HETATM   29 BR   UNL     1      -9.503   2.210  68.507  1.00  0.00    -0.138 Br 
HETATM   30  C   UNL     1      -9.961   5.017  68.359  1.00  0.00    -0.202 A  
HETATM   31  C   UNL     1      -9.919   6.280  67.760  1.00  0.00    -0.143 A  
ENDBRANCH  22  24
ENDBRANCH   5  22
ENDBRANCH   2   3
TORSDOF 6
ENDMDL
MODEL      121
REMARK 921   NORMALIZED FREE ENERGY PREDICTED BY IDOCK:   -4.74 KCAL/MOL
REMARK 922        TOTAL FREE ENERGY PREDICTED BY IDOCK:   -7.45 KCAL/MOL
REMARK 923 INTER-LIGAND FREE ENERGY PREDICTED BY IDOCK:   -6.46 KCAL/MOL
REMARK 924 INTRA-LIGAND FREE ENERGY PREDICTED BY IDOCK:   -0.98 KCAL/MOL
REMARK 927      BINDING AFFINITY PREDICTED BY RF-SCORE:    0.00 PKD
ROOT
HETATM    1  C   UNL     1      -6.055  11.642  68.563  1.00  0.00    -0.050 C  
HETATM    2  O   UNL     1      -6.476  11.087  67.316  1.00  0.00    -0.063 OA 
ENDROOT
BRANCH   2   3
HETATM    3  C   UNL     1      -7.731  11.414  66.873  1.00  0.00    -0.155 A  
HETATM    4  C   UNL     1      -8.438  10.513  66.064  1.00  0.00    -0.156 A  
HETATM    5  C   UNL     1     -10.383  14.095  67.157  1.00  0.00    -0.265 A  
HETATM    6  C   UNL     1      -9.728  10.855  65.621  1.00  0.00    -0.279 A  
HETATM    7  N   UNL     1     -11.652  14.309  66.772  1.00  0.00    -0.374 NA 
HETATM    8  C   UNL     1     -10.367  12.031  65.988  1.00  0.00    -0.238 A  
HETATM    9  C   UNL     1      -8.364  12.615  67.226  1.00  0.00    -0.189 A  
HETATM   10  N   UNL     1     -11.622  12.249  65.576  1.00  0.00    -0.368 NA 
HETATM   11  C   UNL     1      -9.674  12.935  66.793  1.00  0.00    -0.246 A  
HETATM   12  C   UNL     1     -12.209  13.372  66.000  1.00  0.00    -0.437 A  
BRANCH   4  13
HETATM   13  O   UNL     1      -8.037   9.301  65.559  1.00  0.00    -0.108 OA 
BRANCH  13  14
HETATM   14  C   UNL     1      -8.933   8.197  65.647  1.00  0.00    -0.080 C  
BRANCH  14  15
HETATM   15  C   UNL     1      -8.146   6.914  66.025  1.00  0.00    -0.119 C  
HETATM   16  N   UNL     1      -9.783   4.513  66.771  1.00  0.00    -0.190 NA 
HETATM   17  C   UNL     1      -8.322   5.710  65.072  1.00  0.00    -0.146 C  
HETATM   18  C   UNL     1      -8.881   3.502  67.319  1.00  0.00    -0.131 C  
HETATM   19  C   UNL     1      -9.534   4.812  65.358  1.00  0.00    -0.151 C  
HETATM   20  C   UNL     1      -8.462   6.507  67.470  1.00  0.00    -0.120 C  
HETATM   21  C   UNL     1      -9.782   5.744  67.566  1.00  0.00    -0.119 C  
ENDBRANCH  14  15
ENDBRANCH  13  14
ENDBRANCH   4  13
BRANCH   5  22
HETATM   22  N   UNL     1      -9.731  15.089  67.930  1.00  0.00    -0.211 NA 
HETATM   23  H   UNL     1      -9.753  14.976  68.944  1.00  0.00     0.000 HD 
BRANCH  22  24
HETATM   24  C   UNL     1      -9.054  16.221  67.423  1.00  0.00    -0.195 A  
HETATM   25  C   UNL     1      -9.705  17.461  67.345  1.00  0.00    -0.269 A  
HETATM   26  F   UNL     1     -10.946  17.590  67.839  1.00  0.00    -0.374 F  
HETATM   27  C   UNL     1      -9.099  18.577  66.760  1.00  0.00    -0.297 A  
HETATM   28  C   UNL     1      -7.823  18.449  66.225  1.00  0.00    -0.242 A  
HETATM   29 BR   UNL     1      -6.985  19.929  65.400  1.00  0.00    -0.276 Br 
HETATM   30  C   UNL     1      -7.163  17.220  66.258  1.00  0.00    -0.335 A  
HETATM   31  C   UNL     1      -7.781  16.113  66.849  1.00  0.00    -0.284 A  
ENDBRANCH  22  24
ENDBRANCH   5  22
ENDBRANCH   2   3
TORSDOF 6
ENDMDL
MODEL      122
REMARK 921   NORMALIZED FREE ENERGY PREDICTED BY IDOCK:   -4.69 KCAL/MOL
REMARK 922        TOTAL FREE ENERGY PREDICTED BY IDOCK:   -7.39 KCAL/MOL
REMARK 923 INTER-LIGAND FREE ENERGY PREDICTED BY IDOCK:   -6.03 KCAL/MOL
REMARK 924 INTRA-LIGAND FREE ENERGY PREDICTED BY IDOCK:   -1.36 KCAL/MOL
REMARK 927      BINDING AFFINITY PREDICTED BY RF-SCORE:    0.00 PKD
ROOT
HETATM    1  C   UNL     1     -10.350  10.783  64.452  1.00  0.00    -0.335 C  
HETATM    2  O   UNL     1     -10.209   9.968  65.617  1.00  0.00    -0.267 OA 
ENDROOT
BRANCH   2   3
HETATM    3  C   UNL     1      -9.237  10.319  66.517  1.00  0.00    -0.153 A  
HETATM    4  C   UNL     1      -8.698   9.348  67.373  1.00  0.00    -0.125 A  
HETATM    5  C   UNL     1      -7.103  13.248  67.601  1.00  0.00    -0.159 A  
HETATM    6  C   UNL     1      -7.697   9.718  68.288  1.00  0.00    -0.085 A  
HETATM    7  N   UNL     1      -6.081  13.503  68.435  1.00  0.00    -0.085 NA 
HETATM    8  C   UNL     1      -7.170  11.000  68.355  1.00  0.00    -0.085 A  
HETATM    9  C   UNL     1      -8.724  11.623  66.599  1.00  0.00    -0.187 A  
HETATM   10  N   UNL     1      -6.171  11.251  69.210  1.00  0.00    -0.064 NA 
HETATM   11  C   UNL     1      -7.697  11.975  67.509  1.00  0.00    -0.155 A  
HETATM   12  C   UNL     1      -5.665  12.488  69.198  1.00  0.00    -0.075 A  
BRANCH   4  13
HETATM   13  O   UNL     1      -9.043   8.026  67.510  1.00  0.00    -0.136 OA 
BRANCH  13  14
HETATM   14  C   UNL     1      -8.434   7.269  68.553  1.00  0.00    -0.125 C  
BRANCH  14  15
HETATM   15  C   UNL     1      -9.514   6.821  69.573  1.00  0.00    -0.148 C  
HETATM   16  N   UNL     1     -10.383   8.870  71.585  1.00  0.00    -0.319 NA 
HETATM   17  C   UNL     1     -10.876   7.543  69.475  1.00  0.00    -0.184 C  
HETATM   18  C   UNL     1     -11.206   8.198  72.589  1.00  0.00    -0.378 C  
HETATM   19  C   UNL     1     -10.980   8.866  70.246  1.00  0.00    -0.241 C  
HETATM   20  C   UNL     1      -8.959   6.910  71.001  1.00  0.00    -0.151 C  
HETATM   21  C   UNL     1      -9.019   8.338  71.542  1.00  0.00    -0.173 C  
ENDBRANCH  14  15
ENDBRANCH  13  14
ENDBRANCH   4  13
BRANCH   5  22
HETATM   22  N   UNL     1      -7.616  14.308  66.812  1.00  0.00    -0.210 NA 
HETATM   23  H   UNL     1      -7.593  14.187  65.800  1.00  0.00     0.000 HD 
BRANCH  22  24
HETATM   24  C   UNL     1      -8.157  15.519  67.304  1.00  0.00    -0.198 A  
HETATM   25  C   UNL     1      -9.537  15.644  67.518  1.00  0.00    -0.224 A  
HETATM   26  F   UNL     1     -10.334  14.579  67.341  1.00  0.00    -0.245 F  
HETATM   27  C   UNL     1     -10.116  16.855  67.910  1.00  0.00    -0.288 A  
HETATM   28  C   UNL     1      -9.303  17.970  68.073  1.00  0.00    -0.272 A  
HETATM   29 BR   UNL     1     -10.057  19.630  68.573  1.00  0.00    -0.538 Br 
HETATM   30  C   UNL     1      -7.931  17.885  67.835  1.00  0.00    -0.235 A  
HETATM   31  C   UNL     1      -7.366  16.666  67.447  1.00  0.00    -0.189 A  
ENDBRANCH  22  24
ENDBRANCH   5  22
ENDBRANCH   2   3
TORSDOF 6
ENDMDL
MODEL      123
REMARK 921   NORMALIZED FREE ENERGY PREDICTED BY IDOCK:   -4.69 KCAL/MOL
REMARK 922        TOTAL FREE ENERGY PREDICTED BY IDOCK:   -7.38 KCAL/MOL
REMARK 923 INTER-LIGAND FREE ENERGY PREDICTED BY IDOCK:   -6.83 KCAL/MOL
REMARK 924 INTRA-LIGAND FREE ENERGY PREDICTED BY IDOCK:   -0.55 KCAL/MOL
REMARK 927      BINDING AFFINITY PREDICTED BY RF-SCORE:    0.00 PKD
ROOT
HETATM    1  C   UNL     1     -13.406   9.999  71.958  1.00  0.00    -0.409 C  
HETATM    2  O   UNL     1     -12.152   9.319  72.045  1.00  0.00    -0.366 OA 
ENDROOT
BRANCH   2   3
HETATM    3  C   UNL     1     -11.429   9.181  70.889  1.00  0.00    -0.296 A  
HETATM    4  C   UNL     1     -11.162   7.900  70.385  1.00  0.00    -0.234 A  
HETATM    5  C   UNL     1      -9.803  11.201  68.136  1.00  0.00    -0.180 A  
HETATM    6  C   UNL     1     -10.425   7.770  69.195  1.00  0.00    -0.219 A  
HETATM    7  N   UNL     1      -9.188  10.999  66.959  1.00  0.00    -0.153 NA 
HETATM    8  C   UNL     1      -9.986   8.858  68.454  1.00  0.00    -0.178 A  
HETATM    9  C   UNL     1     -10.965  10.284  70.156  1.00  0.00    -0.377 A  
HETATM   10  N   UNL     1      -9.349   8.646  67.297  1.00  0.00    -0.148 NA 
HETATM   11  C   UNL     1     -10.246  10.137  68.944  1.00  0.00    -0.213 A  
HETATM   12  C   UNL     1      -8.993   9.728  66.598  1.00  0.00    -0.142 A  
BRANCH   4  13
HETATM   13  O   UNL     1     -11.474   6.675  70.921  1.00  0.00    -0.306 OA 
BRANCH  13  14
HETATM   14  C   UNL     1     -11.434   6.522  72.338  1.00  0.00    -0.271 C  
BRANCH  14  15
HETATM   15  C   UNL     1     -10.054   5.951  72.763  1.00  0.00    -0.203 C  
HETATM   16  N   UNL     1     -10.026   3.114  73.737  1.00  0.00    -0.105 NA 
HETATM   17  C   UNL     1      -9.509   4.791  71.900  1.00  0.00    -0.192 C  
HETATM   18  C   UNL     1      -8.707   2.845  74.309  1.00  0.00    -0.075 C  
HETATM   19  C   UNL     1      -9.990   3.389  72.297  1.00  0.00    -0.163 C  
HETATM   20  C   UNL     1     -10.082   5.553  74.244  1.00  0.00    -0.271 C  
HETATM   21  C   UNL     1     -10.729   4.183  74.448  1.00  0.00    -0.149 C  
ENDBRANCH  14  15
ENDBRANCH  13  14
ENDBRANCH   4  13
BRANCH   5  22
HETATM   22  N   UNL     1      -9.982  12.533  68.588  1.00  0.00    -0.390 NA 
HETATM   23  H   UNL     1     -10.693  12.689  69.302  1.00  0.00     0.000 HD 
BRANCH  22  24
HETATM   24  C   UNL     1      -9.263  13.665  68.137  1.00  0.00    -0.204 A  
HETATM   25  C   UNL     1      -9.896  14.641  67.356  1.00  0.00    -0.222 A  
HETATM   26  F   UNL     1     -11.212  14.545  67.111  1.00  0.00    -0.293 F  
HETATM   27  C   UNL     1      -9.192  15.721  66.813  1.00  0.00    -0.268 A  
HETATM   28  C   UNL     1      -7.825  15.819  67.040  1.00  0.00    -0.236 A  
HETATM   29 BR   UNL     1      -6.838  17.249  66.296  1.00  0.00    -0.233 Br 
HETATM   30  C   UNL     1      -7.162  14.844  67.786  1.00  0.00    -0.190 A  
HETATM   31  C   UNL     1      -7.879  13.772  68.325  1.00  0.00    -0.144 A  
ENDBRANCH  22  24
ENDBRANCH   5  22
ENDBRANCH   2   3
TORSDOF 6
ENDMDL
MODEL      124
REMARK 921   NORMALIZED FREE ENERGY PREDICTED BY IDOCK:   -4.68 KCAL/MOL
REMARK 922        TOTAL FREE ENERGY PREDICTED BY IDOCK:   -7.37 KCAL/MOL
REMARK 923 INTER-LIGAND FREE ENERGY PREDICTED BY IDOCK:   -6.21 KCAL/MOL
REMARK 924 INTRA-LIGAND FREE ENERGY PREDICTED BY IDOCK:   -1.16 KCAL/MOL
REMARK 927      BINDING AFFINITY PREDICTED BY RF-SCORE:    0.00 PKD
ROOT
HETATM    1  C   UNL     1     -10.905   9.072  69.965  1.00  0.00    -0.231 C  
HETATM    2  O   UNL     1     -10.305  10.323  69.621  1.00  0.00    -0.229 OA 
ENDROOT
BRANCH   2   3
HETATM    3  C   UNL     1     -10.356  10.705  68.306  1.00  0.00    -0.177 A  
HETATM    4  C   UNL     1     -11.355  11.589  67.878  1.00  0.00    -0.303 A  
HETATM    5  C   UNL     1      -8.508  10.338  65.026  1.00  0.00    -0.172 A  
HETATM    6  C   UNL     1     -11.394  11.981  66.528  1.00  0.00    -0.413 A  
HETATM    7  N   UNL     1      -8.555  10.829  63.777  1.00  0.00    -0.094 NA 
HETATM    8  C   UNL     1     -10.452  11.573  65.595  1.00  0.00    -0.266 A  
HETATM    9  C   UNL     1      -9.415  10.270  67.360  1.00  0.00    -0.174 A  
HETATM   10  N   UNL     1     -10.524  12.046  64.345  1.00  0.00    -0.291 NA 
HETATM   11  C   UNL     1      -9.452  10.693  66.008  1.00  0.00    -0.233 A  
HETATM   12  C   UNL     1      -9.562  11.662  63.499  1.00  0.00    -0.250 A  
BRANCH   4  13
HETATM   13  O   UNL     1     -12.398  12.130  68.589  1.00  0.00    -0.168 OA 
BRANCH  13  14
HETATM   14  C   UNL     1     -12.346  13.512  68.930  1.00  0.00     0.015 C  
BRANCH  14  15
HETATM   15  C   UNL     1     -11.700  13.681  70.331  1.00  0.00    -0.223 C  
HETATM   16  N   UNL     1     -12.933  15.740  72.131  1.00  0.00    -0.442 NA 
HETATM   17  C   UNL     1     -12.588  13.295  71.535  1.00  0.00    -0.311 C  
HETATM   18  C   UNL     1     -12.052  15.919  73.284  1.00  0.00    -0.496 C  
HETATM   19  C   UNL     1     -13.521  14.400  72.050  1.00  0.00    -0.402 C  
HETATM   20  C   UNL     1     -11.162  15.109  70.495  1.00  0.00    -0.313 C  
HETATM   21  C   UNL     1     -12.272  16.090  70.871  1.00  0.00    -0.251 C  
ENDBRANCH  14  15
ENDBRANCH  13  14
ENDBRANCH   4  13
BRANCH   5  22
HETATM   22  N   UNL     1      -7.490   9.407  65.352  1.00  0.00    -0.097 NA 
HETATM   23  H   UNL     1      -6.700   9.754  65.894  1.00  0.00     0.000 HD 
BRANCH  22  24
HETATM   24  C   UNL     1      -7.472   8.039  64.992  1.00  0.00    -0.087 A  
HETATM   25  C   UNL     1      -6.949   7.638  63.754  1.00  0.00    -0.060 A  
HETATM   26  F   UNL     1      -6.382   8.549  62.948  1.00  0.00    -0.084 F  
HETATM   27  C   UNL     1      -7.004   6.309  63.326  1.00  0.00    -0.046 A  
HETATM   28  C   UNL     1      -7.610   5.361  64.142  1.00  0.00    -0.076 A  
HETATM   29 BR   UNL     1      -7.728   3.560  63.582  1.00  0.00    -0.076 Br 
HETATM   30  C   UNL     1      -8.168   5.735  65.365  1.00  0.00    -0.138 A  
HETATM   31  C   UNL     1      -8.103   7.069  65.781  1.00  0.00    -0.123 A  
ENDBRANCH  22  24
ENDBRANCH   5  22
ENDBRANCH   2   3
TORSDOF 6
ENDMDL
MODEL      125
REMARK 921   NORMALIZED FREE ENERGY PREDICTED BY IDOCK:   -4.65 KCAL/MOL
REMARK 922        TOTAL FREE ENERGY PREDICTED BY IDOCK:   -7.33 KCAL/MOL
REMARK 923 INTER-LIGAND FREE ENERGY PREDICTED BY IDOCK:   -6.77 KCAL/MOL
REMARK 924 INTRA-LIGAND FREE ENERGY PREDICTED BY IDOCK:   -0.56 KCAL/MOL
REMARK 927      BINDING AFFINITY PREDICTED BY RF-SCORE:    0.00 PKD
ROOT
HETATM    1  C   UNL     1      -9.121   9.400  70.525  1.00  0.00    -0.256 C  
HETATM    2  O   UNL     1     -10.255   9.955  69.854  1.00  0.00    -0.228 OA 
ENDROOT
BRANCH   2   3
HETATM    3  C   UNL     1     -10.200  10.035  68.487  1.00  0.00    -0.175 A  
HETATM    4  C   UNL     1     -11.060  10.908  67.807  1.00  0.00    -0.309 A  
HETATM    5  C   UNL     1      -8.275   8.731  65.504  1.00  0.00    -0.132 A  
HETATM    6  C   UNL     1     -10.992  10.988  66.405  1.00  0.00    -0.202 A  
HETATM    7  N   UNL     1      -8.205   8.930  64.177  1.00  0.00    -0.161 NA 
HETATM    8  C   UNL     1     -10.069  10.275  65.651  1.00  0.00    -0.271 A  
HETATM    9  C   UNL     1      -9.282   9.293  67.726  1.00  0.00    -0.141 A  
HETATM   10  N   UNL     1     -10.027  10.459  64.326  1.00  0.00    -0.330 NA 
HETATM   11  C   UNL     1      -9.207   9.403  66.315  1.00  0.00    -0.229 A  
HETATM   12  C   UNL     1      -9.087   9.788  63.655  1.00  0.00    -0.232 A  
BRANCH   4  13
HETATM   13  O   UNL     1     -12.056  11.710  68.309  1.00  0.00    -0.552 OA 
BRANCH  13  14
HETATM   14  C   UNL     1     -11.716  12.680  69.295  1.00  0.00    -0.322 C  
BRANCH  14  15
HETATM   15  C   UNL     1     -12.148  14.090  68.813  1.00  0.00    -0.338 C  
HETATM   16  N   UNL     1      -9.984  15.843  67.698  1.00  0.00    -0.235 NA 
HETATM   17  C   UNL     1     -12.006  14.358  67.297  1.00  0.00    -0.409 C  
HETATM   18  C   UNL     1     -10.532  17.188  67.530  1.00  0.00    -0.348 C  
HETATM   19  C   UNL     1     -10.623  14.843  66.839  1.00  0.00    -0.300 C  
HETATM   20  C   UNL     1     -11.419  15.171  69.621  1.00  0.00    -0.314 C  
HETATM   21  C   UNL     1     -10.003  15.409  69.097  1.00  0.00    -0.241 C  
ENDBRANCH  14  15
ENDBRANCH  13  14
ENDBRANCH   4  13
BRANCH   5  22
HETATM   22  N   UNL     1      -7.398   7.787  66.095  1.00  0.00    -0.077 NA 
HETATM   23  H   UNL     1      -6.404   7.883  65.886  1.00  0.00     0.000 HD 
BRANCH  22  24
HETATM   24  C   UNL     1      -7.776   6.725  66.949  1.00  0.00    -0.103 A  
HETATM   25  C   UNL     1      -8.800   5.844  66.573  1.00  0.00    -0.128 A  
HETATM   26  F   UNL     1      -9.358   5.956  65.358  1.00  0.00    -0.101 F  
HETATM   27  C   UNL     1      -9.265   4.844  67.433  1.00  0.00    -0.136 A  
HETATM   28  C   UNL     1      -8.710   4.733  68.702  1.00  0.00    -0.097 A  
HETATM   29 BR   UNL     1      -9.335   3.412  69.901  1.00  0.00    -0.230 Br 
HETATM   30  C   UNL     1      -7.713   5.617  69.117  1.00  0.00    -0.088 A  
HETATM   31  C   UNL     1      -7.256   6.610  68.244  1.00  0.00    -0.085 A  
ENDBRANCH  22  24
ENDBRANCH   5  22
ENDBRANCH   2   3
TORSDOF 6
ENDMDL
MODEL      126
REMARK 921   NORMALIZED FREE ENERGY PREDICTED BY IDOCK:   -4.65 KCAL/MOL
REMARK 922        TOTAL FREE ENERGY PREDICTED BY IDOCK:   -7.32 KCAL/MOL
REMARK 923 INTER-LIGAND FREE ENERGY PREDICTED BY IDOCK:   -6.60 KCAL/MOL
REMARK 924 INTRA-LIGAND FREE ENERGY PREDICTED BY IDOCK:   -0.72 KCAL/MOL
REMARK 927      BINDING AFFINITY PREDICTED BY RF-SCORE:    0.00 PKD
ROOT
HETATM    1  C   UNL     1      -7.035  10.154  70.028  1.00  0.00    -0.145 C  
HETATM    2  O   UNL     1      -7.319  10.020  68.634  1.00  0.00    -0.078 OA 
ENDROOT
BRANCH   2   3
HETATM    3  C   UNL     1      -7.620   8.765  68.171  1.00  0.00    -0.097 A  
HETATM    4  C   UNL     1      -7.370   8.441  66.830  1.00  0.00    -0.083 A  
HETATM    5  C   UNL     1      -8.896   5.396  69.319  1.00  0.00    -0.101 A  
HETATM    6  C   UNL     1      -7.675   7.150  66.367  1.00  0.00    -0.100 A  
HETATM    7  N   UNL     1      -9.073   4.158  68.827  1.00  0.00    -0.122 NA 
HETATM    8  C   UNL     1      -8.170   6.148  67.190  1.00  0.00    -0.106 A  
HETATM    9  C   UNL     1      -8.144   7.763  69.001  1.00  0.00    -0.125 A  
HETATM   10  N   UNL     1      -8.371   4.926  66.683  1.00  0.00    -0.107 NA 
HETATM   11  C   UNL     1      -8.423   6.457  68.526  1.00  0.00    -0.119 A  
HETATM   12  C   UNL     1      -8.800   3.986  67.531  1.00  0.00    -0.115 A  
BRANCH   4  13
HETATM   13  O   UNL     1      -6.896   9.240  65.819  1.00  0.00    -0.081 OA 
BRANCH  13  14
HETATM   14  C   UNL     1      -7.579  10.459  65.537  1.00  0.00    -0.144 C  
BRANCH  14  15
HETATM   15  C   UNL     1      -9.053  10.155  65.158  1.00  0.00    -0.242 C  
HETATM   16  N   UNL     1     -10.573  12.372  63.825  1.00  0.00    -0.433 NA 
HETATM   17  C   UNL     1      -9.372  10.140  63.646  1.00  0.00    -0.336 C  
HETATM   18  C   UNL     1     -11.982  11.986  63.770  1.00  0.00    -0.490 C  
HETATM   19  C   UNL     1      -9.701  11.505  63.026  1.00  0.00    -0.359 C  
HETATM   20  C   UNL     1      -9.996  11.114  65.897  1.00  0.00    -0.285 C  
HETATM   21  C   UNL     1     -10.080  12.472  65.200  1.00  0.00    -0.246 C  
ENDBRANCH  14  15
ENDBRANCH  13  14
ENDBRANCH   4  13
BRANCH   5  22
HETATM   22  N   UNL     1      -9.227   5.640  70.676  1.00  0.00    -0.149 NA 
HETATM   23  H   UNL     1      -8.634   5.207  71.383  1.00  0.00     0.000 HD 
BRANCH  22  24
HETATM   24  C   UNL     1     -10.306   6.430  71.136  1.00  0.00    -0.205 A  
HETATM   25  C   UNL     1     -11.487   6.523  70.386  1.00  0.00    -0.404 A  
HETATM   26  F   UNL     1     -11.625   5.787  69.273  1.00  0.00    -0.334 F  
HETATM   27  C   UNL     1     -12.534   7.370  70.762  1.00  0.00    -0.130 A  
HETATM   28  C   UNL     1     -12.392   8.154  71.900  1.00  0.00    -0.332 A  
HETATM   29 BR   UNL     1     -13.777   9.332  72.420  1.00  0.00    -0.462 Br 
HETATM   30  C   UNL     1     -11.216   8.108  72.648  1.00  0.00    -0.447 A  
HETATM   31  C   UNL     1     -10.178   7.254  72.262  1.00  0.00    -0.225 A  
ENDBRANCH  22  24
ENDBRANCH   5  22
ENDBRANCH   2   3
TORSDOF 6
ENDMDL
MODEL      127
REMARK 921   NORMALIZED FREE ENERGY PREDICTED BY IDOCK:   -4.63 KCAL/MOL
REMARK 922        TOTAL FREE ENERGY PREDICTED BY IDOCK:   -7.30 KCAL/MOL
REMARK 923 INTER-LIGAND FREE ENERGY PREDICTED BY IDOCK:   -6.61 KCAL/MOL
REMARK 924 INTRA-LIGAND FREE ENERGY PREDICTED BY IDOCK:   -0.69 KCAL/MOL
REMARK 927      BINDING AFFINITY PREDICTED BY RF-SCORE:    0.00 PKD
ROOT
HETATM    1  C   UNL     1     -10.732  15.948  70.308  1.00  0.00    -0.304 C  
HETATM    2  O   UNL     1     -10.027  16.260  69.105  1.00  0.00    -0.235 OA 
ENDROOT
BRANCH   2   3
HETATM    3  C   UNL     1      -8.931  15.494  68.800  1.00  0.00    -0.204 A  
HETATM    4  C   UNL     1      -7.648  16.051  68.890  1.00  0.00    -0.192 A  
HETATM    5  C   UNL     1      -7.936  11.979  67.823  1.00  0.00    -0.147 A  
HETATM    6  C   UNL     1      -6.531  15.255  68.582  1.00  0.00    -0.094 A  
HETATM    7  N   UNL     1      -6.818  11.258  67.636  1.00  0.00    -0.074 NA 
HETATM    8  C   UNL     1      -6.629  13.914  68.238  1.00  0.00    -0.110 A  
HETATM    9  C   UNL     1      -9.037  14.145  68.428  1.00  0.00    -0.191 A  
HETATM   10  N   UNL     1      -5.510  13.211  68.025  1.00  0.00    -0.098 NA 
HETATM   11  C   UNL     1      -7.900  13.348  68.146  1.00  0.00    -0.145 A  
HETATM   12  C   UNL     1      -5.659  11.912  67.748  1.00  0.00    -0.063 A  
BRANCH   4  13
HETATM   13  O   UNL     1      -7.280  17.338  69.198  1.00  0.00    -0.242 OA 
BRANCH  13  14
HETATM   14  C   UNL     1      -7.839  18.405  68.436  1.00  0.00    -0.306 C  
BRANCH  14  15
HETATM   15  C   UNL     1      -6.700  19.260  67.821  1.00  0.00    -0.246 C  
HETATM   16  N   UNL     1      -6.478  19.236  64.829  1.00  0.00    -0.451 NA 
HETATM   17  C   UNL     1      -7.148  20.458  66.953  1.00  0.00    -0.328 C  
HETATM   18  C   UNL     1      -5.222  19.890  64.463  1.00  0.00    -0.161 C  
HETATM   19  C   UNL     1      -7.434  20.137  65.480  1.00  0.00    -0.164 C  
HETATM   20  C   UNL     1      -5.730  18.364  67.040  1.00  0.00    -0.161 C  
HETATM   21  C   UNL     1      -6.261  18.039  65.644  1.00  0.00    -0.217 C  
ENDBRANCH  14  15
ENDBRANCH  13  14
ENDBRANCH   4  13
BRANCH   5  22
HETATM   22  N   UNL     1      -9.191  11.341  67.658  1.00  0.00    -0.154 NA 
HETATM   23  H   UNL     1      -9.453  11.071  66.710  1.00  0.00     0.000 HD 
BRANCH  22  24
HETATM   24  C   UNL     1     -10.112  11.044  68.690  1.00  0.00    -0.197 A  
HETATM   25  C   UNL     1      -9.705  10.311  69.814  1.00  0.00    -0.144 A  
HETATM   26  F   UNL     1      -8.414   9.968  69.950  1.00  0.00    -0.167 F  
HETATM   27  C   UNL     1     -10.609   9.917  70.804  1.00  0.00    -0.309 A  
HETATM   28  C   UNL     1     -11.951  10.246  70.662  1.00  0.00    -0.342 A  
HETATM   29 BR   UNL     1     -13.206   9.704  71.969  1.00  0.00    -0.553 Br 
HETATM   30  C   UNL     1     -12.392  10.947  69.539  1.00  0.00    -0.241 A  
HETATM   31  C   UNL     1     -11.475  11.336  68.558  1.00  0.00    -0.372 A  
ENDBRANCH  22  24
ENDBRANCH   5  22
ENDBRANCH   2   3
TORSDOF 6
ENDMDL
MODEL      128
REMARK 921   NORMALIZED FREE ENERGY PREDICTED BY IDOCK:   -4.62 KCAL/MOL
REMARK 922        TOTAL FREE ENERGY PREDICTED BY IDOCK:   -7.29 KCAL/MOL
REMARK 923 INTER-LIGAND FREE ENERGY PREDICTED BY IDOCK:   -6.74 KCAL/MOL
REMARK 924 INTRA-LIGAND FREE ENERGY PREDICTED BY IDOCK:   -0.54 KCAL/MOL
REMARK 927      BINDING AFFINITY PREDICTED BY RF-SCORE:    0.00 PKD
ROOT
HETATM    1  C   UNL     1      -9.487   9.518  69.933  1.00  0.00    -0.222 C  
HETATM    2  O   UNL     1     -10.735   9.586  69.240  1.00  0.00    -0.225 OA 
ENDROOT
BRANCH   2   3
HETATM    3  C   UNL     1     -10.767  10.301  68.071  1.00  0.00    -0.255 A  
HETATM    4  C   UNL     1     -10.858   9.625  66.846  1.00  0.00    -0.036 A  
HETATM    5  C   UNL     1     -10.854  13.843  66.750  1.00  0.00    -0.286 A  
HETATM    6  C   UNL     1     -10.897  10.368  65.653  1.00  0.00     0.141 A  
HETATM    7  N   UNL     1     -10.991  14.484  65.577  1.00  0.00    -0.319 NA 
HETATM    8  C   UNL     1     -10.903  11.755  65.626  1.00  0.00    -0.292 A  
HETATM    9  C   UNL     1     -10.747  11.704  68.047  1.00  0.00    -0.246 A  
HETATM   10  N   UNL     1     -11.010  12.385  64.450  1.00  0.00    -0.312 NA 
HETATM   11  C   UNL     1     -10.814  12.440  66.837  1.00  0.00    -0.286 A  
HETATM   12  C   UNL     1     -11.063  13.720  64.484  1.00  0.00    -0.380 A  
BRANCH   4  13
HETATM   13  O   UNL     1     -10.862   8.274  66.599  1.00  0.00    -0.094 OA 
BRANCH  13  14
HETATM   14  C   UNL     1      -9.929   7.452  67.297  1.00  0.00    -0.198 C  
BRANCH  14  15
HETATM   15  C   UNL     1     -10.554   6.055  67.554  1.00  0.00    -0.345 C  
HETATM   16  N   UNL     1      -8.640   3.828  68.166  1.00  0.00    -0.093 NA 
HETATM   17  C   UNL     1     -10.379   5.490  68.981  1.00  0.00    -0.304 C  
HETATM   18  C   UNL     1      -9.384   2.570  68.135  1.00  0.00    -0.207 C  
HETATM   19  C   UNL     1      -9.069   4.732  69.237  1.00  0.00    -0.105 C  
HETATM   20  C   UNL     1     -10.047   5.050  66.512  1.00  0.00    -0.278 C  
HETATM   21  C   UNL     1      -8.662   4.515  66.872  1.00  0.00    -0.111 C  
ENDBRANCH  14  15
ENDBRANCH  13  14
ENDBRANCH   4  13
BRANCH   5  22
HETATM   22  N   UNL     1     -10.717  14.614  67.932  1.00  0.00    -0.247 NA 
HETATM   23  H   UNL     1     -11.259  14.319  68.743  1.00  0.00     0.000 HD 
BRANCH  22  24
HETATM   24  C   UNL     1      -9.894  15.755  68.086  1.00  0.00    -0.209 A  
HETATM   25  C   UNL     1      -8.520  15.611  68.323  1.00  0.00    -0.156 A  
HETATM   26  F   UNL     1      -7.970  14.387  68.314  1.00  0.00    -0.114 F  
HETATM   27  C   UNL     1      -7.697  16.712  68.576  1.00  0.00    -0.215 A  
HETATM   28  C   UNL     1      -8.259  17.982  68.611  1.00  0.00    -0.278 A  
HETATM   29 BR   UNL     1      -7.180  19.490  68.980  1.00  0.00    -0.371 Br 
HETATM   30  C   UNL     1      -9.629  18.153  68.411  1.00  0.00    -0.345 A  
HETATM   31  C   UNL     1     -10.440  17.043  68.156  1.00  0.00    -0.357 A  
ENDBRANCH  22  24
ENDBRANCH   5  22
ENDBRANCH   2   3
TORSDOF 6
ENDMDL
MODEL      129
REMARK 921   NORMALIZED FREE ENERGY PREDICTED BY IDOCK:   -4.62 KCAL/MOL
REMARK 922        TOTAL FREE ENERGY PREDICTED BY IDOCK:   -7.29 KCAL/MOL
REMARK 923 INTER-LIGAND FREE ENERGY PREDICTED BY IDOCK:   -6.39 KCAL/MOL
REMARK 924 INTRA-LIGAND FREE ENERGY PREDICTED BY IDOCK:   -0.89 KCAL/MOL
REMARK 927      BINDING AFFINITY PREDICTED BY RF-SCORE:    0.00 PKD
ROOT
HETATM    1  C   UNL     1     -10.766  11.290  63.511  1.00  0.00    -0.335 C  
HETATM    2  O   UNL     1     -10.530  10.534  64.701  1.00  0.00    -0.311 OA 
ENDROOT
BRANCH   2   3
HETATM    3  C   UNL     1      -9.585  11.010  65.572  1.00  0.00    -0.222 A  
HETATM    4  C   UNL     1      -8.331  10.388  65.644  1.00  0.00    -0.163 A  
HETATM    5  C   UNL     1      -8.960  13.793  68.055  1.00  0.00    -0.187 A  
HETATM    6  C   UNL     1      -7.366  10.889  66.536  1.00  0.00    -0.142 A  
HETATM    7  N   UNL     1      -7.957  14.269  68.812  1.00  0.00    -0.138 NA 
HETATM    8  C   UNL     1      -7.574  12.013  67.322  1.00  0.00    -0.157 A  
HETATM    9  C   UNL     1      -9.808  12.133  66.383  1.00  0.00    -0.242 A  
HETATM   10  N   UNL     1      -6.578  12.463  68.095  1.00  0.00    -0.066 NA 
HETATM   11  C   UNL     1      -8.817  12.642  67.259  1.00  0.00    -0.196 A  
HETATM   12  C   UNL     1      -6.814  13.578  68.793  1.00  0.00    -0.108 A  
BRANCH   4  13
HETATM   13  O   UNL     1      -7.877   9.270  64.987  1.00  0.00    -0.105 OA 
BRANCH  13  14
HETATM   14  C   UNL     1      -8.469   8.012  65.299  1.00  0.00    -0.117 C  
BRANCH  14  15
HETATM   15  C   UNL     1      -7.464   6.871  64.990  1.00  0.00    -0.096 C  
HETATM   16  N   UNL     1      -8.545   4.074  65.093  1.00  0.00    -0.113 NA 
HETATM   17  C   UNL     1      -7.746   6.051  63.711  1.00  0.00    -0.101 C  
HETATM   18  C   UNL     1      -7.415   3.149  65.016  1.00  0.00    -0.072 C  
HETATM   19  C   UNL     1      -8.722   4.878  63.879  1.00  0.00    -0.111 C  
HETATM   20  C   UNL     1      -7.329   5.944  66.204  1.00  0.00    -0.081 C  
HETATM   21  C   UNL     1      -8.476   4.935  66.275  1.00  0.00    -0.111 C  
ENDBRANCH  14  15
ENDBRANCH  13  14
ENDBRANCH   4  13
BRANCH   5  22
HETATM   22  N   UNL     1     -10.210  14.461  68.087  1.00  0.00    -0.228 NA 
HETATM   23  H   UNL     1     -10.592  14.774  67.196  1.00  0.00     0.000 HD 
BRANCH  22  24
HETATM   24  C   UNL     1     -10.975  14.731  69.246  1.00  0.00    -0.261 A  
HETATM   25  C   UNL     1     -10.931  15.997  69.845  1.00  0.00    -0.353 A  
HETATM   26  F   UNL     1     -10.229  16.982  69.264  1.00  0.00    -0.268 F  
HETATM   27  C   UNL     1     -11.597  16.269  71.044  1.00  0.00    -0.343 A  
HETATM   28  C   UNL     1     -12.308  15.251  71.667  1.00  0.00    -0.363 A  
HETATM   29 BR   UNL     1     -13.197  15.577  73.304  1.00  0.00    -0.616 Br 
HETATM   30  C   UNL     1     -12.344  13.972  71.112  1.00  0.00    -0.443 A  
HETATM   31  C   UNL     1     -11.675  13.716  69.911  1.00  0.00    -0.346 A  
ENDBRANCH  22  24
ENDBRANCH   5  22
ENDBRANCH   2   3
TORSDOF 6
ENDMDL
MODEL      130
REMARK 921   NORMALIZED FREE ENERGY PREDICTED BY IDOCK:   -4.62 KCAL/MOL
REMARK 922        TOTAL FREE ENERGY PREDICTED BY IDOCK:   -7.28 KCAL/MOL
REMARK 923 INTER-LIGAND FREE ENERGY PREDICTED BY IDOCK:   -6.47 KCAL/MOL
REMARK 924 INTRA-LIGAND FREE ENERGY PREDICTED BY IDOCK:   -0.82 KCAL/MOL
REMARK 927      BINDING AFFINITY PREDICTED BY RF-SCORE:    0.00 PKD
ROOT
HETATM    1  C   UNL     1      -8.160   9.775  69.713  1.00  0.00    -0.167 C  
HETATM    2  O   UNL     1      -9.305   9.313  68.992  1.00  0.00    -0.148 OA 
ENDROOT
BRANCH   2   3
HETATM    3  C   UNL     1      -9.387   9.641  67.664  1.00  0.00    -0.126 A  
HETATM    4  C   UNL     1      -9.110   8.671  66.691  1.00  0.00    -0.165 A  
HETATM    5  C   UNL     1     -10.327  12.483  65.353  1.00  0.00    -0.282 A  
HETATM    6  C   UNL     1      -9.204   9.016  65.331  1.00  0.00    -0.241 A  
HETATM    7  N   UNL     1     -10.485  12.710  64.038  1.00  0.00    -0.409 NA 
HETATM    8  C   UNL     1      -9.611  10.269  64.895  1.00  0.00    -0.304 A  
HETATM    9  C   UNL     1      -9.775  10.917  67.227  1.00  0.00    -0.189 A  
HETATM   10  N   UNL     1      -9.738  10.494  63.582  1.00  0.00    -0.311 NA 
HETATM   11  C   UNL     1      -9.890  11.243  65.853  1.00  0.00    -0.272 A  
HETATM   12  C   UNL     1     -10.183  11.700  63.217  1.00  0.00    -0.407 A  
BRANCH   4  13
HETATM   13  O   UNL     1      -8.686   7.375  66.854  1.00  0.00    -0.119 OA 
BRANCH  13  14
HETATM   14  C   UNL     1      -7.288   7.106  66.802  1.00  0.00    -0.084 C  
BRANCH  14  15
HETATM   15  C   UNL     1      -7.054   5.576  66.693  1.00  0.00    -0.069 C  
HETATM   16  N   UNL     1      -9.426   3.820  67.231  1.00  0.00    -0.198 NA 
HETATM   17  C   UNL     1      -7.818   4.855  65.559  1.00  0.00    -0.095 C  
HETATM   18  C   UNL     1      -8.957   2.438  67.319  1.00  0.00    -0.150 C  
HETATM   19  C   UNL     1      -9.247   4.412  65.903  1.00  0.00    -0.140 C  
HETATM   20  C   UNL     1      -7.333   4.902  68.043  1.00  0.00    -0.070 C  
HETATM   21  C   UNL     1      -8.829   4.673  68.261  1.00  0.00    -0.105 C  
ENDBRANCH  14  15
ENDBRANCH  13  14
ENDBRANCH   4  13
BRANCH   5  22
HETATM   22  N   UNL     1     -10.581  13.544  66.259  1.00  0.00    -0.285 NA 
HETATM   23  H   UNL     1     -11.270  13.373  66.991  1.00  0.00     0.000 HD 
BRANCH  22  24
HETATM   24  C   UNL     1      -9.963  14.816  66.240  1.00  0.00    -0.291 A  
HETATM   25  C   UNL     1      -8.682  14.990  66.783  1.00  0.00    -0.260 A  
HETATM   26  F   UNL     1      -8.005  13.925  67.240  1.00  0.00    -0.163 F  
HETATM   27  C   UNL     1      -8.083  16.250  66.868  1.00  0.00    -0.270 A  
HETATM   28  C   UNL     1      -8.784  17.363  66.419  1.00  0.00    -0.242 A  
HETATM   29 BR   UNL     1      -8.015  19.085  66.546  1.00  0.00    -0.310 Br 
HETATM   30  C   UNL     1     -10.073  17.225  65.904  1.00  0.00    -0.226 A  
HETATM   31  C   UNL     1     -10.658  15.958  65.823  1.00  0.00    -0.368 A  
ENDBRANCH  22  24
ENDBRANCH   5  22
ENDBRANCH   2   3
TORSDOF 6
ENDMDL
MODEL      131
REMARK 921   NORMALIZED FREE ENERGY PREDICTED BY IDOCK:   -4.61 KCAL/MOL
REMARK 922        TOTAL FREE ENERGY PREDICTED BY IDOCK:   -7.28 KCAL/MOL
REMARK 923 INTER-LIGAND FREE ENERGY PREDICTED BY IDOCK:   -6.89 KCAL/MOL
REMARK 924 INTRA-LIGAND FREE ENERGY PREDICTED BY IDOCK:   -0.38 KCAL/MOL
REMARK 927      BINDING AFFINITY PREDICTED BY RF-SCORE:    0.00 PKD
ROOT
HETATM    1  C   UNL     1     -12.044  12.654  65.388  1.00  0.00    -0.462 C  
HETATM    2  O   UNL     1     -12.147  11.873  66.581  1.00  0.00    -0.587 OA 
ENDROOT
BRANCH   2   3
HETATM    3  C   UNL     1     -10.984  11.575  67.241  1.00  0.00    -0.271 A  
HETATM    4  C   UNL     1     -10.034  12.582  67.463  1.00  0.00    -0.201 A  
HETATM    5  C   UNL     1      -9.215   8.752  69.031  1.00  0.00    -0.141 A  
HETATM    6  C   UNL     1      -8.847  12.269  68.147  1.00  0.00    -0.187 A  
HETATM    7  N   UNL     1      -8.102   8.552  69.756  1.00  0.00    -0.113 NA 
HETATM    8  C   UNL     1      -8.584  11.010  68.668  1.00  0.00    -0.157 A  
HETATM    9  C   UNL     1     -10.711  10.294  67.744  1.00  0.00    -0.324 A  
HETATM   10  N   UNL     1      -7.458  10.813  69.364  1.00  0.00    -0.134 NA 
HETATM   11  C   UNL     1      -9.521   9.999  68.455  1.00  0.00    -0.146 A  
HETATM   12  C   UNL     1      -7.279   9.596  69.887  1.00  0.00    -0.106 A  
BRANCH   4  13
HETATM   13  O   UNL     1     -10.047  13.893  67.051  1.00  0.00    -0.249 OA 
BRANCH  13  14
HETATM   14  C   UNL     1      -8.896  14.695  67.298  1.00  0.00    -0.207 C  
BRANCH  14  15
HETATM   15  C   UNL     1      -9.237  15.793  68.340  1.00  0.00    -0.192 C  
HETATM   16  N   UNL     1      -9.236  18.624  67.346  1.00  0.00    -0.277 NA 
HETATM   17  C   UNL     1     -10.545  16.577  68.090  1.00  0.00    -0.329 C  
HETATM   18  C   UNL     1      -9.338  19.510  68.505  1.00  0.00    -0.373 C  
HETATM   19  C   UNL     1     -10.423  17.785  67.151  1.00  0.00    -0.335 C  
HETATM   20  C   UNL     1      -8.054  16.757  68.498  1.00  0.00    -0.241 C  
HETATM   21  C   UNL     1      -8.025  17.802  67.383  1.00  0.00    -0.211 C  
ENDBRANCH  14  15
ENDBRANCH  13  14
ENDBRANCH   4  13
BRANCH   5  22
HETATM   22  N   UNL     1     -10.091   7.658  68.817  1.00  0.00    -0.189 NA 
HETATM   23  H   UNL     1     -11.042   7.750  69.171  1.00  0.00     0.000 HD 
BRANCH  22  24
HETATM   24  C   UNL     1      -9.762   6.451  68.156  1.00  0.00    -0.122 A  
HETATM   25  C   UNL     1     -10.515   6.019  67.055  1.00  0.00    -0.270 A  
HETATM   26  F   UNL     1     -11.494   6.800  66.573  1.00  0.00    -0.290 F  
HETATM   27  C   UNL     1     -10.280   4.786  66.440  1.00  0.00    -0.308 A  
HETATM   28  C   UNL     1      -9.284   3.958  66.945  1.00  0.00    -0.174 A  
HETATM   29 BR   UNL     1      -8.959   2.272  66.155  1.00  0.00    -0.078 Br 
HETATM   30  C   UNL     1      -8.540   4.347  68.059  1.00  0.00    -0.111 A  
HETATM   31  C   UNL     1      -8.785   5.585  68.662  1.00  0.00    -0.108 A  
ENDBRANCH  22  24
ENDBRANCH   5  22
ENDBRANCH   2   3
TORSDOF 6
ENDMDL
MODEL      132
REMARK 921   NORMALIZED FREE ENERGY PREDICTED BY IDOCK:   -4.60 KCAL/MOL
REMARK 922        TOTAL FREE ENERGY PREDICTED BY IDOCK:   -7.26 KCAL/MOL
REMARK 923 INTER-LIGAND FREE ENERGY PREDICTED BY IDOCK:   -6.26 KCAL/MOL
REMARK 924 INTRA-LIGAND FREE ENERGY PREDICTED BY IDOCK:   -1.00 KCAL/MOL
REMARK 927      BINDING AFFINITY PREDICTED BY RF-SCORE:    0.00 PKD
ROOT
HETATM    1  C   UNL     1     -12.243  10.942  69.384  1.00  0.00    -0.222 C  
HETATM    2  O   UNL     1     -11.833  11.225  68.044  1.00  0.00    -0.578 OA 
ENDROOT
BRANCH   2   3
HETATM    3  C   UNL     1     -10.511  11.034  67.737  1.00  0.00    -0.199 A  
HETATM    4  C   UNL     1      -9.691  12.142  67.479  1.00  0.00    -0.185 A  
HETATM    5  C   UNL     1      -7.890   8.327  67.419  1.00  0.00    -0.106 A  
HETATM    6  C   UNL     1      -8.335  11.936  67.171  1.00  0.00    -0.174 A  
HETATM    7  N   UNL     1      -6.568   8.217  67.210  1.00  0.00    -0.057 NA 
HETATM    8  C   UNL     1      -7.744  10.680  67.159  1.00  0.00    -0.110 A  
HETATM    9  C   UNL     1      -9.924   9.760  67.701  1.00  0.00    -0.217 A  
HETATM   10  N   UNL     1      -6.431  10.578  66.922  1.00  0.00    -0.075 NA 
HETATM   11  C   UNL     1      -8.549   9.570  67.415  1.00  0.00    -0.125 A  
HETATM   12  C   UNL     1      -5.904   9.352  66.973  1.00  0.00    -0.052 A  
BRANCH   4  13
HETATM   13  O   UNL     1     -10.024  13.473  67.421  1.00  0.00    -0.228 OA 
BRANCH  13  14
HETATM   14  C   UNL     1      -8.976  14.433  67.319  1.00  0.00    -0.212 C  
BRANCH  14  15
HETATM   15  C   UNL     1      -9.391  15.557  66.334  1.00  0.00    -0.330 C  
HETATM   16  N   UNL     1     -10.011  18.231  67.544  1.00  0.00    -0.321 NA 
HETATM   17  C   UNL     1      -8.419  16.754  66.227  1.00  0.00    -0.342 C  
HETATM   18  C   UNL     1     -10.606  19.071  66.506  1.00  0.00    -0.410 C  
HETATM   19  C   UNL     1      -8.619  17.864  67.268  1.00  0.00    -0.237 C  
HETATM   20  C   UNL     1     -10.810  16.044  66.656  1.00  0.00    -0.179 C  
HETATM   21  C   UNL     1     -10.815  17.038  67.818  1.00  0.00    -0.269 C  
ENDBRANCH  14  15
ENDBRANCH  13  14
ENDBRANCH   4  13
BRANCH   5  22
HETATM   22  N   UNL     1      -8.646   7.144  67.619  1.00  0.00    -0.122 NA 
HETATM   23  H   UNL     1      -8.875   6.898  68.581  1.00  0.00     0.000 HD 
BRANCH  22  24
HETATM   24  C   UNL     1      -9.111   6.277  66.603  1.00  0.00    -0.144 A  
HETATM   25  C   UNL     1     -10.436   5.819  66.614  1.00  0.00    -0.268 A  
HETATM   26  F   UNL     1     -11.289   6.279  67.542  1.00  0.00    -0.398 F  
HETATM   27  C   UNL     1     -10.901   4.886  65.682  1.00  0.00    -0.079 A  
HETATM   28  C   UNL     1     -10.021   4.385  64.731  1.00  0.00    -0.091 A  
HETATM   29 BR   UNL     1     -10.609   3.100  63.475  1.00  0.00    -0.247 Br 
HETATM   30  C   UNL     1      -8.688   4.797  64.716  1.00  0.00    -0.153 A  
HETATM   31  C   UNL     1      -8.238   5.733  65.652  1.00  0.00    -0.128 A  
ENDBRANCH  22  24
ENDBRANCH   5  22
ENDBRANCH   2   3
TORSDOF 6
ENDMDL
MODEL      133
REMARK 921   NORMALIZED FREE ENERGY PREDICTED BY IDOCK:   -4.60 KCAL/MOL
REMARK 922        TOTAL FREE ENERGY PREDICTED BY IDOCK:   -7.26 KCAL/MOL
REMARK 923 INTER-LIGAND FREE ENERGY PREDICTED BY IDOCK:   -6.39 KCAL/MOL
REMARK 924 INTRA-LIGAND FREE ENERGY PREDICTED BY IDOCK:   -0.87 KCAL/MOL
REMARK 927      BINDING AFFINITY PREDICTED BY RF-SCORE:    0.00 PKD
ROOT
HETATM    1  C   UNL     1     -10.558   8.993  69.370  1.00  0.00    -0.221 C  
HETATM    2  O   UNL     1     -10.301   7.977  68.398  1.00  0.00    -0.204 OA 
ENDROOT
BRANCH   2   3
HETATM    3  C   UNL     1      -9.779   8.374  67.195  1.00  0.00    -0.190 A  
HETATM    4  C   UNL     1      -8.813   7.580  66.562  1.00  0.00    -0.148 A  
HETATM    5  C   UNL     1     -10.099  11.059  64.552  1.00  0.00    -0.321 A  
HETATM    6  C   UNL     1      -8.288   7.992  65.324  1.00  0.00    -0.151 A  
HETATM    7  N   UNL     1      -9.620  11.338  63.328  1.00  0.00    -0.328 NA 
HETATM    8  C   UNL     1      -8.718   9.133  64.663  1.00  0.00    -0.166 A  
HETATM    9  C   UNL     1     -10.199   9.542  66.542  1.00  0.00    -0.307 A  
HETATM   10  N   UNL     1      -8.215   9.419  63.456  1.00  0.00    -0.157 NA 
HETATM   11  C   UNL     1      -9.679   9.932  65.282  1.00  0.00    -0.383 A  
HETATM   12  C   UNL     1      -8.701  10.500  62.841  1.00  0.00    -0.216 A  
BRANCH   4  13
HETATM   13  O   UNL     1      -8.219   6.421  67.000  1.00  0.00    -0.111 OA 
BRANCH  13  14
HETATM   14  C   UNL     1      -8.797   5.175  66.621  1.00  0.00    -0.112 C  
BRANCH  14  15
HETATM   15  C   UNL     1      -8.459   4.870  65.138  1.00  0.00    -0.139 C  
HETATM   16  N   UNL     1      -8.361   1.975  64.358  1.00  0.00    -0.081 NA 
HETATM   17  C   UNL     1      -9.582   4.202  64.313  1.00  0.00    -0.155 C  
HETATM   18  C   UNL     1      -7.798   1.888  63.011  1.00  0.00    -0.056 C  
HETATM   19  C   UNL     1      -9.650   2.672  64.406  1.00  0.00    -0.134 C  
HETATM   20  C   UNL     1      -7.166   4.049  65.050  1.00  0.00    -0.067 C  
HETATM   21  C   UNL     1      -7.421   2.565  65.313  1.00  0.00    -0.074 C  
ENDBRANCH  14  15
ENDBRANCH  13  14
ENDBRANCH   4  13
BRANCH   5  22
HETATM   22  N   UNL     1     -11.035  11.951  65.134  1.00  0.00    -0.306 NA 
HETATM   23  H   UNL     1     -11.942  11.566  65.395  1.00  0.00     0.000 HD 
BRANCH  22  24
HETATM   24  C   UNL     1     -10.823  13.327  65.384  1.00  0.00    -0.291 A  
HETATM   25  C   UNL     1     -10.137  13.741  66.534  1.00  0.00    -0.286 A  
HETATM   26  F   UNL     1      -9.602  12.823  67.353  1.00  0.00    -0.186 F  
HETATM   27  C   UNL     1      -9.994  15.093  66.861  1.00  0.00    -0.243 A  
HETATM   28  C   UNL     1     -10.564  16.052  66.033  1.00  0.00    -0.316 A  
HETATM   29 BR   UNL     1     -10.416  17.887  66.462  1.00  0.00    -0.270 Br 
HETATM   30  C   UNL     1     -11.281  15.669  64.899  1.00  0.00    -0.376 A  
HETATM   31  C   UNL     1     -11.412  14.313  64.583  1.00  0.00    -0.389 A  
ENDBRANCH  22  24
ENDBRANCH   5  22
ENDBRANCH   2   3
TORSDOF 6
ENDMDL
MODEL      134
REMARK 921   NORMALIZED FREE ENERGY PREDICTED BY IDOCK:   -4.59 KCAL/MOL
REMARK 922        TOTAL FREE ENERGY PREDICTED BY IDOCK:   -7.25 KCAL/MOL
REMARK 923 INTER-LIGAND FREE ENERGY PREDICTED BY IDOCK:   -6.51 KCAL/MOL
REMARK 924 INTRA-LIGAND FREE ENERGY PREDICTED BY IDOCK:   -0.74 KCAL/MOL
REMARK 927      BINDING AFFINITY PREDICTED BY RF-SCORE:    0.00 PKD
ROOT
HETATM    1  C   UNL     1      -7.437   7.721  71.673  1.00  0.00    -0.075 C  
HETATM    2  O   UNL     1      -8.697   7.055  71.779  1.00  0.00    -0.123 OA 
ENDROOT
BRANCH   2   3
HETATM    3  C   UNL     1      -9.826   7.831  71.728  1.00  0.00    -0.167 A  
HETATM    4  C   UNL     1     -10.966   7.446  72.446  1.00  0.00    -0.275 A  
HETATM    5  C   UNL     1     -11.138  11.088  70.323  1.00  0.00    -0.003 A  
HETATM    6  C   UNL     1     -12.117   8.252  72.394  1.00  0.00    -0.430 A  
HETATM    7  N   UNL     1     -12.241  11.851  70.397  1.00  0.00    -0.338 NA 
HETATM    8  C   UNL     1     -12.168   9.453  71.700  1.00  0.00    -0.390 A  
HETATM    9  C   UNL     1      -9.881   9.032  71.005  1.00  0.00    -0.352 A  
HETATM   10  N   UNL     1     -13.281  10.193  71.756  1.00  0.00    -0.432 NA 
HETATM   11  C   UNL     1     -11.039   9.848  70.982  1.00  0.00    -0.401 A  
HETATM   12  C   UNL     1     -13.259  11.364  71.113  1.00  0.00     0.042 A  
BRANCH   4  13
HETATM   13  O   UNL     1     -11.178   6.315  73.197  1.00  0.00    -0.211 OA 
BRANCH  13  14
HETATM   14  C   UNL     1     -10.245   5.997  74.226  1.00  0.00    -0.302 C  
BRANCH  14  15
HETATM   15  C   UNL     1     -10.102   4.456  74.344  1.00  0.00    -0.247 C  
HETATM   16  N   UNL     1      -8.666   3.071  72.104  1.00  0.00    -0.077 NA 
HETATM   17  C   UNL     1      -8.660   3.922  74.498  1.00  0.00    -0.091 C  
HETATM   18  C   UNL     1      -8.845   1.630  72.274  1.00  0.00    -0.067 C  
HETATM   19  C   UNL     1      -7.897   3.693  73.186  1.00  0.00    -0.071 C  
HETATM   20  C   UNL     1     -10.808   3.769  73.168  1.00  0.00    -0.257 C  
HETATM   21  C   UNL     1      -9.939   3.768  71.911  1.00  0.00    -0.160 C  
ENDBRANCH  14  15
ENDBRANCH  13  14
ENDBRANCH   4  13
BRANCH   5  22
HETATM   22  N   UNL     1     -10.054  11.537  69.528  1.00  0.00    -0.325 NA 
HETATM   23  H   UNL     1      -9.282  11.994  70.013  1.00  0.00     0.000 HD 
BRANCH  22  24
HETATM   24  C   UNL     1      -9.947  11.408  68.124  1.00  0.00    -0.189 A  
HETATM   25  C   UNL     1      -9.261  12.374  67.374  1.00  0.00    -0.184 A  
HETATM   26  F   UNL     1      -8.628  13.376  68.003  1.00  0.00    -0.140 F  
HETATM   27  C   UNL     1      -9.219  12.330  65.977  1.00  0.00    -0.086 A  
HETATM   28  C   UNL     1      -9.890  11.310  65.313  1.00  0.00    -0.246 A  
HETATM   29 BR   UNL     1      -9.878  11.236  63.424  1.00  0.00    -0.457 Br 
HETATM   30  C   UNL     1     -10.608  10.353  66.031  1.00  0.00    -0.136 A  
HETATM   31  C   UNL     1     -10.639  10.409  67.428  1.00  0.00    -0.321 A  
ENDBRANCH  22  24
ENDBRANCH   5  22
ENDBRANCH   2   3
TORSDOF 6
ENDMDL
MODEL      135
REMARK 921   NORMALIZED FREE ENERGY PREDICTED BY IDOCK:   -4.57 KCAL/MOL
REMARK 922        TOTAL FREE ENERGY PREDICTED BY IDOCK:   -7.22 KCAL/MOL
REMARK 923 INTER-LIGAND FREE ENERGY PREDICTED BY IDOCK:   -6.55 KCAL/MOL
REMARK 924 INTRA-LIGAND FREE ENERGY PREDICTED BY IDOCK:   -0.67 KCAL/MOL
REMARK 927      BINDING AFFINITY PREDICTED BY RF-SCORE:    0.00 PKD
ROOT
HETATM    1  C   UNL     1      -7.304  10.693  66.713  1.00  0.00    -0.120 C  
HETATM    2  O   UNL     1      -7.084  10.196  68.035  1.00  0.00    -0.082 OA 
ENDROOT
BRANCH   2   3
HETATM    3  C   UNL     1      -8.174   9.722  68.719  1.00  0.00    -0.108 A  
HETATM    4  C   UNL     1      -8.248   8.362  69.048  1.00  0.00    -0.118 A  
HETATM    5  C   UNL     1     -11.377  10.862  70.374  1.00  0.00    -0.200 A  
HETATM    6  C   UNL     1      -9.367   7.886  69.755  1.00  0.00    -0.153 A  
HETATM    7  N   UNL     1     -12.365  10.352  71.127  1.00  0.00    -0.364 NA 
HETATM    8  C   UNL     1     -10.390   8.713  70.196  1.00  0.00    -0.207 A  
HETATM    9  C   UNL     1      -9.219  10.558  69.141  1.00  0.00    -0.183 A  
HETATM   10  N   UNL     1     -11.386   8.190  70.921  1.00  0.00    -0.267 NA 
HETATM   11  C   UNL     1     -10.328  10.068  69.876  1.00  0.00    -0.315 A  
HETATM   12  C   UNL     1     -12.319   9.038  71.364  1.00  0.00    -0.318 A  
BRANCH   4  13
HETATM   13  O   UNL     1      -7.384   7.343  68.729  1.00  0.00    -0.090 OA 
BRANCH  13  14
HETATM   14  C   UNL     1      -7.694   6.511  67.615  1.00  0.00    -0.106 C  
BRANCH  14  15
HETATM   15  C   UNL     1      -7.279   5.048  67.924  1.00  0.00    -0.067 C  
HETATM   16  N   UNL     1      -9.477   3.007  67.921  1.00  0.00    -0.198 NA 
HETATM   17  C   UNL     1      -7.461   4.037  66.769  1.00  0.00    -0.073 C  
HETATM   18  C   UNL     1      -8.938   1.760  68.462  1.00  0.00    -0.123 C  
HETATM   19  C   UNL     1      -8.856   3.408  66.655  1.00  0.00    -0.137 C  
HETATM   20  C   UNL     1      -7.991   4.553  69.189  1.00  0.00    -0.069 C  
HETATM   21  C   UNL     1      -9.421   4.101  68.892  1.00  0.00    -0.169 C  
ENDBRANCH  14  15
ENDBRANCH  13  14
ENDBRANCH   4  13
BRANCH   5  22
HETATM   22  N   UNL     1     -11.415  12.242  70.049  1.00  0.00    -0.528 NA 
HETATM   23  H   UNL     1     -11.449  12.901  70.826  1.00  0.00     0.000 HD 
BRANCH  22  24
HETATM   24  C   UNL     1     -11.410  12.785  68.743  1.00  0.00    -0.288 A  
HETATM   25  C   UNL     1     -11.044  14.122  68.534  1.00  0.00    -0.255 A  
HETATM   26  F   UNL     1     -10.610  14.860  69.567  1.00  0.00    -0.231 F  
HETATM   27  C   UNL     1     -11.121  14.719  67.272  1.00  0.00    -0.334 A  
HETATM   28  C   UNL     1     -11.590  13.971  66.199  1.00  0.00    -0.367 A  
HETATM   29 BR   UNL     1     -11.735  14.755  64.485  1.00  0.00    -0.362 Br 
HETATM   30  C   UNL     1     -11.993  12.648  66.383  1.00  0.00    -0.425 A  
HETATM   31  C   UNL     1     -11.908  12.064  67.651  1.00  0.00    -0.294 A  
ENDBRANCH  22  24
ENDBRANCH   5  22
ENDBRANCH   2   3
TORSDOF 6
ENDMDL
MODEL      136
REMARK 921   NORMALIZED FREE ENERGY PREDICTED BY IDOCK:   -4.56 KCAL/MOL
REMARK 922        TOTAL FREE ENERGY PREDICTED BY IDOCK:   -7.21 KCAL/MOL
REMARK 923 INTER-LIGAND FREE ENERGY PREDICTED BY IDOCK:   -6.28 KCAL/MOL
REMARK 924 INTRA-LIGAND FREE ENERGY PREDICTED BY IDOCK:   -0.94 KCAL/MOL
REMARK 927      BINDING AFFINITY PREDICTED BY RF-SCORE:    0.00 PKD
ROOT
HETATM    1  C   UNL     1      -5.316  11.578  67.581  1.00  0.00    -0.054 C  
HETATM    2  O   UNL     1      -6.266  11.083  66.635  1.00  0.00    -0.098 OA 
ENDROOT
BRANCH   2   3
HETATM    3  C   UNL     1      -7.594  11.250  66.930  1.00  0.00    -0.148 A  
HETATM    4  C   UNL     1      -8.503  10.223  66.645  1.00  0.00    -0.124 A  
HETATM    5  C   UNL     1     -10.000  13.678  68.547  1.00  0.00    -0.208 A  
HETATM    6  C   UNL     1      -9.863  10.401  66.958  1.00  0.00    -0.234 A  
HETATM    7  N   UNL     1     -11.295  13.737  68.901  1.00  0.00    -0.270 NA 
HETATM    8  C   UNL     1     -10.350  11.536  67.590  1.00  0.00    -0.186 A  
HETATM    9  C   UNL     1      -8.086  12.410  67.547  1.00  0.00    -0.173 A  
HETATM   10  N   UNL     1     -11.647  11.598  67.912  1.00  0.00    -0.457 NA 
HETATM   11  C   UNL     1      -9.455  12.566  67.880  1.00  0.00    -0.196 A  
HETATM   12  C   UNL     1     -12.054  12.690  68.566  1.00  0.00    -0.085 A  
BRANCH   4  13
HETATM   13  O   UNL     1      -8.284   9.017  66.024  1.00  0.00    -0.108 OA 
BRANCH  13  14
HETATM   14  C   UNL     1      -7.364   8.105  66.617  1.00  0.00    -0.082 C  
BRANCH  14  15
HETATM   15  C   UNL     1      -8.098   6.789  66.990  1.00  0.00    -0.109 C  
HETATM   16  N   UNL     1     -10.461   7.052  68.820  1.00  0.00    -0.200 NA 
HETATM   17  C   UNL     1      -9.552   6.661  66.481  1.00  0.00    -0.187 C  
HETATM   18  C   UNL     1     -10.859   5.709  69.241  1.00  0.00    -0.239 C  
HETATM   19  C   UNL     1     -10.626   7.284  67.383  1.00  0.00    -0.300 C  
HETATM   20  C   UNL     1      -8.038   6.562  68.506  1.00  0.00    -0.114 C  
HETATM   21  C   UNL     1      -9.097   7.382  69.242  1.00  0.00    -0.135 C  
ENDBRANCH  14  15
ENDBRANCH  13  14
ENDBRANCH   4  13
BRANCH   5  22
HETATM   22  N   UNL     1      -9.168  14.790  68.832  1.00  0.00    -0.242 NA 
HETATM   23  H   UNL     1      -8.371  14.628  69.447  1.00  0.00     0.000 HD 
BRANCH  22  24
HETATM   24  C   UNL     1      -9.343  16.104  68.338  1.00  0.00    -0.206 A  
HETATM   25  C   UNL     1      -8.737  16.496  67.136  1.00  0.00    -0.195 A  
HETATM   26  F   UNL     1      -8.063  15.593  66.408  1.00  0.00    -0.286 F  
HETATM   27  C   UNL     1      -8.809  17.812  66.670  1.00  0.00    -0.282 A  
HETATM   28  C   UNL     1      -9.485  18.761  67.427  1.00  0.00    -0.297 A  
HETATM   29 BR   UNL     1      -9.577  20.556  66.840  1.00  0.00    -0.424 Br 
HETATM   30  C   UNL     1     -10.071  18.408  68.643  1.00  0.00    -0.407 A  
HETATM   31  C   UNL     1      -9.993  17.087  69.096  1.00  0.00    -0.229 A  
ENDBRANCH  22  24
ENDBRANCH   5  22
ENDBRANCH   2   3
TORSDOF 6
ENDMDL
MODEL      137
REMARK 921   NORMALIZED FREE ENERGY PREDICTED BY IDOCK:   -4.55 KCAL/MOL
REMARK 922        TOTAL FREE ENERGY PREDICTED BY IDOCK:   -7.20 KCAL/MOL
REMARK 923 INTER-LIGAND FREE ENERGY PREDICTED BY IDOCK:   -6.60 KCAL/MOL
REMARK 924 INTRA-LIGAND FREE ENERGY PREDICTED BY IDOCK:   -0.60 KCAL/MOL
REMARK 927      BINDING AFFINITY PREDICTED BY RF-SCORE:    0.00 PKD
ROOT
HETATM    1  C   UNL     1      -5.995  14.318  68.073  1.00  0.00    -0.145 C  
HETATM    2  O   UNL     1      -7.169  14.577  67.299  1.00  0.00    -0.177 OA 
ENDROOT
BRANCH   2   3
HETATM    3  C   UNL     1      -8.344  14.019  67.731  1.00  0.00    -0.176 A  
HETATM    4  C   UNL     1      -9.507  14.799  67.779  1.00  0.00    -0.204 A  
HETATM    5  C   UNL     1      -9.844  10.732  68.848  1.00  0.00    -0.199 A  
HETATM    6  C   UNL     1     -10.709  14.216  68.217  1.00  0.00    -0.256 A  
HETATM    7  N   UNL     1     -11.046  10.223  69.166  1.00  0.00    -0.233 NA 
HETATM    8  C   UNL     1     -10.817  12.876  68.561  1.00  0.00    -0.257 A  
HETATM    9  C   UNL     1      -8.443  12.669  68.102  1.00  0.00    -0.177 A  
HETATM   10  N   UNL     1     -12.014  12.384  68.904  1.00  0.00    -0.285 NA 
HETATM   11  C   UNL     1      -9.667  12.088  68.518  1.00  0.00    -0.165 A  
HETATM   12  C   UNL     1     -12.073  11.077  69.176  1.00  0.00    -0.263 A  
BRANCH   4  13
HETATM   13  O   UNL     1      -9.667  16.135  67.501  1.00  0.00    -0.229 OA 
BRANCH  13  14
HETATM   14  C   UNL     1     -10.174  16.986  68.526  1.00  0.00    -0.324 C  
BRANCH  14  15
HETATM   15  C   UNL     1      -9.334  18.289  68.585  1.00  0.00    -0.320 C  
HETATM   16  N   UNL     1      -8.204  19.271  65.985  1.00  0.00    -0.440 NA 
HETATM   17  C   UNL     1      -9.924  19.507  67.840  1.00  0.00    -0.505 C  
HETATM   18  C   UNL     1      -7.261  20.349  66.279  1.00  0.00    -0.224 C  
HETATM   19  C   UNL     1      -9.588  19.595  66.345  1.00  0.00    -0.401 C  
HETATM   20  C   UNL     1      -7.899  18.014  68.115  1.00  0.00    -0.274 C  
HETATM   21  C   UNL     1      -7.798  18.000  66.590  1.00  0.00    -0.243 C  
ENDBRANCH  14  15
ENDBRANCH  13  14
ENDBRANCH   4  13
BRANCH   5  22
HETATM   22  N   UNL     1      -8.715   9.875  68.879  1.00  0.00    -0.133 NA 
HETATM   23  H   UNL     1      -7.835  10.279  69.198  1.00  0.00     0.000 HD 
BRANCH  22  24
HETATM   24  C   UNL     1      -8.700   8.510  68.507  1.00  0.00    -0.139 A  
HETATM   25  C   UNL     1      -8.705   7.508  69.488  1.00  0.00    -0.137 A  
HETATM   26  F   UNL     1      -8.815   7.848  70.782  1.00  0.00    -0.131 F  
HETATM   27  C   UNL     1      -8.593   6.154  69.160  1.00  0.00    -0.119 A  
HETATM   28  C   UNL     1      -8.455   5.793  67.825  1.00  0.00    -0.103 A  
HETATM   29 BR   UNL     1      -8.272   3.973  67.348  1.00  0.00    -0.099 Br 
HETATM   30  C   UNL     1      -8.414   6.769  66.829  1.00  0.00    -0.117 A  
HETATM   31  C   UNL     1      -8.530   8.120  67.173  1.00  0.00    -0.124 A  
ENDBRANCH  22  24
ENDBRANCH   5  22
ENDBRANCH   2   3
TORSDOF 6
ENDMDL
MODEL      138
REMARK 921   NORMALIZED FREE ENERGY PREDICTED BY IDOCK:   -4.53 KCAL/MOL
REMARK 922        TOTAL FREE ENERGY PREDICTED BY IDOCK:   -7.17 KCAL/MOL
REMARK 923 INTER-LIGAND FREE ENERGY PREDICTED BY IDOCK:   -6.11 KCAL/MOL
REMARK 924 INTRA-LIGAND FREE ENERGY PREDICTED BY IDOCK:   -1.06 KCAL/MOL
REMARK 927      BINDING AFFINITY PREDICTED BY RF-SCORE:    0.00 PKD
ROOT
HETATM    1  C   UNL     1     -11.354  12.008  65.518  1.00  0.00    -0.328 C  
HETATM    2  O   UNL     1     -10.158  12.785  65.424  1.00  0.00    -0.286 OA 
ENDROOT
BRANCH   2   3
HETATM    3  C   UNL     1      -9.266  12.695  66.460  1.00  0.00    -0.200 A  
HETATM    4  C   UNL     1      -8.545  11.510  66.656  1.00  0.00    -0.176 A  
HETATM    5  C   UNL     1      -7.728  14.737  69.248  1.00  0.00    -0.129 A  
HETATM    6  C   UNL     1      -7.627  11.430  67.718  1.00  0.00    -0.105 A  
HETATM    7  N   UNL     1      -6.769  14.617  70.181  1.00  0.00    -0.158 NA 
HETATM    8  C   UNL     1      -7.356  12.496  68.564  1.00  0.00    -0.115 A  
HETATM    9  C   UNL     1      -9.013  13.768  67.329  1.00  0.00    -0.227 A  
HETATM   10  N   UNL     1      -6.419  12.358  69.509  1.00  0.00    -0.113 NA 
HETATM   11  C   UNL     1      -8.066  13.682  68.380  1.00  0.00    -0.146 A  
HETATM   12  C   UNL     1      -6.160  13.431  70.263  1.00  0.00    -0.099 A  
BRANCH   4  13
HETATM   13  O   UNL     1      -8.628  10.321  65.973  1.00  0.00    -0.137 OA 
BRANCH  13  14
HETATM   14  C   UNL     1      -7.989   9.173  66.525  1.00  0.00    -0.100 C  
BRANCH  14  15
HETATM   15  C   UNL     1      -9.050   8.087  66.844  1.00  0.00    -0.182 C  
HETATM   16  N   UNL     1     -10.001   7.942  69.685  1.00  0.00    -0.187 NA 
HETATM   17  C   UNL     1     -10.441   8.607  67.273  1.00  0.00    -0.360 C  
HETATM   18  C   UNL     1     -10.797   6.724  69.835  1.00  0.00    -0.266 C  
HETATM   19  C   UNL     1     -10.598   8.917  68.768  1.00  0.00    -0.157 C  
HETATM   20  C   UNL     1      -8.500   7.101  67.883  1.00  0.00    -0.121 C  
HETATM   21  C   UNL     1      -8.617   7.654  69.303  1.00  0.00    -0.136 C  
ENDBRANCH  14  15
ENDBRANCH  13  14
ENDBRANCH   4  13
BRANCH   5  22
HETATM   22  N   UNL     1      -8.441  15.959  69.161  1.00  0.00    -0.244 NA 
HETATM   23  H   UNL     1      -9.409  15.956  69.481  1.00  0.00     0.000 HD 
BRANCH  22  24
HETATM   24  C   UNL     1      -7.930  17.183  68.670  1.00  0.00    -0.265 A  
HETATM   25  C   UNL     1      -8.746  18.322  68.618  1.00  0.00    -0.271 A  
HETATM   26  F   UNL     1      -9.989  18.271  69.121  1.00  0.00    -0.352 F  
HETATM   27  C   UNL     1      -8.303  19.521  68.050  1.00  0.00    -0.355 A  
HETATM   28  C   UNL     1      -7.026  19.579  67.505  1.00  0.00    -0.213 A  
HETATM   29 BR   UNL     1      -6.407  21.175  66.703  1.00  0.00    -0.339 Br 
HETATM   30  C   UNL     1      -6.203  18.452  67.513  1.00  0.00    -0.184 A  
HETATM   31  C   UNL     1      -6.659  17.261  68.087  1.00  0.00    -0.164 A  
ENDBRANCH  22  24
ENDBRANCH   5  22
ENDBRANCH   2   3
TORSDOF 6
ENDMDL
MODEL      139
REMARK 921   NORMALIZED FREE ENERGY PREDICTED BY IDOCK:   -4.53 KCAL/MOL
REMARK 922        TOTAL FREE ENERGY PREDICTED BY IDOCK:   -7.16 KCAL/MOL
REMARK 923 INTER-LIGAND FREE ENERGY PREDICTED BY IDOCK:   -6.50 KCAL/MOL
REMARK 924 INTRA-LIGAND FREE ENERGY PREDICTED BY IDOCK:   -0.67 KCAL/MOL
REMARK 927      BINDING AFFINITY PREDICTED BY RF-SCORE:    0.00 PKD
ROOT
HETATM    1  C   UNL     1      -8.207  11.754  68.438  1.00  0.00    -0.154 C  
HETATM    2  O   UNL     1      -9.260  11.517  67.501  1.00  0.00    -0.162 OA 
ENDROOT
BRANCH   2   3
HETATM    3  C   UNL     1      -9.038  10.578  66.528  1.00  0.00    -0.157 A  
HETATM    4  C   UNL     1      -9.232  10.914  65.181  1.00  0.00    -0.214 A  
HETATM    5  C   UNL     1      -7.816   7.033  66.036  1.00  0.00    -0.104 A  
HETATM    6  C   UNL     1      -8.995   9.946  64.190  1.00  0.00    -0.274 A  
HETATM    7  N   UNL     1      -7.522   6.194  65.030  1.00  0.00    -0.077 NA 
HETATM    8  C   UNL     1      -8.522   8.673  64.474  1.00  0.00    -0.110 A  
HETATM    9  C   UNL     1      -8.584   9.283  66.822  1.00  0.00    -0.134 A  
HETATM   10  N   UNL     1      -8.259   7.833  63.466  1.00  0.00    -0.044 NA 
HETATM   11  C   UNL     1      -8.324   8.326  65.810  1.00  0.00    -0.142 A  
HETATM   12  C   UNL     1      -7.758   6.638  63.792  1.00  0.00    -0.111 A  
BRANCH   4  13
HETATM   13  O   UNL     1      -9.694  12.088  64.638  1.00  0.00    -0.196 OA 
BRANCH  13  14
HETATM   14  C   UNL     1     -11.103  12.287  64.546  1.00  0.00    -0.321 C  
BRANCH  14  15
HETATM   15  C   UNL     1     -11.451  13.749  64.931  1.00  0.00    -0.351 C  
HETATM   16  N   UNL     1     -10.669  14.626  67.692  1.00  0.00    -0.267 NA 
HETATM   17  C   UNL     1     -10.247  14.684  65.187  1.00  0.00    -0.414 C  
HETATM   18  C   UNL     1     -11.287  15.927  67.946  1.00  0.00    -0.252 C  
HETATM   19  C   UNL     1      -9.678  14.654  66.612  1.00  0.00    -0.270 C  
HETATM   20  C   UNL     1     -12.409  13.766  66.129  1.00  0.00    -0.496 C  
HETATM   21  C   UNL     1     -11.664  13.579  67.450  1.00  0.00    -0.380 C  
ENDBRANCH  14  15
ENDBRANCH  13  14
ENDBRANCH   4  13
BRANCH   5  22
HETATM   22  N   UNL     1      -7.636   6.584  67.369  1.00  0.00    -0.098 NA 
HETATM   23  H   UNL     1      -6.707   6.251  67.624  1.00  0.00     0.000 HD 
BRANCH  22  24
HETATM   24  C   UNL     1      -8.629   6.557  68.375  1.00  0.00    -0.119 A  
HETATM   25  C   UNL     1      -9.831   5.866  68.167  1.00  0.00    -0.133 A  
HETATM   26  F   UNL     1     -10.000   5.153  67.042  1.00  0.00    -0.142 F  
HETATM   27  C   UNL     1     -10.872   5.899  69.099  1.00  0.00    -0.406 A  
HETATM   28  C   UNL     1     -10.718   6.652  70.257  1.00  0.00    -0.246 A  
HETATM   29 BR   UNL     1     -12.117   6.742  71.525  1.00  0.00    -0.417 Br 
HETATM   30  C   UNL     1      -9.546   7.377  70.477  1.00  0.00    -0.172 A  
HETATM   31  C   UNL     1      -8.513   7.332  69.536  1.00  0.00    -0.133 A  
ENDBRANCH  22  24
ENDBRANCH   5  22
ENDBRANCH   2   3
TORSDOF 6
ENDMDL
MODEL      140
REMARK 921   NORMALIZED FREE ENERGY PREDICTED BY IDOCK:   -4.47 KCAL/MOL
REMARK 922        TOTAL FREE ENERGY PREDICTED BY IDOCK:   -7.08 KCAL/MOL
REMARK 923 INTER-LIGAND FREE ENERGY PREDICTED BY IDOCK:   -6.30 KCAL/MOL
REMARK 924 INTRA-LIGAND FREE ENERGY PREDICTED BY IDOCK:   -0.78 KCAL/MOL
REMARK 927      BINDING AFFINITY PREDICTED BY RF-SCORE:    0.00 PKD
ROOT
HETATM    1  C   UNL     1      -5.728  12.424  69.654  1.00  0.00    -0.102 C  
HETATM    2  O   UNL     1      -6.390  12.378  68.388  1.00  0.00    -0.051 OA 
ENDROOT
BRANCH   2   3
HETATM    3  C   UNL     1      -7.623  12.972  68.300  1.00  0.00    -0.135 A  
HETATM    4  C   UNL     1      -8.752  12.189  68.023  1.00  0.00    -0.180 A  
HETATM    5  C   UNL     1      -9.355  16.308  68.711  1.00  0.00    -0.235 A  
HETATM    6  C   UNL     1     -10.013  12.807  67.942  1.00  0.00    -0.229 A  
HETATM    7  N   UNL     1     -10.602  16.809  68.710  1.00  0.00    -0.328 NA 
HETATM    8  C   UNL     1     -10.208  14.160  68.176  1.00  0.00    -0.241 A  
HETATM    9  C   UNL     1      -7.812  14.346  68.513  1.00  0.00    -0.138 A  
HETATM   10  N   UNL     1     -11.451  14.656  68.144  1.00  0.00    -0.308 NA 
HETATM   11  C   UNL     1      -9.093  14.950  68.453  1.00  0.00    -0.185 A  
HETATM   12  C   UNL     1     -11.589  15.955  68.427  1.00  0.00    -0.315 A  
BRANCH   4  13
HETATM   13  O   UNL     1      -8.831  10.846  67.749  1.00  0.00    -0.132 OA 
BRANCH  13  14
HETATM   14  C   UNL     1      -8.183   9.932  68.630  1.00  0.00    -0.108 C  
BRANCH  14  15
HETATM   15  C   UNL     1      -9.234   8.983  69.264  1.00  0.00    -0.145 C  
HETATM   16  N   UNL     1      -9.466   6.248  68.053  1.00  0.00    -0.117 NA 
HETATM   17  C   UNL     1      -8.673   7.724  69.963  1.00  0.00    -0.141 C  
HETATM   18  C   UNL     1     -10.652   5.603  68.615  1.00  0.00    -0.198 C  
HETATM   19  C   UNL     1      -8.424   6.516  69.049  1.00  0.00    -0.125 C  
HETATM   20  C   UNL     1     -10.290   8.594  68.221  1.00  0.00    -0.252 C  
HETATM   21  C   UNL     1      -9.797   7.467  67.313  1.00  0.00    -0.179 C  
ENDBRANCH  14  15
ENDBRANCH  13  14
ENDBRANCH   4  13
BRANCH   5  22
HETATM   22  N   UNL     1      -8.270  17.189  68.950  1.00  0.00    -0.233 NA 
HETATM   23  H   UNL     1      -7.914  17.238  69.904  1.00  0.00     0.000 HD 
BRANCH  22  24
HETATM   24  C   UNL     1      -7.637  18.005  67.984  1.00  0.00    -0.244 A  
HETATM   25  C   UNL     1      -7.289  19.328  68.292  1.00  0.00    -0.294 A  
HETATM   26  F   UNL     1      -7.477  19.790  69.538  1.00  0.00    -0.385 F  
HETATM   27  C   UNL     1      -6.752  20.191  67.333  1.00  0.00    -0.259 A  
HETATM   28  C   UNL     1      -6.574  19.731  66.034  1.00  0.00    -0.225 A  
HETATM   29 BR   UNL     1      -5.878  20.881  64.705  1.00  0.00    -0.291 Br 
HETATM   30  C   UNL     1      -6.942  18.430  65.689  1.00  0.00    -0.241 A  
HETATM   31  C   UNL     1      -7.476  17.577  66.660  1.00  0.00    -0.280 A  
ENDBRANCH  22  24
ENDBRANCH   5  22
ENDBRANCH   2   3
TORSDOF 6
ENDMDL
MODEL      141
REMARK 921   NORMALIZED FREE ENERGY PREDICTED BY IDOCK:   -4.44 KCAL/MOL
REMARK 922        TOTAL FREE ENERGY PREDICTED BY IDOCK:   -7.04 KCAL/MOL
REMARK 923 INTER-LIGAND FREE ENERGY PREDICTED BY IDOCK:   -6.01 KCAL/MOL
REMARK 924 INTRA-LIGAND FREE ENERGY PREDICTED BY IDOCK:   -1.03 KCAL/MOL
REMARK 927      BINDING AFFINITY PREDICTED BY RF-SCORE:    0.00 PKD
ROOT
HETATM    1  C   UNL     1      -5.344  11.579  69.420  1.00  0.00    -0.048 C  
HETATM    2  O   UNL     1      -6.309  10.589  69.779  1.00  0.00    -0.064 OA 
ENDROOT
BRANCH   2   3
HETATM    3  C   UNL     1      -7.603  10.796  69.377  1.00  0.00    -0.112 A  
HETATM    4  C   UNL     1      -8.638  10.047  69.953  1.00  0.00    -0.146 A  
HETATM    5  C   UNL     1      -9.705  12.991  67.126  1.00  0.00    -0.230 A  
HETATM    6  C   UNL     1      -9.963  10.272  69.540  1.00  0.00    -0.252 A  
HETATM    7  N   UNL     1     -11.001  13.214  66.851  1.00  0.00    -0.272 NA 
HETATM    8  C   UNL     1     -10.311  11.246  68.615  1.00  0.00    -0.201 A  
HETATM    9  C   UNL     1      -7.948  11.766  68.422  1.00  0.00    -0.147 A  
HETATM   10  N   UNL     1     -11.603  11.441  68.325  1.00  0.00    -0.399 NA 
HETATM   11  C   UNL     1      -9.290  11.999  68.034  1.00  0.00    -0.196 A  
HETATM   12  C   UNL     1     -11.886  12.426  67.468  1.00  0.00    -0.284 A  
BRANCH   4  13
HETATM   13  O   UNL     1      -8.564   9.030  70.874  1.00  0.00    -0.183 OA 
BRANCH  13  14
HETATM   14  C   UNL     1      -8.908   7.711  70.459  1.00  0.00    -0.149 C  
BRANCH  14  15
HETATM   15  C   UNL     1      -8.737   6.728  71.648  1.00  0.00    -0.126 C  
HETATM   16  N   UNL     1     -10.789   4.553  71.888  1.00  0.00     0.102 NA 
HETATM   17  C   UNL     1      -8.428   5.261  71.272  1.00  0.00    -0.124 C  
HETATM   18  C   UNL     1     -10.601   3.894  73.180  1.00  0.00    -0.183 C  
HETATM   19  C   UNL     1      -9.652   4.382  70.978  1.00  0.00    -0.179 C  
HETATM   20  C   UNL     1      -9.959   6.801  72.573  1.00  0.00    -0.185 C  
HETATM   21  C   UNL     1     -11.124   5.971  72.034  1.00  0.00    -0.274 C  
ENDBRANCH  14  15
ENDBRANCH  13  14
ENDBRANCH   4  13
BRANCH   5  22
HETATM   22  N   UNL     1      -8.726  13.765  66.453  1.00  0.00    -0.427 NA 
HETATM   23  H   UNL     1      -8.219  13.312  65.694  1.00  0.00     0.000 HD 
BRANCH  22  24
HETATM   24  C   UNL     1      -8.391  15.109  66.740  1.00  0.00    -0.189 A  
HETATM   25  C   UNL     1      -9.066  16.159  66.103  1.00  0.00    -0.347 A  
HETATM   26  F   UNL     1     -10.094  15.887  65.285  1.00  0.00    -0.347 F  
HETATM   27  C   UNL     1      -8.696  17.494  66.289  1.00  0.00    -0.226 A  
HETATM   28  C   UNL     1      -7.618  17.787  67.116  1.00  0.00    -0.203 A  
HETATM   29 BR   UNL     1      -7.071  19.579  67.367  1.00  0.00    -0.246 Br 
HETATM   30  C   UNL     1      -6.906  16.761  67.738  1.00  0.00    -0.156 A  
HETATM   31  C   UNL     1      -7.290  15.430  67.544  1.00  0.00    -0.222 A  
ENDBRANCH  22  24
ENDBRANCH   5  22
ENDBRANCH   2   3
TORSDOF 6
ENDMDL
MODEL      142
REMARK 921   NORMALIZED FREE ENERGY PREDICTED BY IDOCK:   -4.44 KCAL/MOL
REMARK 922        TOTAL FREE ENERGY PREDICTED BY IDOCK:   -7.04 KCAL/MOL
REMARK 923 INTER-LIGAND FREE ENERGY PREDICTED BY IDOCK:   -6.02 KCAL/MOL
REMARK 924 INTRA-LIGAND FREE ENERGY PREDICTED BY IDOCK:   -1.02 KCAL/MOL
REMARK 927      BINDING AFFINITY PREDICTED BY RF-SCORE:    0.00 PKD
ROOT
HETATM    1  C   UNL     1     -10.776   5.849  66.925  1.00  0.00    -0.321 C  
HETATM    2  O   UNL     1     -11.284   6.859  67.799  1.00  0.00    -0.174 OA 
ENDROOT
BRANCH   2   3
HETATM    3  C   UNL     1     -10.370   7.624  68.476  1.00  0.00    -0.198 A  
HETATM    4  C   UNL     1     -10.119   7.370  69.831  1.00  0.00    -0.195 A  
HETATM    5  C   UNL     1      -7.863  10.409  67.968  1.00  0.00    -0.104 A  
HETATM    6  C   UNL     1      -9.174   8.156  70.514  1.00  0.00    -0.157 A  
HETATM    7  N   UNL     1      -6.910  11.054  68.662  1.00  0.00    -0.060 NA 
HETATM    8  C   UNL     1      -8.429   9.150  69.896  1.00  0.00    -0.147 A  
HETATM    9  C   UNL     1      -9.636   8.645  67.853  1.00  0.00    -0.173 A  
HETATM   10  N   UNL     1      -7.502   9.807  70.604  1.00  0.00    -0.295 NA 
HETATM   11  C   UNL     1      -8.668   9.412  68.548  1.00  0.00    -0.128 A  
HETATM   12  C   UNL     1      -6.777  10.718  69.948  1.00  0.00    -0.156 A  
BRANCH   4  13
HETATM   13  O   UNL     1     -10.717   6.460  70.668  1.00  0.00    -0.230 OA 
BRANCH  13  14
HETATM   14  C   UNL     1     -10.521   5.072  70.415  1.00  0.00    -0.167 C  
BRANCH  14  15
HETATM   15  C   UNL     1      -9.326   4.550  71.256  1.00  0.00    -0.209 C  
HETATM   16  N   UNL     1     -10.011   3.026  73.748  1.00  0.00    -0.105 NA 
HETATM   17  C   UNL     1      -9.184   3.014  71.346  1.00  0.00    -0.190 C  
HETATM   18  C   UNL     1      -8.780   2.835  74.514  1.00  0.00    -0.075 C  
HETATM   19  C   UNL     1     -10.003   2.337  72.454  1.00  0.00    -0.150 C  
HETATM   20  C   UNL     1      -9.357   5.170  72.659  1.00  0.00    -0.152 C  
HETATM   21  C   UNL     1     -10.340   4.443  73.576  1.00  0.00    -0.182 C  
ENDBRANCH  14  15
ENDBRANCH  13  14
ENDBRANCH   4  13
BRANCH   5  22
HETATM   22  N   UNL     1      -8.079  10.772  66.614  1.00  0.00    -0.136 NA 
HETATM   23  H   UNL     1      -7.415  10.417  65.927  1.00  0.00     0.000 HD 
BRANCH  22  24
HETATM   24  C   UNL     1      -9.133  11.583  66.132  1.00  0.00    -0.209 A  
HETATM   25  C   UNL     1      -9.913  11.160  65.047  1.00  0.00    -0.273 A  
HETATM   26  F   UNL     1      -9.713   9.941  64.522  1.00  0.00    -0.344 F  
HETATM   27  C   UNL     1     -10.898  11.976  64.483  1.00  0.00    -0.363 A  
HETATM   28  C   UNL     1     -11.097  13.250  65.003  1.00  0.00    -0.309 A  
HETATM   29 BR   UNL     1     -12.400  14.391  64.247  1.00  0.00    -0.272 Br 
HETATM   30  C   UNL     1     -10.315  13.711  66.062  1.00  0.00    -0.305 A  
HETATM   31  C   UNL     1      -9.335  12.881  66.617  1.00  0.00    -0.240 A  
ENDBRANCH  22  24
ENDBRANCH   5  22
ENDBRANCH   2   3
TORSDOF 6
ENDMDL
MODEL      143
REMARK 921   NORMALIZED FREE ENERGY PREDICTED BY IDOCK:   -4.41 KCAL/MOL
REMARK 922        TOTAL FREE ENERGY PREDICTED BY IDOCK:   -7.01 KCAL/MOL
REMARK 923 INTER-LIGAND FREE ENERGY PREDICTED BY IDOCK:   -6.17 KCAL/MOL
REMARK 924 INTRA-LIGAND FREE ENERGY PREDICTED BY IDOCK:   -0.85 KCAL/MOL
REMARK 927      BINDING AFFINITY PREDICTED BY RF-SCORE:    0.00 PKD
ROOT
HETATM    1  C   UNL     1     -10.944   7.085  67.151  1.00  0.00    -0.323 C  
HETATM    2  O   UNL     1     -11.033   8.211  68.027  1.00  0.00    -0.008 OA 
ENDROOT
BRANCH   2   3
HETATM    3  C   UNL     1     -10.041   9.152  67.944  1.00  0.00    -0.199 A  
HETATM    4  C   UNL     1      -8.701   8.746  67.884  1.00  0.00    -0.136 A  
HETATM    5  C   UNL     1      -9.495  12.882  67.640  1.00  0.00    -0.197 A  
HETATM    6  C   UNL     1      -7.690   9.719  67.792  1.00  0.00    -0.091 A  
HETATM    7  N   UNL     1      -8.483  13.746  67.458  1.00  0.00    -0.183 NA 
HETATM    8  C   UNL     1      -7.956  11.079  67.705  1.00  0.00    -0.115 A  
HETATM    9  C   UNL     1     -10.313  10.528  67.881  1.00  0.00    -0.226 A  
HETATM   10  N   UNL     1      -6.938  11.934  67.552  1.00  0.00    -0.111 NA 
HETATM   11  C   UNL     1      -9.285  11.496  67.763  1.00  0.00    -0.165 A  
HETATM   12  C   UNL     1      -7.252  13.227  67.422  1.00  0.00    -0.108 A  
BRANCH   4  13
HETATM   13  O   UNL     1      -8.174   7.479  67.957  1.00  0.00    -0.122 OA 
BRANCH  13  14
HETATM   14  C   UNL     1      -7.437   7.115  69.120  1.00  0.00    -0.094 C  
BRANCH  14  15
HETATM   15  C   UNL     1      -8.297   6.183  70.014  1.00  0.00    -0.125 C  
HETATM   16  N   UNL     1      -8.326   6.801  72.949  1.00  0.00    -0.116 NA 
HETATM   17  C   UNL     1      -9.513   6.842  70.703  1.00  0.00    -0.171 C  
HETATM   18  C   UNL     1      -8.980   5.689  73.640  1.00  0.00    -0.124 C  
HETATM   19  C   UNL     1      -9.220   7.529  72.044  1.00  0.00    -0.132 C  
HETATM   20  C   UNL     1      -7.410   5.477  71.048  1.00  0.00    -0.084 C  
HETATM   21  C   UNL     1      -7.113   6.378  72.246  1.00  0.00    -0.082 C  
ENDBRANCH  14  15
ENDBRANCH  13  14
ENDBRANCH   4  13
BRANCH   5  22
HETATM   22  N   UNL     1     -10.813  13.393  67.741  1.00  0.00    -0.248 NA 
HETATM   23  H   UNL     1     -11.377  13.396  66.892  1.00  0.00     0.000 HD 
BRANCH  22  24
HETATM   24  C   UNL     1     -11.417  13.900  68.916  1.00  0.00    -0.301 A  
HETATM   25  C   UNL     1     -11.212  15.233  69.300  1.00  0.00    -0.284 A  
HETATM   26  F   UNL     1     -10.512  16.053  68.501  1.00  0.00    -0.228 F  
HETATM   27  C   UNL     1     -11.713  15.739  70.503  1.00  0.00    -0.400 A  
HETATM   28  C   UNL     1     -12.419  14.894  71.349  1.00  0.00    -0.337 A  
HETATM   29 BR   UNL     1     -13.086  15.538  72.997  1.00  0.00    -0.691 Br 
HETATM   30  C   UNL     1     -12.612  13.554  71.009  1.00  0.00    -0.438 A  
HETATM   31  C   UNL     1     -12.107  13.063  69.801  1.00  0.00    -0.325 A  
ENDBRANCH  22  24
ENDBRANCH   5  22
ENDBRANCH   2   3
TORSDOF 6
ENDMDL
MODEL      144
REMARK 921   NORMALIZED FREE ENERGY PREDICTED BY IDOCK:   -4.41 KCAL/MOL
REMARK 922        TOTAL FREE ENERGY PREDICTED BY IDOCK:   -7.01 KCAL/MOL
REMARK 923 INTER-LIGAND FREE ENERGY PREDICTED BY IDOCK:   -6.40 KCAL/MOL
REMARK 924 INTRA-LIGAND FREE ENERGY PREDICTED BY IDOCK:   -0.61 KCAL/MOL
REMARK 927      BINDING AFFINITY PREDICTED BY RF-SCORE:    0.00 PKD
ROOT
HETATM    1  C   UNL     1     -11.945  14.409  69.405  1.00  0.00    -0.328 C  
HETATM    2  O   UNL     1     -10.673  15.028  69.197  1.00  0.00    -0.231 OA 
ENDROOT
BRANCH   2   3
HETATM    3  C   UNL     1      -9.707  14.286  68.570  1.00  0.00    -0.225 A  
HETATM    4  C   UNL     1      -8.460  14.863  68.291  1.00  0.00    -0.151 A  
HETATM    5  C   UNL     1      -9.001  10.805  67.272  1.00  0.00    -0.140 A  
HETATM    6  C   UNL     1      -7.473  14.092  67.652  1.00  0.00    -0.186 A  
HETATM    7  N   UNL     1      -7.979  10.106  66.751  1.00  0.00    -0.114 NA 
HETATM    8  C   UNL     1      -7.652  12.755  67.325  1.00  0.00    -0.112 A  
HETATM    9  C   UNL     1      -9.901  12.941  68.218  1.00  0.00    -0.228 A  
HETATM   10  N   UNL     1      -6.637  12.074  66.780  1.00  0.00    -0.041 NA 
HETATM   11  C   UNL     1      -8.888  12.169  67.598  1.00  0.00    -0.172 A  
HETATM   12  C   UNL     1      -6.846  10.778  66.532  1.00  0.00    -0.130 A  
BRANCH   4  13
HETATM   13  O   UNL     1      -8.034  16.151  68.503  1.00  0.00    -0.158 OA 
BRANCH  13  14
HETATM   14  C   UNL     1      -8.997  17.201  68.471  1.00  0.00    -0.265 C  
BRANCH  14  15
HETATM   15  C   UNL     1      -8.670  18.176  67.310  1.00  0.00    -0.244 C  
HETATM   16  N   UNL     1      -6.305  19.979  67.705  1.00  0.00    -0.211 NA 
HETATM   17  C   UNL     1      -7.326  17.939  66.587  1.00  0.00    -0.260 C  
HETATM   18  C   UNL     1      -6.307  20.971  66.631  1.00  0.00    -0.296 C  
HETATM   19  C   UNL     1      -6.102  18.607  67.229  1.00  0.00    -0.169 C  
HETATM   20  C   UNL     1      -8.770  19.628  67.796  1.00  0.00    -0.372 C  
HETATM   21  C   UNL     1      -7.507  20.063  68.538  1.00  0.00    -0.202 C  
ENDBRANCH  14  15
ENDBRANCH  13  14
ENDBRANCH   4  13
BRANCH   5  22
HETATM   22  N   UNL     1     -10.241  10.147  67.470  1.00  0.00    -0.197 NA 
HETATM   23  H   UNL     1     -11.020  10.439  66.880  1.00  0.00     0.000 HD 
BRANCH  22  24
HETATM   24  C   UNL     1     -10.496   9.123  68.412  1.00  0.00    -0.199 A  
HETATM   25  C   UNL     1     -10.870   9.444  69.724  1.00  0.00    -0.232 A  
HETATM   26  F   UNL     1     -11.074  10.727  70.060  1.00  0.00    -0.287 F  
HETATM   27  C   UNL     1     -11.034   8.461  70.705  1.00  0.00    -0.266 A  
HETATM   28  C   UNL     1     -10.803   7.132  70.374  1.00  0.00    -0.246 A  
HETATM   29 BR   UNL     1     -10.987   5.780  71.684  1.00  0.00    -0.281 Br 
HETATM   30  C   UNL     1     -10.397   6.785  69.085  1.00  0.00    -0.213 A  
HETATM   31  C   UNL     1     -10.240   7.778  68.114  1.00  0.00    -0.244 A  
ENDBRANCH  22  24
ENDBRANCH   5  22
ENDBRANCH   2   3
TORSDOF 6
ENDMDL
MODEL      145
REMARK 921   NORMALIZED FREE ENERGY PREDICTED BY IDOCK:   -4.41 KCAL/MOL
REMARK 922        TOTAL FREE ENERGY PREDICTED BY IDOCK:   -7.00 KCAL/MOL
REMARK 923 INTER-LIGAND FREE ENERGY PREDICTED BY IDOCK:   -6.52 KCAL/MOL
REMARK 924 INTRA-LIGAND FREE ENERGY PREDICTED BY IDOCK:   -0.48 KCAL/MOL
REMARK 927      BINDING AFFINITY PREDICTED BY RF-SCORE:    0.00 PKD
ROOT
HETATM    1  C   UNL     1     -10.064   6.585  68.241  1.00  0.00    -0.159 C  
HETATM    2  O   UNL     1      -9.800   7.847  67.626  1.00  0.00    -0.149 OA 
ENDROOT
BRANCH   2   3
HETATM    3  C   UNL     1     -10.314   8.963  68.233  1.00  0.00    -0.206 A  
HETATM    4  C   UNL     1     -10.210  10.209  67.599  1.00  0.00    -0.203 A  
HETATM    5  C   UNL     1     -12.263  10.062  71.282  1.00  0.00    -0.402 A  
HETATM    6  C   UNL     1     -10.747  11.347  68.227  1.00  0.00    -0.240 A  
HETATM    7  N   UNL     1     -12.831  11.175  71.774  1.00  0.00    -0.416 NA 
HETATM    8  C   UNL     1     -11.427  11.293  69.435  1.00  0.00    -0.301 A  
HETATM    9  C   UNL     1     -10.979   8.908  69.467  1.00  0.00    -0.097 A  
HETATM   10  N   UNL     1     -11.965  12.414  69.932  1.00  0.00    -0.324 NA 
HETATM   11  C   UNL     1     -11.537  10.060  70.076  1.00  0.00    -0.279 A  
HETATM   12  C   UNL     1     -12.653  12.298  71.071  1.00  0.00    -0.257 A  
BRANCH   4  13
HETATM   13  O   UNL     1      -9.589  10.532  66.417  1.00  0.00    -0.167 OA 
BRANCH  13  14
HETATM   14  C   UNL     1      -8.188  10.793  66.435  1.00  0.00    -0.155 C  
BRANCH  14  15
HETATM   15  C   UNL     1      -7.421   9.576  65.852  1.00  0.00    -0.100 C  
HETATM   16  N   UNL     1      -7.027   9.546  62.879  1.00  0.00    -0.097 NA 
HETATM   17  C   UNL     1      -6.055   9.888  65.201  1.00  0.00    -0.097 C  
HETATM   18  C   UNL     1      -6.511   8.229  62.504  1.00  0.00    -0.087 C  
HETATM   19  C   UNL     1      -6.107  10.310  63.726  1.00  0.00    -0.127 C  
HETATM   20  C   UNL     1      -8.319   8.805  64.876  1.00  0.00    -0.179 C  
HETATM   21  C   UNL     1      -8.351   9.465  63.498  1.00  0.00    -0.184 C  
ENDBRANCH  14  15
ENDBRANCH  13  14
ENDBRANCH   4  13
BRANCH   5  22
HETATM   22  N   UNL     1     -12.376   8.858  72.022  1.00  0.00    -0.369 NA 
HETATM   23  H   UNL     1     -13.311   8.588  72.328  1.00  0.00     0.000 HD 
BRANCH  22  24
HETATM   24  C   UNL     1     -11.310   7.999  72.375  1.00  0.00    -0.382 A  
HETATM   25  C   UNL     1     -11.507   6.612  72.433  1.00  0.00    -0.262 A  
HETATM   26  F   UNL     1     -12.689   6.094  72.065  1.00  0.00    -0.366 F  
HETATM   27  C   UNL     1     -10.503   5.743  72.871  1.00  0.00    -0.244 A  
HETATM   28  C   UNL     1      -9.283   6.269  73.277  1.00  0.00    -0.131 A  
HETATM   29 BR   UNL     1      -7.915   5.125  73.903  1.00  0.00    -0.102 Br 
HETATM   30  C   UNL     1      -9.069   7.648  73.261  1.00  0.00    -0.270 A  
HETATM   31  C   UNL     1     -10.081   8.505  72.818  1.00  0.00    -0.168 A  
ENDBRANCH  22  24
ENDBRANCH   5  22
ENDBRANCH   2   3
TORSDOF 6
ENDMDL
MODEL      146
REMARK 921   NORMALIZED FREE ENERGY PREDICTED BY IDOCK:   -4.39 KCAL/MOL
REMARK 922        TOTAL FREE ENERGY PREDICTED BY IDOCK:   -6.98 KCAL/MOL
REMARK 923 INTER-LIGAND FREE ENERGY PREDICTED BY IDOCK:   -6.15 KCAL/MOL
REMARK 924 INTRA-LIGAND FREE ENERGY PREDICTED BY IDOCK:   -0.83 KCAL/MOL
REMARK 927      BINDING AFFINITY PREDICTED BY RF-SCORE:    0.00 PKD
ROOT
HETATM    1  C   UNL     1      -8.805   9.599  66.236  1.00  0.00    -0.151 C  
HETATM    2  O   UNL     1      -8.266   9.047  67.440  1.00  0.00    -0.107 OA 
ENDROOT
BRANCH   2   3
HETATM    3  C   UNL     1      -9.122   8.889  68.498  1.00  0.00    -0.137 A  
HETATM    4  C   UNL     1      -8.892   7.868  69.431  1.00  0.00    -0.145 A  
HETATM    5  C   UNL     1     -12.164  10.439  70.124  1.00  0.00    -0.229 A  
HETATM    6  C   UNL     1      -9.772   7.718  70.517  1.00  0.00    -0.175 A  
HETATM    7  N   UNL     1     -12.905  10.292  71.235  1.00  0.00    -0.389 NA 
HETATM    8  C   UNL     1     -10.843   8.570  70.745  1.00  0.00    -0.231 A  
HETATM    9  C   UNL     1     -10.219   9.737  68.711  1.00  0.00    -0.210 A  
HETATM   10  N   UNL     1     -11.593   8.397  71.840  1.00  0.00    -0.306 NA 
HETATM   11  C   UNL     1     -11.084   9.589  69.825  1.00  0.00    -0.216 A  
HETATM   12  C   UNL     1     -12.580   9.276  72.039  1.00  0.00    -0.390 A  
BRANCH   4  13
HETATM   13  O   UNL     1      -7.919   6.899  69.433  1.00  0.00    -0.111 OA 
BRANCH  13  14
HETATM   14  C   UNL     1      -7.595   6.258  68.202  1.00  0.00    -0.102 C  
BRANCH  14  15
HETATM   15  C   UNL     1      -8.555   5.063  67.966  1.00  0.00    -0.103 C  
HETATM   16  N   UNL     1      -8.291   3.636  65.340  1.00  0.00    -0.104 NA 
HETATM   17  C   UNL     1      -7.888   3.674  67.848  1.00  0.00    -0.069 C  
HETATM   18  C   UNL     1      -9.421   2.717  65.208  1.00  0.00    -0.036 C  
HETATM   19  C   UNL     1      -7.391   3.295  66.446  1.00  0.00    -0.075 C  
HETATM   20  C   UNL     1      -9.447   5.336  66.748  1.00  0.00    -0.142 C  
HETATM   21  C   UNL     1      -8.722   5.032  65.437  1.00  0.00    -0.146 C  
ENDBRANCH  14  15
ENDBRANCH  13  14
ENDBRANCH   4  13
BRANCH   5  22
HETATM   22  N   UNL     1     -12.507  11.469  69.211  1.00  0.00    -0.194 NA 
HETATM   23  H   UNL     1     -13.216  11.251  68.511  1.00  0.00     0.000 HD 
BRANCH  22  24
HETATM   24  C   UNL     1     -11.955  12.771  69.185  1.00  0.00    -0.246 A  
HETATM   25  C   UNL     1     -12.376  13.738  70.109  1.00  0.00    -0.323 A  
HETATM   26  F   UNL     1     -13.240  13.398  71.077  1.00  0.00    -0.331 F  
HETATM   27  C   UNL     1     -11.923  15.059  70.051  1.00  0.00    -0.375 A  
HETATM   28  C   UNL     1     -11.046  15.428  69.039  1.00  0.00    -0.268 A  
HETATM   29 BR   UNL     1     -10.437  17.214  68.913  1.00  0.00    -0.321 Br 
HETATM   30  C   UNL     1     -10.635  14.496  68.085  1.00  0.00    -0.238 A  
HETATM   31  C   UNL     1     -11.094  13.177  68.158  1.00  0.00    -0.284 A  
ENDBRANCH  22  24
ENDBRANCH   5  22
ENDBRANCH   2   3
TORSDOF 6
ENDMDL
MODEL      147
REMARK 921   NORMALIZED FREE ENERGY PREDICTED BY IDOCK:   -4.38 KCAL/MOL
REMARK 922        TOTAL FREE ENERGY PREDICTED BY IDOCK:   -6.96 KCAL/MOL
REMARK 923 INTER-LIGAND FREE ENERGY PREDICTED BY IDOCK:   -7.38 KCAL/MOL
REMARK 924 INTRA-LIGAND FREE ENERGY PREDICTED BY IDOCK:    0.42 KCAL/MOL
REMARK 927      BINDING AFFINITY PREDICTED BY RF-SCORE:    0.00 PKD
ROOT
HETATM    1  C   UNL     1     -12.446  15.932  71.347  1.00  0.00    -0.403 C  
HETATM    2  O   UNL     1     -12.271  14.520  71.210  1.00  0.00    -0.323 OA 
ENDROOT
BRANCH   2   3
HETATM    3  C   UNL     1     -11.457  14.082  70.198  1.00  0.00    -0.133 A  
HETATM    4  C   UNL     1     -10.746  15.012  69.427  1.00  0.00    -0.261 A  
HETATM    5  C   UNL     1     -10.138  10.920  68.596  1.00  0.00    -0.191 A  
HETATM    6  C   UNL     1      -9.909  14.552  68.395  1.00  0.00    -0.227 A  
HETATM    7  N   UNL     1      -9.249  10.555  67.658  1.00  0.00    -0.145 NA 
HETATM    8  C   UNL     1      -9.706  13.205  68.130  1.00  0.00    -0.228 A  
HETATM    9  C   UNL     1     -11.274  12.719  69.917  1.00  0.00     0.096 A  
HETATM   10  N   UNL     1      -8.840  12.852  67.173  1.00  0.00    -0.204 NA 
HETATM   11  C   UNL     1     -10.406  12.270  68.890  1.00  0.00    -0.085 A  
HETATM   12  C   UNL     1      -8.643  11.542  66.992  1.00  0.00    -0.161 A  
BRANCH   4  13
HETATM   13  O   UNL     1     -10.774  16.384  69.479  1.00  0.00    -0.288 OA 
BRANCH  13  14
HETATM   14  C   UNL     1     -10.327  17.117  68.342  1.00  0.00    -0.362 C  
BRANCH  14  15
HETATM   15  C   UNL     1      -9.388  18.266  68.797  1.00  0.00    -0.273 C  
HETATM   16  N   UNL     1      -8.727  20.345  66.738  1.00  0.00    -0.246 NA 
HETATM   17  C   UNL     1     -10.013  19.679  68.825  1.00  0.00    -0.542 C  
HETATM   18  C   UNL     1      -7.659  21.189  67.273  1.00  0.00    -0.034 C  
HETATM   19  C   UNL     1      -9.979  20.444  67.494  1.00  0.00    -0.397 C  
HETATM   20  C   UNL     1      -8.104  18.263  67.956  1.00  0.00    -0.279 C  
HETATM   21  C   UNL     1      -8.313  18.947  66.605  1.00  0.00    -0.296 C  
ENDBRANCH  14  15
ENDBRANCH  13  14
ENDBRANCH   4  13
BRANCH   5  22
HETATM   22  N   UNL     1     -10.848   9.907  69.289  1.00  0.00    -0.224 NA 
HETATM   23  H   UNL     1     -11.707   9.566  68.859  1.00  0.00     0.000 HD 
BRANCH  22  24
HETATM   24  C   UNL     1     -10.472   9.328  70.523  1.00  0.00    -0.255 A  
HETATM   25  C   UNL     1      -9.124   9.056  70.797  1.00  0.00    -0.245 A  
HETATM   26  F   UNL     1      -8.180   9.431  69.919  1.00  0.00    -0.092 F  
HETATM   27  C   UNL     1      -8.726   8.396  71.963  1.00  0.00    -0.267 A  
HETATM   28  C   UNL     1      -9.696   7.983  72.868  1.00  0.00    -0.283 A  
HETATM   29 BR   UNL     1      -9.196   7.062  74.442  1.00  0.00    -0.200 Br 
HETATM   30  C   UNL     1     -11.048   8.210  72.608  1.00  0.00    -0.450 A  
HETATM   31  C   UNL     1     -11.430   8.874  71.438  1.00  0.00    -0.381 A  
ENDBRANCH  22  24
ENDBRANCH   5  22
ENDBRANCH   2   3
TORSDOF 6
ENDMDL
MODEL      148
REMARK 921   NORMALIZED FREE ENERGY PREDICTED BY IDOCK:   -4.37 KCAL/MOL
REMARK 922        TOTAL FREE ENERGY PREDICTED BY IDOCK:   -6.96 KCAL/MOL
REMARK 923 INTER-LIGAND FREE ENERGY PREDICTED BY IDOCK:   -6.29 KCAL/MOL
REMARK 924 INTRA-LIGAND FREE ENERGY PREDICTED BY IDOCK:   -0.66 KCAL/MOL
REMARK 927      BINDING AFFINITY PREDICTED BY RF-SCORE:    0.00 PKD
ROOT
HETATM    1  C   UNL     1     -10.856   6.839  67.097  1.00  0.00    -0.392 C  
HETATM    2  O   UNL     1     -11.095   7.972  67.935  1.00  0.00     0.076 OA 
ENDROOT
BRANCH   2   3
HETATM    3  C   UNL     1     -10.037   8.808  68.181  1.00  0.00    -0.190 A  
HETATM    4  C   UNL     1      -8.798   8.268  68.551  1.00  0.00    -0.137 A  
HETATM    5  C   UNL     1      -9.042  12.455  68.095  1.00  0.00    -0.200 A  
HETATM    6  C   UNL     1      -7.716   9.133  68.796  1.00  0.00    -0.087 A  
HETATM    7  N   UNL     1      -7.941  13.209  68.254  1.00  0.00    -0.142 NA 
HETATM    8  C   UNL     1      -7.799  10.509  68.638  1.00  0.00    -0.116 A  
HETATM    9  C   UNL     1     -10.132  10.201  68.044  1.00  0.00    -0.186 A  
HETATM   10  N   UNL     1      -6.703  11.255  68.826  1.00  0.00    -0.064 NA 
HETATM   11  C   UNL     1      -9.026  11.059  68.269  1.00  0.00    -0.155 A  
HETATM   12  C   UNL     1      -6.824  12.568  68.611  1.00  0.00    -0.088 A  
BRANCH   4  13
HETATM   13  O   UNL     1      -8.456   6.958  68.781  1.00  0.00    -0.121 OA 
BRANCH  13  14
HETATM   14  C   UNL     1      -7.964   6.598  70.069  1.00  0.00    -0.116 C  
BRANCH  14  15
HETATM   15  C   UNL     1      -8.832   5.455  70.659  1.00  0.00    -0.145 C  
HETATM   16  N   UNL     1     -11.060   6.278  72.491  1.00  0.00    -0.259 NA 
HETATM   17  C   UNL     1     -10.312   5.432  70.215  1.00  0.00    -0.357 C  
HETATM   18  C   UNL     1     -11.595   5.073  73.123  1.00  0.00    -0.216 C  
HETATM   19  C   UNL     1     -11.263   6.311  71.039  1.00  0.00    -0.312 C  
HETATM   20  C   UNL     1      -8.729   5.451  72.190  1.00  0.00    -0.130 C  
HETATM   21  C   UNL     1      -9.650   6.495  72.820  1.00  0.00    -0.149 C  
ENDBRANCH  14  15
ENDBRANCH  13  14
ENDBRANCH   4  13
BRANCH   5  22
HETATM   22  N   UNL     1     -10.263  13.098  67.772  1.00  0.00    -0.227 NA 
HETATM   23  H   UNL     1     -11.113  12.538  67.833  1.00  0.00     0.000 HD 
BRANCH  22  24
HETATM   24  C   UNL     1     -10.409  14.447  67.371  1.00  0.00    -0.252 A  
HETATM   25  C   UNL     1     -10.257  14.807  66.025  1.00  0.00    -0.304 A  
HETATM   26  F   UNL     1     -10.061  13.853  65.102  1.00  0.00    -0.338 F  
HETATM   27  C   UNL     1     -10.298  16.141  65.609  1.00  0.00    -0.405 A  
HETATM   28  C   UNL     1     -10.477  17.139  66.560  1.00  0.00    -0.255 A  
HETATM   29 BR   UNL     1     -10.508  18.955  66.036  1.00  0.00    -0.424 Br 
HETATM   30  C   UNL     1     -10.599  16.814  67.911  1.00  0.00    -0.350 A  
HETATM   31  C   UNL     1     -10.558  15.474  68.311  1.00  0.00    -0.255 A  
ENDBRANCH  22  24
ENDBRANCH   5  22
ENDBRANCH   2   3
TORSDOF 6
ENDMDL
MODEL      149
REMARK 921   NORMALIZED FREE ENERGY PREDICTED BY IDOCK:   -4.37 KCAL/MOL
REMARK 922        TOTAL FREE ENERGY PREDICTED BY IDOCK:   -6.95 KCAL/MOL
REMARK 923 INTER-LIGAND FREE ENERGY PREDICTED BY IDOCK:   -6.29 KCAL/MOL
REMARK 924 INTRA-LIGAND FREE ENERGY PREDICTED BY IDOCK:   -0.66 KCAL/MOL
REMARK 927      BINDING AFFINITY PREDICTED BY RF-SCORE:    0.00 PKD
ROOT
HETATM    1  C   UNL     1     -10.697  15.942  70.339  1.00  0.00    -0.253 C  
HETATM    2  O   UNL     1      -9.909  16.222  69.181  1.00  0.00    -0.238 OA 
ENDROOT
BRANCH   2   3
HETATM    3  C   UNL     1      -8.756  15.499  69.014  1.00  0.00    -0.235 A  
HETATM    4  C   UNL     1      -7.513  16.125  69.180  1.00  0.00    -0.221 A  
HETATM    5  C   UNL     1      -7.515  11.993  68.327  1.00  0.00    -0.106 A  
HETATM    6  C   UNL     1      -6.337  15.373  69.013  1.00  0.00    -0.110 A  
HETATM    7  N   UNL     1      -6.352  11.322  68.276  1.00  0.00    -0.049 NA 
HETATM    8  C   UNL     1      -6.341  14.013  68.739  1.00  0.00    -0.090 A  
HETATM    9  C   UNL     1      -8.765  14.128  68.712  1.00  0.00    -0.065 A  
HETATM   10  N   UNL     1      -5.177  13.358  68.662  1.00  0.00    -0.069 NA 
HETATM   11  C   UNL     1      -7.571  13.377  68.572  1.00  0.00    -0.127 A  
HETATM   12  C   UNL     1      -5.239  12.041  68.448  1.00  0.00    -0.050 A  
BRANCH   4  13
HETATM   13  O   UNL     1      -7.235  17.444  69.442  1.00  0.00    -0.160 OA 
BRANCH  13  14
HETATM   14  C   UNL     1      -7.792  18.440  68.589  1.00  0.00    -0.299 C  
BRANCH  14  15
HETATM   15  C   UNL     1      -6.655  19.314  67.994  1.00  0.00    -0.259 C  
HETATM   16  N   UNL     1      -6.381  19.295  65.007  1.00  0.00    -0.354 NA 
HETATM   17  C   UNL     1      -7.107  20.505  67.119  1.00  0.00    -0.359 C  
HETATM   18  C   UNL     1      -5.129  19.969  64.663  1.00  0.00    -0.157 C  
HETATM   19  C   UNL     1      -7.362  20.180  65.641  1.00  0.00    -0.263 C  
HETATM   20  C   UNL     1      -5.658  18.433  67.230  1.00  0.00    -0.147 C  
HETATM   21  C   UNL     1      -6.159  18.101  65.825  1.00  0.00    -0.239 C  
ENDBRANCH  14  15
ENDBRANCH  13  14
ENDBRANCH   4  13
BRANCH   5  22
HETATM   22  N   UNL     1      -8.719  11.282  68.093  1.00  0.00    -0.148 NA 
HETATM   23  H   UNL     1      -8.962  10.550  68.760  1.00  0.00     0.000 HD 
BRANCH  22  24
HETATM   24  C   UNL     1      -9.614  11.498  67.019  1.00  0.00    -0.185 A  
HETATM   25  C   UNL     1      -9.188  11.318  65.696  1.00  0.00    -0.213 A  
HETATM   26  F   UNL     1      -7.953  10.852  65.454  1.00  0.00    -0.153 F  
HETATM   27  C   UNL     1     -10.015  11.615  64.608  1.00  0.00    -0.291 A  
HETATM   28  C   UNL     1     -11.288  12.120  64.846  1.00  0.00    -0.326 A  
HETATM   29 BR   UNL     1     -12.422  12.561  63.399  1.00  0.00    -0.396 Br 
HETATM   30  C   UNL     1     -11.727  12.341  66.152  1.00  0.00    -0.440 A  
HETATM   31  C   UNL     1     -10.890  12.036  67.230  1.00  0.00    -0.290 A  
ENDBRANCH  22  24
ENDBRANCH   5  22
ENDBRANCH   2   3
TORSDOF 6
ENDMDL
MODEL      150
REMARK 921   NORMALIZED FREE ENERGY PREDICTED BY IDOCK:   -4.33 KCAL/MOL
REMARK 922        TOTAL FREE ENERGY PREDICTED BY IDOCK:   -6.90 KCAL/MOL
REMARK 923 INTER-LIGAND FREE ENERGY PREDICTED BY IDOCK:   -6.29 KCAL/MOL
REMARK 924 INTRA-LIGAND FREE ENERGY PREDICTED BY IDOCK:   -0.61 KCAL/MOL
REMARK 927      BINDING AFFINITY PREDICTED BY RF-SCORE:    0.00 PKD
ROOT
HETATM    1  C   UNL     1     -10.548   5.908  66.389  1.00  0.00    -0.115 C  
HETATM    2  O   UNL     1      -9.983   7.195  66.651  1.00  0.00    -0.202 OA 
ENDROOT
BRANCH   2   3
HETATM    3  C   UNL     1     -10.367   7.827  67.805  1.00  0.00    -0.221 A  
HETATM    4  C   UNL     1     -10.546   9.217  67.808  1.00  0.00    -0.246 A  
HETATM    5  C   UNL     1     -11.383   7.136  71.381  1.00  0.00    -0.259 A  
HETATM    6  C   UNL     1     -10.947   9.856  68.995  1.00  0.00    -0.223 A  
HETATM    7  N   UNL     1     -11.853   7.803  72.448  1.00  0.00    -0.330 NA 
HETATM    8  C   UNL     1     -11.228   9.167  70.166  1.00  0.00    -0.187 A  
HETATM    9  C   UNL     1     -10.626   7.129  68.994  1.00  0.00    -0.225 A  
HETATM   10  N   UNL     1     -11.669   9.845  71.233  1.00  0.00    -0.381 NA 
HETATM   11  C   UNL     1     -11.055   7.783  70.176  1.00  0.00    -0.216 A  
HETATM   12  C   UNL     1     -11.974   9.128  72.319  1.00  0.00    -0.207 A  
BRANCH   4  13
HETATM   13  O   UNL     1     -10.332  10.122  66.797  1.00  0.00    -0.223 OA 
BRANCH  13  14
HETATM   14  C   UNL     1      -8.994  10.527  66.519  1.00  0.00    -0.157 C  
BRANCH  14  15
HETATM   15  C   UNL     1      -8.908  12.076  66.510  1.00  0.00    -0.172 C  
HETATM   16  N   UNL     1     -11.354  13.555  67.421  1.00  0.00    -0.298 NA 
HETATM   17  C   UNL     1      -8.986  12.764  67.891  1.00  0.00    -0.186 C  
HETATM   18  C   UNL     1     -11.166  14.973  67.114  1.00  0.00    -0.336 C  
HETATM   19  C   UNL     1     -10.402  13.044  68.412  1.00  0.00    -0.252 C  
HETATM   20  C   UNL     1      -9.962  12.658  65.559  1.00  0.00    -0.237 C  
HETATM   21  C   UNL     1     -11.340  12.723  66.216  1.00  0.00    -0.320 C  
ENDBRANCH  14  15
ENDBRANCH  13  14
ENDBRANCH   4  13
BRANCH   5  22
HETATM   22  N   UNL     1     -11.185   5.736  71.491  1.00  0.00    -0.222 NA 
HETATM   23  H   UNL     1     -11.923   5.133  71.129  1.00  0.00     0.000 HD 
BRANCH  22  24
HETATM   24  C   UNL     1     -10.055   5.101  72.056  1.00  0.00    -0.197 A  
HETATM   25  C   UNL     1     -10.215   4.049  72.969  1.00  0.00    -0.159 A  
HETATM   26  F   UNL     1     -11.446   3.585  73.236  1.00  0.00    -0.285 F  
HETATM   27  C   UNL     1      -9.125   3.464  73.619  1.00  0.00    -0.096 A  
HETATM   28  C   UNL     1      -7.848   3.951  73.368  1.00  0.00    -0.084 A  
HETATM   29 BR   UNL     1      -6.354   3.204  74.252  1.00  0.00    -0.026 Br 
HETATM   30  C   UNL     1      -7.660   5.019  72.489  1.00  0.00    -0.096 A  
HETATM   31  C   UNL     1      -8.760   5.592  71.844  1.00  0.00    -0.135 A  
ENDBRANCH  22  24
ENDBRANCH   5  22
ENDBRANCH   2   3
TORSDOF 6
ENDMDL
MODEL      151
REMARK 921   NORMALIZED FREE ENERGY PREDICTED BY IDOCK:   -4.32 KCAL/MOL
REMARK 922        TOTAL FREE ENERGY PREDICTED BY IDOCK:   -6.89 KCAL/MOL
REMARK 923 INTER-LIGAND FREE ENERGY PREDICTED BY IDOCK:   -5.98 KCAL/MOL
REMARK 924 INTRA-LIGAND FREE ENERGY PREDICTED BY IDOCK:   -0.91 KCAL/MOL
REMARK 927      BINDING AFFINITY PREDICTED BY RF-SCORE:    0.00 PKD
ROOT
HETATM    1  C   UNL     1     -10.659  11.263  63.681  1.00  0.00    -0.388 C  
HETATM    2  O   UNL     1     -10.377  10.464  64.832  1.00  0.00    -0.317 OA 
ENDROOT
BRANCH   2   3
HETATM    3  C   UNL     1      -9.354  10.874  65.648  1.00  0.00    -0.207 A  
HETATM    4  C   UNL     1      -8.123  10.206  65.607  1.00  0.00    -0.149 A  
HETATM    5  C   UNL     1      -8.448  13.539  68.174  1.00  0.00    -0.172 A  
HETATM    6  C   UNL     1      -7.078  10.639  66.442  1.00  0.00    -0.134 A  
HETATM    7  N   UNL     1      -7.376  13.950  68.872  1.00  0.00    -0.107 NA 
HETATM    8  C   UNL     1      -7.186  11.740  67.280  1.00  0.00    -0.142 A  
HETATM    9  C   UNL     1      -9.476  11.973  66.512  1.00  0.00    -0.234 A  
HETATM   10  N   UNL     1      -6.122  12.125  67.994  1.00  0.00    -0.056 NA 
HETATM   11  C   UNL     1      -8.406  12.413  67.330  1.00  0.00    -0.184 A  
HETATM   12  C   UNL     1      -6.264  13.221  68.745  1.00  0.00    -0.090 A  
BRANCH   4  13
HETATM   13  O   UNL     1      -7.760   9.098  64.880  1.00  0.00    -0.104 OA 
BRANCH  13  14
HETATM   14  C   UNL     1      -8.406   7.860  65.161  1.00  0.00    -0.120 C  
BRANCH  14  15
HETATM   15  C   UNL     1      -7.432   6.686  64.877  1.00  0.00    -0.093 C  
HETATM   16  N   UNL     1      -8.639   3.941  64.778  1.00  0.00    -0.112 NA 
HETATM   17  C   UNL     1      -7.653   5.932  63.546  1.00  0.00    -0.078 C  
HETATM   18  C   UNL     1      -7.549   2.968  64.744  1.00  0.00    -0.076 C  
HETATM   19  C   UNL     1      -8.689   4.800  63.591  1.00  0.00    -0.130 C  
HETATM   20  C   UNL     1      -7.429   5.705  66.057  1.00  0.00    -0.082 C  
HETATM   21  C   UNL     1      -8.621   4.750  65.999  1.00  0.00    -0.117 C  
ENDBRANCH  14  15
ENDBRANCH  13  14
ENDBRANCH   4  13
BRANCH   5  22
HETATM   22  N   UNL     1      -9.667  14.248  68.321  1.00  0.00    -0.215 NA 
HETATM   23  H   UNL     1     -10.440  13.754  68.765  1.00  0.00     0.000 HD 
BRANCH  22  24
HETATM   24  C   UNL     1      -9.905  15.579  67.907  1.00  0.00    -0.216 A  
HETATM   25  C   UNL     1     -10.081  15.879  66.549  1.00  0.00    -0.282 A  
HETATM   26  F   UNL     1     -10.111  14.883  65.649  1.00  0.00    -0.289 F  
HETATM   27  C   UNL     1     -10.222  17.193  66.095  1.00  0.00    -0.343 A  
HETATM   28  C   UNL     1     -10.169  18.234  67.015  1.00  0.00    -0.378 A  
HETATM   29 BR   UNL     1     -10.326  20.026  66.433  1.00  0.00    -0.536 Br 
HETATM   30  C   UNL     1      -9.963  17.969  68.370  1.00  0.00    -0.382 A  
HETATM   31  C   UNL     1      -9.826  16.648  68.808  1.00  0.00    -0.252 A  
ENDBRANCH  22  24
ENDBRANCH   5  22
ENDBRANCH   2   3
TORSDOF 6
ENDMDL
MODEL      152
REMARK 921   NORMALIZED FREE ENERGY PREDICTED BY IDOCK:   -4.32 KCAL/MOL
REMARK 922        TOTAL FREE ENERGY PREDICTED BY IDOCK:   -6.88 KCAL/MOL
REMARK 923 INTER-LIGAND FREE ENERGY PREDICTED BY IDOCK:   -6.10 KCAL/MOL
REMARK 924 INTRA-LIGAND FREE ENERGY PREDICTED BY IDOCK:   -0.78 KCAL/MOL
REMARK 927      BINDING AFFINITY PREDICTED BY RF-SCORE:    0.00 PKD
ROOT
HETATM    1  C   UNL     1     -10.625   5.815  66.990  1.00  0.00    -0.300 C  
HETATM    2  O   UNL     1     -10.584   7.189  67.380  1.00  0.00    -0.243 OA 
ENDROOT
BRANCH   2   3
HETATM    3  C   UNL     1     -10.394   7.460  68.710  1.00  0.00    -0.199 A  
HETATM    4  C   UNL     1     -10.258   8.789  69.135  1.00  0.00    -0.207 A  
HETATM    5  C   UNL     1     -10.213   5.782  72.094  1.00  0.00    -0.199 A  
HETATM    6  C   UNL     1     -10.070   9.057  70.503  1.00  0.00    -0.263 A  
HETATM    7  N   UNL     1     -10.125   6.122  73.390  1.00  0.00    -0.185 NA 
HETATM    8  C   UNL     1     -10.063   8.066  71.474  1.00  0.00    -0.180 A  
HETATM    9  C   UNL     1     -10.362   6.452  69.686  1.00  0.00    -0.249 A  
HETATM   10  N   UNL     1      -9.945   8.413  72.761  1.00  0.00    -0.266 NA 
HETATM   11  C   UNL     1     -10.198   6.740  71.064  1.00  0.00    -0.217 A  
HETATM   12  C   UNL     1      -9.996   7.425  73.658  1.00  0.00    -0.328 A  
BRANCH   4  13
HETATM   13  O   UNL     1     -10.224   9.940  68.387  1.00  0.00    -0.164 OA 
BRANCH  13  14
HETATM   14  C   UNL     1     -10.564  11.172  69.017  1.00  0.00    -0.218 C  
BRANCH  14  15
HETATM   15  C   UNL     1      -9.975  12.355  68.205  1.00  0.00    -0.224 C  
HETATM   16  N   UNL     1     -11.683  13.437  65.989  1.00  0.00    -0.346 NA 
HETATM   17  C   UNL     1     -10.727  13.699  68.328  1.00  0.00    -0.266 C  
HETATM   18  C   UNL     1     -10.870  14.363  65.202  1.00  0.00    -0.386 C  
HETATM   19  C   UNL     1     -11.909  13.886  67.366  1.00  0.00    -0.402 C  
HETATM   20  C   UNL     1      -9.819  11.958  66.731  1.00  0.00    -0.214 C  
HETATM   21  C   UNL     1     -11.141  12.076  65.973  1.00  0.00    -0.320 C  
ENDBRANCH  14  15
ENDBRANCH  13  14
ENDBRANCH   4  13
BRANCH   5  22
HETATM   22  N   UNL     1     -10.294   4.407  71.758  1.00  0.00    -0.124 NA 
HETATM   23  H   UNL     1     -11.145   3.913  72.025  1.00  0.00     0.000 HD 
BRANCH  22  24
HETATM   24  C   UNL     1      -9.300   3.658  71.085  1.00  0.00    -0.148 A  
HETATM   25  C   UNL     1      -7.959   3.740  71.486  1.00  0.00    -0.065 A  
HETATM   26  F   UNL     1      -7.633   4.462  72.569  1.00  0.00    -0.071 F  
HETATM   27  C   UNL     1      -6.939   3.091  70.784  1.00  0.00    -0.033 A  
HETATM   28  C   UNL     1      -7.261   2.360  69.648  1.00  0.00    -0.043 A  
HETATM   29 BR   UNL     1      -5.902   1.494  68.658  1.00  0.00    -0.023 Br 
HETATM   30  C   UNL     1      -8.582   2.287  69.206  1.00  0.00    -0.112 A  
HETATM   31  C   UNL     1      -9.592   2.939  69.920  1.00  0.00    -0.107 A  
ENDBRANCH  22  24
ENDBRANCH   5  22
ENDBRANCH   2   3
TORSDOF 6
ENDMDL
MODEL      153
REMARK 921   NORMALIZED FREE ENERGY PREDICTED BY IDOCK:   -4.30 KCAL/MOL
REMARK 922        TOTAL FREE ENERGY PREDICTED BY IDOCK:   -6.86 KCAL/MOL
REMARK 923 INTER-LIGAND FREE ENERGY PREDICTED BY IDOCK:   -6.03 KCAL/MOL
REMARK 924 INTRA-LIGAND FREE ENERGY PREDICTED BY IDOCK:   -0.84 KCAL/MOL
REMARK 927      BINDING AFFINITY PREDICTED BY RF-SCORE:    0.00 PKD
ROOT
HETATM    1  C   UNL     1     -10.660   9.950  70.419  1.00  0.00    -0.302 C  
HETATM    2  O   UNL     1      -9.627   9.391  69.605  1.00  0.00    -0.167 OA 
ENDROOT
BRANCH   2   3
HETATM    3  C   UNL     1      -9.677   9.647  68.260  1.00  0.00    -0.146 A  
HETATM    4  C   UNL     1      -9.889   8.593  67.360  1.00  0.00    -0.192 A  
HETATM    5  C   UNL     1      -9.589  12.488  65.766  1.00  0.00    -0.129 A  
HETATM    6  C   UNL     1      -9.946   8.868  65.982  1.00  0.00    -0.199 A  
HETATM    7  N   UNL     1      -9.749  12.683  64.446  1.00  0.00    -0.005 NA 
HETATM    8  C   UNL     1      -9.854  10.151  65.462  1.00  0.00    -0.298 A  
HETATM    9  C   UNL     1      -9.559  10.944  67.737  1.00  0.00    -0.176 A  
HETATM   10  N   UNL     1      -9.985  10.332  64.143  1.00  0.00    -0.273 NA 
HETATM   11  C   UNL     1      -9.644  11.208  66.347  1.00  0.00    -0.227 A  
HETATM   12  C   UNL     1      -9.940  11.592  63.700  1.00  0.00    -0.379 A  
BRANCH   4  13
HETATM   13  O   UNL     1     -10.004   7.248  67.611  1.00  0.00    -0.145 OA 
BRANCH  13  14
HETATM   14  C   UNL     1      -9.147   6.350  66.911  1.00  0.00    -0.133 C  
BRANCH  14  15
HETATM   15  C   UNL     1      -9.696   4.903  67.031  1.00  0.00    -0.193 C  
HETATM   16  N   UNL     1      -8.795   2.954  64.936  1.00  0.00    -0.112 NA 
HETATM   17  C   UNL     1      -8.648   3.806  67.325  1.00  0.00    -0.110 C  
HETATM   18  C   UNL     1      -9.595   1.738  65.075  1.00  0.00     0.101 C  
HETATM   19  C   UNL     1      -7.939   3.223  66.095  1.00  0.00    -0.088 C  
HETATM   20  C   UNL     1     -10.516   4.544  65.785  1.00  0.00    -0.268 C  
HETATM   21  C   UNL     1      -9.618   4.124  64.621  1.00  0.00    -0.173 C  
ENDBRANCH  14  15
ENDBRANCH  13  14
ENDBRANCH   4  13
BRANCH   5  22
HETATM   22  N   UNL     1      -9.327  13.611  66.591  1.00  0.00    -0.314 NA 
HETATM   23  H   UNL     1      -8.451  14.109  66.432  1.00  0.00     0.000 HD 
BRANCH  22  24
HETATM   24  C   UNL     1     -10.171  14.103  67.614  1.00  0.00    -0.241 A  
HETATM   25  C   UNL     1      -9.625  14.587  68.811  1.00  0.00    -0.193 A  
HETATM   26  F   UNL     1      -8.293  14.665  68.949  1.00  0.00    -0.150 F  
HETATM   27  C   UNL     1     -10.432  14.989  69.879  1.00  0.00    -0.175 A  
HETATM   28  C   UNL     1     -11.813  14.891  69.757  1.00  0.00    -0.315 A  
HETATM   29 BR   UNL     1     -12.933  15.399  71.193  1.00  0.00    -0.574 Br 
HETATM   30  C   UNL     1     -12.384  14.383  68.590  1.00  0.00    -0.051 A  
HETATM   31  C   UNL     1     -11.564  13.987  67.529  1.00  0.00    -0.397 A  
ENDBRANCH  22  24
ENDBRANCH   5  22
ENDBRANCH   2   3
TORSDOF 6
ENDMDL
MODEL      154
REMARK 921   NORMALIZED FREE ENERGY PREDICTED BY IDOCK:   -4.28 KCAL/MOL
REMARK 922        TOTAL FREE ENERGY PREDICTED BY IDOCK:   -6.84 KCAL/MOL
REMARK 923 INTER-LIGAND FREE ENERGY PREDICTED BY IDOCK:   -6.04 KCAL/MOL
REMARK 924 INTRA-LIGAND FREE ENERGY PREDICTED BY IDOCK:   -0.79 KCAL/MOL
REMARK 927      BINDING AFFINITY PREDICTED BY RF-SCORE:    0.00 PKD
ROOT
HETATM    1  C   UNL     1      -5.780  15.166  67.873  1.00  0.00    -0.135 C  
HETATM    2  O   UNL     1      -6.823  15.686  68.700  1.00  0.00    -0.114 OA 
ENDROOT
BRANCH   2   3
HETATM    3  C   UNL     1      -8.045  15.069  68.634  1.00  0.00    -0.153 A  
HETATM    4  C   UNL     1      -9.216  15.832  68.746  1.00  0.00    -0.216 A  
HETATM    5  C   UNL     1      -9.647  11.692  68.057  1.00  0.00    -0.184 A  
HETATM    6  C   UNL     1     -10.464  15.190  68.670  1.00  0.00    -0.234 A  
HETATM    7  N   UNL     1     -10.873  11.165  67.902  1.00  0.00    -0.217 NA 
HETATM    8  C   UNL     1     -10.602  13.829  68.437  1.00  0.00    -0.253 A  
HETATM    9  C   UNL     1      -8.180  13.688  68.423  1.00  0.00    -0.146 A  
HETATM   10  N   UNL     1     -11.829  13.309  68.312  1.00  0.00    -0.351 NA 
HETATM   11  C   UNL     1      -9.446  13.059  68.323  1.00  0.00    -0.208 A  
HETATM   12  C   UNL     1     -11.905  12.004  68.037  1.00  0.00    -0.269 A  
BRANCH   4  13
HETATM   13  O   UNL     1      -9.354  17.177  68.984  1.00  0.00    -0.237 OA 
BRANCH  13  14
HETATM   14  C   UNL     1     -10.536  17.831  68.528  1.00  0.00    -0.328 C  
BRANCH  14  15
HETATM   15  C   UNL     1     -10.207  18.698  67.284  1.00  0.00    -0.413 C  
HETATM   16  N   UNL     1      -7.302  19.003  66.599  1.00  0.00    -0.217 NA 
HETATM   17  C   UNL     1      -9.559  17.953  66.094  1.00  0.00    -0.192 C  
HETATM   18  C   UNL     1      -7.186  20.032  65.566  1.00  0.00    -0.282 C  
HETATM   19  C   UNL     1      -8.032  17.813  66.154  1.00  0.00    -0.202 C  
HETATM   20  C   UNL     1      -9.352  19.904  67.693  1.00  0.00    -0.464 C  
HETATM   21  C   UNL     1      -7.878  19.527  67.839  1.00  0.00    -0.295 C  
ENDBRANCH  14  15
ENDBRANCH  13  14
ENDBRANCH   4  13
BRANCH   5  22
HETATM   22  N   UNL     1      -8.524  10.830  67.979  1.00  0.00    -0.121 NA 
HETATM   23  H   UNL     1      -7.881  10.975  67.201  1.00  0.00     0.000 HD 
BRANCH  22  24
HETATM   24  C   UNL     1      -8.215   9.787  68.884  1.00  0.00    -0.117 A  
HETATM   25  C   UNL     1      -7.434  10.042  70.019  1.00  0.00    -0.173 A  
HETATM   26  F   UNL     1      -7.054  11.299  70.294  1.00  0.00    -0.036 F  
HETATM   27  C   UNL     1      -7.030   9.018  70.881  1.00  0.00    -0.093 A  
HETATM   28  C   UNL     1      -7.398   7.709  70.594  1.00  0.00    -0.067 A  
HETATM   29 BR   UNL     1      -6.844   6.297  71.722  1.00  0.00    -0.066 Br 
HETATM   30  C   UNL     1      -8.148   7.421  69.453  1.00  0.00    -0.129 A  
HETATM   31  C   UNL     1      -8.547   8.456  68.602  1.00  0.00    -0.132 A  
ENDBRANCH  22  24
ENDBRANCH   5  22
ENDBRANCH   2   3
TORSDOF 6
ENDMDL
MODEL      155
REMARK 921   NORMALIZED FREE ENERGY PREDICTED BY IDOCK:   -4.27 KCAL/MOL
REMARK 922        TOTAL FREE ENERGY PREDICTED BY IDOCK:   -6.82 KCAL/MOL
REMARK 923 INTER-LIGAND FREE ENERGY PREDICTED BY IDOCK:   -5.65 KCAL/MOL
REMARK 924 INTRA-LIGAND FREE ENERGY PREDICTED BY IDOCK:   -1.17 KCAL/MOL
REMARK 927      BINDING AFFINITY PREDICTED BY RF-SCORE:    0.00 PKD
ROOT
HETATM    1  C   UNL     1     -12.525  13.030  65.308  1.00  0.00    -0.499 C  
HETATM    2  O   UNL     1     -12.389  12.093  66.378  1.00  0.00    -0.489 OA 
ENDROOT
BRANCH   2   3
HETATM    3  C   UNL     1     -11.158  11.990  66.972  1.00  0.00    -0.298 A  
HETATM    4  C   UNL     1     -10.641  13.075  67.692  1.00  0.00    -0.224 A  
HETATM    5  C   UNL     1      -8.351   9.533  67.592  1.00  0.00    -0.125 A  
HETATM    6  C   UNL     1      -9.380  12.956  68.303  1.00  0.00    -0.194 A  
HETATM    7  N   UNL     1      -7.199   9.463  68.279  1.00  0.00    -0.076 NA 
HETATM    8  C   UNL     1      -8.633  11.787  68.274  1.00  0.00    -0.162 A  
HETATM    9  C   UNL     1     -10.395  10.813  66.919  1.00  0.00    -0.290 A  
HETATM   10  N   UNL     1      -7.472  11.737  68.938  1.00  0.00    -0.108 NA 
HETATM   11  C   UNL     1      -9.137  10.699  67.561  1.00  0.00    -0.144 A  
HETATM   12  C   UNL     1      -6.818  10.572  68.920  1.00  0.00    -0.063 A  
BRANCH   4  13
HETATM   13  O   UNL     1     -11.168  14.331  67.867  1.00  0.00    -0.265 OA 
BRANCH  13  14
HETATM   14  C   UNL     1     -10.651  15.146  68.915  1.00  0.00    -0.242 C  
BRANCH  14  15
HETATM   15  C   UNL     1     -10.212  16.519  68.341  1.00  0.00    -0.266 C  
HETATM   16  N   UNL     1      -7.764  16.521  66.606  1.00  0.00    -0.257 NA 
HETATM   17  C   UNL     1     -10.293  16.666  66.804  1.00  0.00    -0.295 C  
HETATM   18  C   UNL     1      -7.379  17.912  66.369  1.00  0.00    -0.265 C  
HETATM   19  C   UNL     1      -9.065  16.171  66.028  1.00  0.00    -0.318 C  
HETATM   20  C   UNL     1      -8.807  16.876  68.842  1.00  0.00    -0.216 C  
HETATM   21  C   UNL     1      -7.722  16.171  68.028  1.00  0.00    -0.137 C  
ENDBRANCH  14  15
ENDBRANCH  13  14
ENDBRANCH   4  13
BRANCH   5  22
HETATM   22  N   UNL     1      -8.768   8.399  66.849  1.00  0.00    -0.127 NA 
HETATM   23  H   UNL     1      -9.751   8.137  66.915  1.00  0.00     0.000 HD 
BRANCH  22  24
HETATM   24  C   UNL     1      -7.942   7.598  66.027  1.00  0.00    -0.112 A  
HETATM   25  C   UNL     1      -7.679   7.977  64.703  1.00  0.00    -0.126 A  
HETATM   26  F   UNL     1      -8.142   9.151  64.245  1.00  0.00    -0.118 F  
HETATM   27  C   UNL     1      -6.948   7.162  63.833  1.00  0.00    -0.057 A  
HETATM   28  C   UNL     1      -6.484   5.934  64.289  1.00  0.00    -0.033 A  
HETATM   29 BR   UNL     1      -5.517   4.794  63.131  1.00  0.00    -0.013 Br 
HETATM   30  C   UNL     1      -6.757   5.515  65.592  1.00  0.00    -0.045 A  
HETATM   31  C   UNL     1      -7.487   6.343  66.451  1.00  0.00    -0.086 A  
ENDBRANCH  22  24
ENDBRANCH   5  22
ENDBRANCH   2   3
TORSDOF 6
ENDMDL
MODEL      156
REMARK 921   NORMALIZED FREE ENERGY PREDICTED BY IDOCK:   -4.15 KCAL/MOL
REMARK 922        TOTAL FREE ENERGY PREDICTED BY IDOCK:   -6.66 KCAL/MOL
REMARK 923 INTER-LIGAND FREE ENERGY PREDICTED BY IDOCK:   -6.04 KCAL/MOL
REMARK 924 INTRA-LIGAND FREE ENERGY PREDICTED BY IDOCK:   -0.62 KCAL/MOL
REMARK 927      BINDING AFFINITY PREDICTED BY RF-SCORE:    0.00 PKD
ROOT
HETATM    1  C   UNL     1     -10.747   6.927  66.960  1.00  0.00    -0.362 C  
HETATM    2  O   UNL     1      -9.526   7.411  66.398  1.00  0.00    -0.178 OA 
ENDROOT
BRANCH   2   3
HETATM    3  C   UNL     1      -8.499   7.686  67.264  1.00  0.00    -0.121 A  
HETATM    4  C   UNL     1      -7.387   8.411  66.815  1.00  0.00    -0.083 A  
HETATM    5  C   UNL     1      -7.475   7.298  70.884  1.00  0.00    -0.075 A  
HETATM    6  C   UNL     1      -6.343   8.694  67.713  1.00  0.00    -0.057 A  
HETATM    7  N   UNL     1      -6.484   7.686  71.703  1.00  0.00    -0.039 NA 
HETATM    8  C   UNL     1      -6.379   8.333  69.052  1.00  0.00    -0.044 A  
HETATM    9  C   UNL     1      -8.528   7.296  68.612  1.00  0.00    -0.129 A  
HETATM   10  N   UNL     1      -5.373   8.699  69.855  1.00  0.00    -0.029 NA 
HETATM   11  C   UNL     1      -7.480   7.611  69.512  1.00  0.00    -0.092 A  
HETATM   12  C   UNL     1      -5.481   8.370  71.146  1.00  0.00    -0.033 A  
BRANCH   4  13
HETATM   13  O   UNL     1      -7.106   8.875  65.553  1.00  0.00    -0.079 OA 
BRANCH  13  14
HETATM   14  C   UNL     1      -7.650  10.130  65.153  1.00  0.00    -0.141 C  
BRANCH  14  15
HETATM   15  C   UNL     1      -9.035   9.912  64.489  1.00  0.00    -0.272 C  
HETATM   16  N   UNL     1     -10.623  12.381  63.869  1.00  0.00    -0.404 NA 
HETATM   17  C   UNL     1      -9.186  10.453  63.050  1.00  0.00    -0.312 C  
HETATM   18  C   UNL     1     -11.971  11.967  63.482  1.00  0.00    -0.507 C  
HETATM   19  C   UNL     1      -9.585  11.931  62.937  1.00  0.00     0.146 C  
HETATM   20  C   UNL     1     -10.146  10.466  65.391  1.00  0.00    -0.354 C  
HETATM   21  C   UNL     1     -10.294  11.980  65.239  1.00  0.00    -0.275 C  
ENDBRANCH  14  15
ENDBRANCH  13  14
ENDBRANCH   4  13
BRANCH   5  22
HETATM   22  N   UNL     1      -8.533   6.521  71.419  1.00  0.00    -0.125 NA 
HETATM   23  H   UNL     1      -8.294   5.596  71.777  1.00  0.00     0.000 HD 
BRANCH  22  24
HETATM   24  C   UNL     1      -9.889   6.913  71.503  1.00  0.00    -0.169 A  
HETATM   25  C   UNL     1     -10.227   8.223  71.871  1.00  0.00    -0.245 A  
HETATM   26  F   UNL     1      -9.256   9.130  72.057  1.00  0.00    -0.304 F  
HETATM   27  C   UNL     1     -11.555   8.618  72.058  1.00  0.00    -0.440 A  
HETATM   28  C   UNL     1     -12.567   7.681  71.890  1.00  0.00    -0.303 A  
HETATM   29 BR   UNL     1     -14.372   8.173  72.163  1.00  0.00    -0.447 Br 
HETATM   30  C   UNL     1     -12.260   6.362  71.556  1.00  0.00    -0.233 A  
HETATM   31  C   UNL     1     -10.927   5.982  71.370  1.00  0.00    -0.336 A  
ENDBRANCH  22  24
ENDBRANCH   5  22
ENDBRANCH   2   3
TORSDOF 6
ENDMDL
MODEL      157
REMARK 921   NORMALIZED FREE ENERGY PREDICTED BY IDOCK:   -4.14 KCAL/MOL
REMARK 922        TOTAL FREE ENERGY PREDICTED BY IDOCK:   -6.64 KCAL/MOL
REMARK 923 INTER-LIGAND FREE ENERGY PREDICTED BY IDOCK:   -5.79 KCAL/MOL
REMARK 924 INTRA-LIGAND FREE ENERGY PREDICTED BY IDOCK:   -0.85 KCAL/MOL
REMARK 927      BINDING AFFINITY PREDICTED BY RF-SCORE:    0.00 PKD
ROOT
HETATM    1  C   UNL     1     -11.022  10.101  70.663  1.00  0.00    -0.285 C  
HETATM    2  O   UNL     1     -10.114   9.658  69.653  1.00  0.00    -0.196 OA 
ENDROOT
BRANCH   2   3
HETATM    3  C   UNL     1     -10.278  10.170  68.391  1.00  0.00    -0.169 A  
HETATM    4  C   UNL     1     -10.717   9.334  67.355  1.00  0.00    -0.193 A  
HETATM    5  C   UNL     1     -10.106  13.409  66.448  1.00  0.00    -0.292 A  
HETATM    6  C   UNL     1     -10.889   9.870  66.066  1.00  0.00     0.314 A  
HETATM    7  N   UNL     1     -10.382  13.867  65.216  1.00  0.00    -0.361 NA 
HETATM    8  C   UNL     1     -10.693  11.212  65.773  1.00  0.00    -0.188 A  
HETATM    9  C   UNL     1     -10.055  11.523  68.094  1.00  0.00    -0.201 A  
HETATM   10  N   UNL     1     -10.944  11.654  64.535  1.00  0.00    -0.318 NA 
HETATM   11  C   UNL     1     -10.257  12.054  66.796  1.00  0.00    -0.225 A  
HETATM   12  C   UNL     1     -10.789  12.963  64.320  1.00  0.00    -0.397 A  
BRANCH   4  13
HETATM   13  O   UNL     1     -10.972   7.985  67.377  1.00  0.00    -0.151 OA 
BRANCH  13  14
HETATM   14  C   UNL     1     -10.069   7.110  66.706  1.00  0.00    -0.208 C  
BRANCH  14  15
HETATM   15  C   UNL     1      -8.617   7.635  66.866  1.00  0.00    -0.123 C  
HETATM   16  N   UNL     1      -6.422   5.755  66.061  1.00  0.00    -0.039 NA 
HETATM   17  C   UNL     1      -7.818   7.817  65.556  1.00  0.00    -0.111 C  
HETATM   18  C   UNL     1      -5.152   6.326  66.505  1.00  0.00    -0.012 C  
HETATM   19  C   UNL     1      -7.097   6.563  65.041  1.00  0.00    -0.057 C  
HETATM   20  C   UNL     1      -7.842   6.750  67.851  1.00  0.00    -0.113 C  
HETATM   21  C   UNL     1      -7.326   5.477  67.179  1.00  0.00    -0.080 C  
ENDBRANCH  14  15
ENDBRANCH  13  14
ENDBRANCH   4  13
BRANCH   5  22
HETATM   22  N   UNL     1      -9.616  14.321  67.417  1.00  0.00    -0.210 NA 
HETATM   23  H   UNL     1      -9.414  13.949  68.344  1.00  0.00     0.000 HD 
BRANCH  22  24
HETATM   24  C   UNL     1      -9.383  15.701  67.212  1.00  0.00    -0.215 A  
HETATM   25  C   UNL     1     -10.413  16.631  67.412  1.00  0.00    -0.314 A  
HETATM   26  F   UNL     1     -11.598  16.216  67.886  1.00  0.00    -0.288 F  
HETATM   27  C   UNL     1     -10.246  17.989  67.126  1.00  0.00    -0.366 A  
HETATM   28  C   UNL     1      -9.031  18.427  66.613  1.00  0.00    -0.289 A  
HETATM   29 BR   UNL     1      -8.780  20.252  66.188  1.00  0.00    -0.062 Br 
HETATM   30  C   UNL     1      -7.998  17.520  66.373  1.00  0.00    -0.320 A  
HETATM   31  C   UNL     1      -8.179  16.165  66.666  1.00  0.00    -0.321 A  
ENDBRANCH  22  24
ENDBRANCH   5  22
ENDBRANCH   2   3
TORSDOF 6
ENDMDL
MODEL      158
REMARK 921   NORMALIZED FREE ENERGY PREDICTED BY IDOCK:   -4.14 KCAL/MOL
REMARK 922        TOTAL FREE ENERGY PREDICTED BY IDOCK:   -6.64 KCAL/MOL
REMARK 923 INTER-LIGAND FREE ENERGY PREDICTED BY IDOCK:   -6.10 KCAL/MOL
REMARK 924 INTRA-LIGAND FREE ENERGY PREDICTED BY IDOCK:   -0.53 KCAL/MOL
REMARK 927      BINDING AFFINITY PREDICTED BY RF-SCORE:    0.00 PKD
ROOT
HETATM    1  C   UNL     1      -9.458   9.185  65.220  1.00  0.00    -0.099 C  
HETATM    2  O   UNL     1      -8.965   8.512  66.380  1.00  0.00    -0.145 OA 
ENDROOT
BRANCH   2   3
HETATM    3  C   UNL     1      -9.599   8.762  67.569  1.00  0.00    -0.152 A  
HETATM    4  C   UNL     1      -9.392   7.906  68.660  1.00  0.00    -0.145 A  
HETATM    5  C   UNL     1     -11.859  11.274  69.267  1.00  0.00    -0.354 A  
HETATM    6  C   UNL     1     -10.041   8.175  69.878  1.00  0.00    -0.195 A  
HETATM    7  N   UNL     1     -12.369  11.517  70.486  1.00  0.00    -0.354 NA 
HETATM    8  C   UNL     1     -10.846   9.287  70.076  1.00  0.00    -0.238 A  
HETATM    9  C   UNL     1     -10.432   9.875  67.758  1.00  0.00    -0.292 A  
HETATM   10  N   UNL     1     -11.373   9.505  71.287  1.00  0.00    -0.348 NA 
HETATM   11  C   UNL     1     -11.059  10.148  68.999  1.00  0.00    -0.249 A  
HETATM   12  C   UNL     1     -12.098  10.618  71.437  1.00  0.00    -0.242 A  
BRANCH   4  13
HETATM   13  O   UNL     1      -8.658   6.747  68.725  1.00  0.00    -0.123 OA 
BRANCH  13  14
HETATM   14  C   UNL     1      -8.677   5.865  67.606  1.00  0.00    -0.104 C  
BRANCH  14  15
HETATM   15  C   UNL     1      -8.204   4.454  68.045  1.00  0.00    -0.094 C  
HETATM   16  N   UNL     1      -6.634   2.884  66.027  1.00  0.00    -0.038 NA 
HETATM   17  C   UNL     1      -6.676   4.260  68.162  1.00  0.00    -0.047 C  
HETATM   18  C   UNL     1      -6.494   1.517  66.526  1.00  0.00    -0.023 C  
HETATM   19  C   UNL     1      -5.955   3.880  66.861  1.00  0.00    -0.024 C  
HETATM   20  C   UNL     1      -8.813   3.385  67.127  1.00  0.00    -0.150 C  
HETATM   21  C   UNL     1      -8.035   3.256  65.818  1.00  0.00    -0.086 C  
ENDBRANCH  14  15
ENDBRANCH  13  14
ENDBRANCH   4  13
BRANCH   5  22
HETATM   22  N   UNL     1     -12.167  12.170  68.213  1.00  0.00    -0.273 NA 
HETATM   23  H   UNL     1     -13.047  12.022  67.720  1.00  0.00     0.000 HD 
BRANCH  22  24
HETATM   24  C   UNL     1     -11.363  13.251  67.783  1.00  0.00    -0.295 A  
HETATM   25  C   UNL     1     -11.407  13.681  66.449  1.00  0.00    -0.316 A  
HETATM   26  F   UNL     1     -12.283  13.121  65.601  1.00  0.00    -0.402 F  
HETATM   27  C   UNL     1     -10.556  14.681  65.968  1.00  0.00    -0.314 A  
HETATM   28  C   UNL     1      -9.629  15.251  66.831  1.00  0.00    -0.233 A  
HETATM   29 BR   UNL     1      -8.444  16.585  66.207  1.00  0.00    -0.334 Br 
HETATM   30  C   UNL     1      -9.539  14.822  68.156  1.00  0.00    -0.209 A  
HETATM   31  C   UNL     1     -10.399  13.823  68.623  1.00  0.00    -0.225 A  
ENDBRANCH  22  24
ENDBRANCH   5  22
ENDBRANCH   2   3
TORSDOF 6
ENDMDL
MODEL      159
REMARK 921   NORMALIZED FREE ENERGY PREDICTED BY IDOCK:   -4.08 KCAL/MOL
REMARK 922        TOTAL FREE ENERGY PREDICTED BY IDOCK:   -6.56 KCAL/MOL
REMARK 923 INTER-LIGAND FREE ENERGY PREDICTED BY IDOCK:   -5.87 KCAL/MOL
REMARK 924 INTRA-LIGAND FREE ENERGY PREDICTED BY IDOCK:   -0.69 KCAL/MOL
REMARK 927      BINDING AFFINITY PREDICTED BY RF-SCORE:    0.00 PKD
ROOT
HETATM    1  C   UNL     1     -12.502   9.705  71.294  1.00  0.00    -0.355 C  
HETATM    2  O   UNL     1     -11.180   9.326  71.682  1.00  0.00    -0.349 OA 
ENDROOT
BRANCH   2   3
HETATM    3  C   UNL     1     -10.317   8.945  70.687  1.00  0.00    -0.215 A  
HETATM    4  C   UNL     1      -9.979   7.593  70.540  1.00  0.00    -0.184 A  
HETATM    5  C   UNL     1      -8.378  10.316  67.744  1.00  0.00    -0.110 A  
HETATM    6  C   UNL     1      -9.099   7.212  69.513  1.00  0.00    -0.146 A  
HETATM    7  N   UNL     1      -7.619   9.864  66.731  1.00  0.00    -0.095 NA 
HETATM    8  C   UNL     1      -8.580   8.109  68.590  1.00  0.00    -0.127 A  
HETATM    9  C   UNL     1      -9.775   9.860  69.771  1.00  0.00    -0.266 A  
HETATM   10  N   UNL     1      -7.801   7.653  67.602  1.00  0.00    -0.121 NA 
HETATM   11  C   UNL     1      -8.909   9.458  68.724  1.00  0.00    -0.132 A  
HETATM   12  C   UNL     1      -7.370   8.551  66.711  1.00  0.00    -0.082 A  
BRANCH   4  13
HETATM   13  O   UNL     1     -10.346   6.519  71.314  1.00  0.00    -0.201 OA 
BRANCH  13  14
HETATM   14  C   UNL     1     -10.418   6.691  72.727  1.00  0.00    -0.217 C  
BRANCH  14  15
HETATM   15  C   UNL     1      -9.634   5.553  73.432  1.00  0.00    -0.146 C  
HETATM   16  N   UNL     1     -10.581   2.755  72.910  1.00  0.00    -0.153 NA 
HETATM   17  C   UNL     1      -8.867   4.585  72.503  1.00  0.00    -0.126 C  
HETATM   18  C   UNL     1      -9.887   1.861  73.836  1.00  0.00    -0.087 C  
HETATM   19  C   UNL     1      -9.686   3.409  71.952  1.00  0.00    -0.165 C  
HETATM   20  C   UNL     1     -10.565   4.773  74.370  1.00  0.00    -0.283 C  
HETATM   21  C   UNL     1     -11.402   3.746  73.609  1.00  0.00    -0.138 C  
ENDBRANCH  14  15
ENDBRANCH  13  14
ENDBRANCH   4  13
BRANCH   5  22
HETATM   22  N   UNL     1      -8.622  11.709  67.838  1.00  0.00    -0.143 NA 
HETATM   23  H   UNL     1      -8.176  12.207  68.608  1.00  0.00     0.000 HD 
BRANCH  22  24
HETATM   24  C   UNL     1      -9.428  12.470  66.961  1.00  0.00    -0.217 A  
HETATM   25  C   UNL     1      -9.099  13.802  66.671  1.00  0.00    -0.179 A  
HETATM   26  F   UNL     1      -7.965  14.326  67.160  1.00  0.00    -0.192 F  
HETATM   27  C   UNL     1      -9.925  14.612  65.886  1.00  0.00    -0.352 A  
HETATM   28  C   UNL     1     -11.114  14.088  65.394  1.00  0.00    -0.318 A  
HETATM   29 BR   UNL     1     -12.269  15.164  64.354  1.00  0.00    -0.120 Br 
HETATM   30  C   UNL     1     -11.485  12.776  65.692  1.00  0.00    -0.379 A  
HETATM   31  C   UNL     1     -10.646  11.977  66.476  1.00  0.00    -0.269 A  
ENDBRANCH  22  24
ENDBRANCH   5  22
ENDBRANCH   2   3
TORSDOF 6
ENDMDL
MODEL      160
REMARK 921   NORMALIZED FREE ENERGY PREDICTED BY IDOCK:   -4.07 KCAL/MOL
REMARK 922        TOTAL FREE ENERGY PREDICTED BY IDOCK:   -6.55 KCAL/MOL
REMARK 923 INTER-LIGAND FREE ENERGY PREDICTED BY IDOCK:   -5.41 KCAL/MOL
REMARK 924 INTRA-LIGAND FREE ENERGY PREDICTED BY IDOCK:   -1.14 KCAL/MOL
REMARK 927      BINDING AFFINITY PREDICTED BY RF-SCORE:    0.00 PKD
ROOT
HETATM    1  C   UNL     1     -11.025   6.592  67.102  1.00  0.00    -0.408 C  
HETATM    2  O   UNL     1     -10.492   7.820  66.601  1.00  0.00    -0.292 OA 
ENDROOT
BRANCH   2   3
HETATM    3  C   UNL     1      -9.505   8.424  67.337  1.00  0.00    -0.147 A  
HETATM    4  C   UNL     1      -9.314   9.808  67.237  1.00  0.00    -0.138 A  
HETATM    5  C   UNL     1      -6.876   7.695  69.956  1.00  0.00    -0.050 A  
HETATM    6  C   UNL     1      -8.304  10.420  68.001  1.00  0.00    -0.118 A  
HETATM    7  N   UNL     1      -5.997   8.362  70.721  1.00  0.00    -0.032 NA 
HETATM    8  C   UNL     1      -7.509   9.722  68.899  1.00  0.00    -0.075 A  
HETATM    9  C   UNL     1      -8.687   7.710  68.226  1.00  0.00    -0.123 A  
HETATM   10  N   UNL     1      -6.615  10.392  69.637  1.00  0.00    -0.071 NA 
HETATM   11  C   UNL     1      -7.689   8.344  69.009  1.00  0.00    -0.097 A  
HETATM   12  C   UNL     1      -5.911   9.680  70.523  1.00  0.00    -0.066 A  
BRANCH   4  13
HETATM   13  O   UNL     1      -9.953  10.716  66.429  1.00  0.00    -0.206 OA 
BRANCH  13  14
HETATM   14  C   UNL     1     -11.075  11.421  66.952  1.00  0.00    -0.295 C  
BRANCH  14  15
HETATM   15  C   UNL     1     -10.979  12.921  66.564  1.00  0.00    -0.300 C  
HETATM   16  N   UNL     1     -10.863  14.882  68.832  1.00  0.00    -0.241 NA 
HETATM   17  C   UNL     1      -9.670  13.638  66.965  1.00  0.00    -0.251 C  
HETATM   18  C   UNL     1     -11.019  16.225  68.277  1.00  0.00    -0.348 C  
HETATM   19  C   UNL     1      -9.638  14.209  68.390  1.00  0.00    -0.225 C  
HETATM   20  C   UNL     1     -12.197  13.684  67.101  1.00  0.00    -0.340 C  
HETATM   21  C   UNL     1     -12.034  14.039  68.578  1.00  0.00    -0.348 C  
ENDBRANCH  14  15
ENDBRANCH  13  14
ENDBRANCH   4  13
BRANCH   5  22
HETATM   22  N   UNL     1      -6.961   6.286  70.091  1.00  0.00    -0.064 NA 
HETATM   23  H   UNL     1      -6.311   5.727  69.540  1.00  0.00     0.000 HD 
BRANCH  22  24
HETATM   24  C   UNL     1      -7.867   5.587  70.922  1.00  0.00    -0.104 A  
HETATM   25  C   UNL     1      -7.594   5.421  72.287  1.00  0.00    -0.100 A  
HETATM   26  F   UNL     1      -6.512   6.007  72.822  1.00  0.00    -0.056 F  
HETATM   27  C   UNL     1      -8.418   4.654  73.117  1.00  0.00    -0.103 A  
HETATM   28  C   UNL     1      -9.528   4.024  72.569  1.00  0.00    -0.130 A  
HETATM   29 BR   UNL     1     -10.647   2.955  73.655  1.00  0.00    -0.283 Br 
HETATM   30  C   UNL     1      -9.808   4.144  71.207  1.00  0.00    -0.249 A  
HETATM   31  C   UNL     1      -8.976   4.917  70.391  1.00  0.00    -0.151 A  
ENDBRANCH  22  24
ENDBRANCH   5  22
ENDBRANCH   2   3
TORSDOF 6
ENDMDL
MODEL      161
REMARK 921   NORMALIZED FREE ENERGY PREDICTED BY IDOCK:   -4.07 KCAL/MOL
REMARK 922        TOTAL FREE ENERGY PREDICTED BY IDOCK:   -6.54 KCAL/MOL
REMARK 923 INTER-LIGAND FREE ENERGY PREDICTED BY IDOCK:   -5.56 KCAL/MOL
REMARK 924 INTRA-LIGAND FREE ENERGY PREDICTED BY IDOCK:   -0.99 KCAL/MOL
REMARK 927      BINDING AFFINITY PREDICTED BY RF-SCORE:    0.00 PKD
ROOT
HETATM    1  C   UNL     1     -11.005   7.746  70.362  1.00  0.00    -0.249 C  
HETATM    2  O   UNL     1     -10.999   9.059  69.797  1.00  0.00    -0.231 OA 
ENDROOT
BRANCH   2   3
HETATM    3  C   UNL     1     -10.306   9.237  68.627  1.00  0.00    -0.205 A  
HETATM    4  C   UNL     1      -9.858  10.517  68.274  1.00  0.00    -0.149 A  
HETATM    5  C   UNL     1      -8.853   7.322  65.708  1.00  0.00    -0.066 A  
HETATM    6  C   UNL     1      -9.143  10.688  67.075  1.00  0.00    -0.155 A  
HETATM    7  N   UNL     1      -8.085   7.549  64.629  1.00  0.00    -0.128 NA 
HETATM    8  C   UNL     1      -8.808   9.634  66.237  1.00  0.00    -0.151 A  
HETATM    9  C   UNL     1      -9.991   8.171  67.770  1.00  0.00    -0.230 A  
HETATM   10  N   UNL     1      -8.067   9.874  65.149  1.00  0.00    -0.131 NA 
HETATM   11  C   UNL     1      -9.247   8.355  66.578  1.00  0.00    -0.238 A  
HETATM   12  C   UNL     1      -7.729   8.817  64.405  1.00  0.00    -0.123 A  
BRANCH   4  13
HETATM   13  O   UNL     1     -10.058  11.715  68.916  1.00  0.00    -0.181 OA 
BRANCH  13  14
HETATM   14  C   UNL     1     -11.173  12.514  68.531  1.00  0.00    -0.283 C  
BRANCH  14  15
HETATM   15  C   UNL     1     -10.682  13.735  67.708  1.00  0.00    -0.254 C  
HETATM   16  N   UNL     1     -10.439  16.333  69.188  1.00  0.00    -0.259 NA 
HETATM   17  C   UNL     1      -9.313  14.321  68.122  1.00  0.00    -0.206 C  
HETATM   18  C   UNL     1     -10.203  17.392  68.207  1.00  0.00    -0.362 C  
HETATM   19  C   UNL     1      -9.351  15.353  69.257  1.00  0.00    -0.254 C  
HETATM   20  C   UNL     1     -11.755  14.831  67.698  1.00  0.00    -0.364 C  
HETATM   21  C   UNL     1     -11.725  15.663  68.979  1.00  0.00    -0.395 C  
ENDBRANCH  14  15
ENDBRANCH  13  14
ENDBRANCH   4  13
BRANCH   5  22
HETATM   22  N   UNL     1      -9.302   6.000  65.955  1.00  0.00    -0.334 NA 
HETATM   23  H   UNL     1     -10.189   5.726  65.533  1.00  0.00     0.000 HD 
BRANCH  22  24
HETATM   24  C   UNL     1      -8.631   5.029  66.733  1.00  0.00    -0.109 A  
HETATM   25  C   UNL     1      -7.815   4.068  66.119  1.00  0.00    -0.090 A  
HETATM   26  F   UNL     1      -7.602   4.128  64.795  1.00  0.00    -0.072 F  
HETATM   27  C   UNL     1      -7.216   3.036  66.846  1.00  0.00    -0.058 A  
HETATM   28  C   UNL     1      -7.448   2.950  68.214  1.00  0.00    -0.052 A  
HETATM   29 BR   UNL     1      -6.677   1.550  69.223  1.00  0.00    -0.029 Br 
HETATM   30  C   UNL     1      -8.281   3.873  68.848  1.00  0.00    -0.083 A  
HETATM   31  C   UNL     1      -8.872   4.901  68.107  1.00  0.00    -0.113 A  
ENDBRANCH  22  24
ENDBRANCH   5  22
ENDBRANCH   2   3
TORSDOF 6
ENDMDL
MODEL      162
REMARK 921   NORMALIZED FREE ENERGY PREDICTED BY IDOCK:   -4.06 KCAL/MOL
REMARK 922        TOTAL FREE ENERGY PREDICTED BY IDOCK:   -6.53 KCAL/MOL
REMARK 923 INTER-LIGAND FREE ENERGY PREDICTED BY IDOCK:   -5.54 KCAL/MOL
REMARK 924 INTRA-LIGAND FREE ENERGY PREDICTED BY IDOCK:   -0.99 KCAL/MOL
REMARK 927      BINDING AFFINITY PREDICTED BY RF-SCORE:    0.00 PKD
ROOT
HETATM    1  C   UNL     1      -6.328   9.029  72.114  1.00  0.00     0.027 C  
HETATM    2  O   UNL     1      -7.727   8.747  72.033  1.00  0.00    -0.290 OA 
ENDROOT
BRANCH   2   3
HETATM    3  C   UNL     1      -8.286   8.688  70.783  1.00  0.00    -0.152 A  
HETATM    4  C   UNL     1      -8.229   7.494  70.051  1.00  0.00    -0.130 A  
HETATM    5  C   UNL     1     -10.290  10.743  68.320  1.00  0.00    -0.173 A  
HETATM    6  C   UNL     1      -8.812   7.442  68.773  1.00  0.00    -0.130 A  
HETATM    7  N   UNL     1     -10.903  10.589  67.135  1.00  0.00    -0.278 NA 
HETATM    8  C   UNL     1      -9.495   8.511  68.210  1.00  0.00    -0.134 A  
HETATM    9  C   UNL     1      -8.955   9.780  70.207  1.00  0.00    -0.198 A  
HETATM   10  N   UNL     1     -10.078   8.357  67.015  1.00  0.00    -0.255 NA 
HETATM   11  C   UNL     1      -9.560   9.705  68.927  1.00  0.00    -0.161 A  
HETATM   12  C   UNL     1     -10.767   9.400  66.542  1.00  0.00     0.058 A  
BRANCH   4  13
HETATM   13  O   UNL     1      -7.615   6.308  70.373  1.00  0.00    -0.091 OA 
BRANCH  13  14
HETATM   14  C   UNL     1      -7.996   5.650  71.578  1.00  0.00    -0.117 C  
BRANCH  14  15
HETATM   15  C   UNL     1      -9.312   4.860  71.349  1.00  0.00    -0.199 C  
HETATM   16  N   UNL     1     -10.401   3.365  73.711  1.00  0.00    -0.140 NA 
HETATM   17  C   UNL     1     -10.543   5.356  72.140  1.00  0.00    -0.284 C  
HETATM   18  C   UNL     1     -11.485   2.504  73.242  1.00  0.00    -0.027 C  
HETATM   19  C   UNL     1     -10.687   4.795  73.561  1.00  0.00    -0.273 C  
HETATM   20  C   UNL     1      -9.079   3.364  71.599  1.00  0.00    -0.171 C  
HETATM   21  C   UNL     1      -9.118   3.028  73.089  1.00  0.00    -0.089 C  
ENDBRANCH  14  15
ENDBRANCH  13  14
ENDBRANCH   4  13
BRANCH   5  22
HETATM   22  N   UNL     1     -10.360  12.006  68.961  1.00  0.00    -0.420 NA 
HETATM   23  H   UNL     1     -10.721  12.023  69.914  1.00  0.00     0.000 HD 
BRANCH  22  24
HETATM   24  C   UNL     1      -9.973  13.244  68.396  1.00  0.00    -0.226 A  
HETATM   25  C   UNL     1     -10.936  14.107  67.855  1.00  0.00    -0.251 A  
HETATM   26  F   UNL     1     -12.237  13.796  67.955  1.00  0.00    -0.386 F  
HETATM   27  C   UNL     1     -10.580  15.292  67.203  1.00  0.00    -0.302 A  
HETATM   28  C   UNL     1      -9.235  15.613  67.073  1.00  0.00    -0.222 A  
HETATM   29 BR   UNL     1      -8.717  17.193  66.172  1.00  0.00    -0.161 Br 
HETATM   30  C   UNL     1      -8.253  14.757  67.573  1.00  0.00    -0.201 A  
HETATM   31  C   UNL     1      -8.624  13.577  68.225  1.00  0.00    -0.168 A  
ENDBRANCH  22  24
ENDBRANCH   5  22
ENDBRANCH   2   3
TORSDOF 6
ENDMDL
MODEL      163
REMARK 921   NORMALIZED FREE ENERGY PREDICTED BY IDOCK:   -3.95 KCAL/MOL
REMARK 922        TOTAL FREE ENERGY PREDICTED BY IDOCK:   -6.39 KCAL/MOL
REMARK 923 INTER-LIGAND FREE ENERGY PREDICTED BY IDOCK:   -6.08 KCAL/MOL
REMARK 924 INTRA-LIGAND FREE ENERGY PREDICTED BY IDOCK:   -0.31 KCAL/MOL
REMARK 927      BINDING AFFINITY PREDICTED BY RF-SCORE:    0.00 PKD
ROOT
HETATM    1  C   UNL     1      -8.734   9.926  63.866  1.00  0.00    -0.214 C  
HETATM    2  O   UNL     1      -8.556   8.804  64.732  1.00  0.00    -0.174 OA 
ENDROOT
BRANCH   2   3
HETATM    3  C   UNL     1      -9.169   8.851  65.957  1.00  0.00    -0.228 A  
HETATM    4  C   UNL     1      -8.886   7.866  66.914  1.00  0.00    -0.133 A  
HETATM    5  C   UNL     1     -11.516  10.969  68.032  1.00  0.00    -0.290 A  
HETATM    6  C   UNL     1      -9.515   7.926  68.170  1.00  0.00    -0.154 A  
HETATM    7  N   UNL     1     -12.004  11.012  69.283  1.00  0.00    -0.340 NA 
HETATM    8  C   UNL     1     -10.374   8.953  68.537  1.00  0.00    -0.198 A  
HETATM    9  C   UNL     1     -10.057   9.877  66.315  1.00  0.00    -0.311 A  
HETATM   10  N   UNL     1     -10.878   8.971  69.776  1.00  0.00    -0.227 NA 
HETATM   11  C   UNL     1     -10.663   9.939  67.595  1.00  0.00    -0.339 A  
HETATM   12  C   UNL     1     -11.658  10.008  70.094  1.00  0.00    -0.252 A  
BRANCH   4  13
HETATM   13  O   UNL     1      -8.088   6.753  66.803  1.00  0.00    -0.106 OA 
BRANCH  13  14
HETATM   14  C   UNL     1      -7.950   5.900  67.936  1.00  0.00    -0.105 C  
BRANCH  14  15
HETATM   15  C   UNL     1      -7.037   6.578  68.993  1.00  0.00    -0.085 C  
HETATM   16  N   UNL     1      -5.775   4.769  71.025  1.00  0.00    -0.015 NA 
HETATM   17  C   UNL     1      -5.541   6.196  68.937  1.00  0.00    -0.011 C  
HETATM   18  C   UNL     1      -5.164   5.604  72.058  1.00  0.00    -0.017 C  
HETATM   19  C   UNL     1      -5.154   4.926  69.707  1.00  0.00     0.000 C  
HETATM   20  C   UNL     1      -7.599   6.347  70.401  1.00  0.00    -0.096 C  
HETATM   21  C   UNL     1      -7.223   4.967  70.940  1.00  0.00    -0.060 C  
ENDBRANCH  14  15
ENDBRANCH  13  14
ENDBRANCH   4  13
BRANCH   5  22
HETATM   22  N   UNL     1     -11.901  11.983  67.119  1.00  0.00    -0.604 NA 
HETATM   23  H   UNL     1     -12.722  11.800  66.543  1.00  0.00     0.000 HD 
BRANCH  22  24
HETATM   24  C   UNL     1     -11.249  13.224  66.936  1.00  0.00    -0.305 A  
HETATM   25  C   UNL     1     -11.897  14.274  66.269  1.00  0.00    -0.406 A  
HETATM   26  F   UNL     1     -13.174  14.126  65.884  1.00  0.00    -0.515 F  
HETATM   27  C   UNL     1     -11.248  15.479  65.985  1.00  0.00    -0.107 A  
HETATM   28  C   UNL     1      -9.919  15.635  66.359  1.00  0.00    -0.281 A  
HETATM   29 BR   UNL     1      -9.002  17.241  65.965  1.00  0.00    -0.019 Br 
HETATM   30  C   UNL     1      -9.238  14.596  66.995  1.00  0.00    -0.252 A  
HETATM   31  C   UNL     1      -9.901  13.397  67.274  1.00  0.00    -0.233 A  
ENDBRANCH  22  24
ENDBRANCH   5  22
ENDBRANCH   2   3
TORSDOF 6
ENDMDL
MODEL      164
REMARK 921   NORMALIZED FREE ENERGY PREDICTED BY IDOCK:   -3.90 KCAL/MOL
REMARK 922        TOTAL FREE ENERGY PREDICTED BY IDOCK:   -6.31 KCAL/MOL
REMARK 923 INTER-LIGAND FREE ENERGY PREDICTED BY IDOCK:   -5.54 KCAL/MOL
REMARK 924 INTRA-LIGAND FREE ENERGY PREDICTED BY IDOCK:   -0.77 KCAL/MOL
REMARK 927      BINDING AFFINITY PREDICTED BY RF-SCORE:    0.00 PKD
ROOT
HETATM    1  C   UNL     1      -6.462  10.936  69.690  1.00  0.00    -0.114 C  
HETATM    2  O   UNL     1      -7.731  11.380  69.205  1.00  0.00    -0.102 OA 
ENDROOT
BRANCH   2   3
HETATM    3  C   UNL     1      -8.542  10.445  68.616  1.00  0.00    -0.133 A  
HETATM    4  C   UNL     1      -9.416  10.831  67.591  1.00  0.00    -0.154 A  
HETATM    5  C   UNL     1      -9.304   6.741  68.619  1.00  0.00    -0.131 A  
HETATM    6  C   UNL     1     -10.239   9.863  66.988  1.00  0.00    -0.294 A  
HETATM    7  N   UNL     1     -10.052   5.860  67.934  1.00  0.00    -0.148 NA 
HETATM    8  C   UNL     1     -10.195   8.518  67.324  1.00  0.00    -0.276 A  
HETATM    9  C   UNL     1      -8.511   9.089  68.977  1.00  0.00    -0.132 A  
HETATM   10  N   UNL     1     -10.965   7.651  66.655  1.00  0.00     0.218 NA 
HETATM   11  C   UNL     1      -9.329   8.120  68.342  1.00  0.00    -0.135 A  
HETATM   12  C   UNL     1     -10.845   6.361  66.983  1.00  0.00    -0.392 A  
BRANCH   4  13
HETATM   13  O   UNL     1      -9.656  12.084  67.081  1.00  0.00    -0.187 OA 
BRANCH  13  14
HETATM   14  C   UNL     1     -10.973  12.396  66.634  1.00  0.00    -0.268 C  
BRANCH  14  15
HETATM   15  C   UNL     1     -11.124  13.933  66.487  1.00  0.00    -0.310 C  
HETATM   16  N   UNL     1     -10.358  15.585  68.871  1.00  0.00    -0.213 NA 
HETATM   17  C   UNL     1      -9.812  14.748  66.536  1.00  0.00    -0.287 C  
HETATM   18  C   UNL     1     -10.793  16.960  68.628  1.00  0.00    -0.314 C  
HETATM   19  C   UNL     1      -9.322  15.130  67.939  1.00  0.00    -0.185 C  
HETATM   20  C   UNL     1     -12.127  14.466  67.519  1.00  0.00    -0.327 C  
HETATM   21  C   UNL     1     -11.481  14.646  68.892  1.00  0.00    -0.298 C  
ENDBRANCH  14  15
ENDBRANCH  13  14
ENDBRANCH   4  13
BRANCH   5  22
HETATM   22  N   UNL     1      -8.489   6.262  69.676  1.00  0.00    -0.127 NA 
HETATM   23  H   UNL     1      -7.482   6.390  69.580  1.00  0.00     0.000 HD 
BRANCH  22  24
HETATM   24  C   UNL     1      -8.948   5.621  70.851  1.00  0.00    -0.140 A  
HETATM   25  C   UNL     1      -8.096   4.774  71.574  1.00  0.00    -0.103 A  
HETATM   26  F   UNL     1      -6.815   4.643  71.198  1.00  0.00    -0.028 F  
HETATM   27  C   UNL     1      -8.545   4.051  72.683  1.00  0.00    -0.103 A  
HETATM   28  C   UNL     1      -9.875   4.161  73.068  1.00  0.00    -0.133 A  
HETATM   29 BR   UNL     1     -10.522   3.174  74.545  1.00  0.00    -0.170 Br 
HETATM   30  C   UNL     1     -10.754   4.971  72.348  1.00  0.00    -0.262 A  
HETATM   31  C   UNL     1     -10.290   5.691  71.243  1.00  0.00    -0.289 A  
ENDBRANCH  22  24
ENDBRANCH   5  22
ENDBRANCH   2   3
TORSDOF 6
ENDMDL
MODEL      165
REMARK 921   NORMALIZED FREE ENERGY PREDICTED BY IDOCK:   -3.87 KCAL/MOL
REMARK 922        TOTAL FREE ENERGY PREDICTED BY IDOCK:   -6.28 KCAL/MOL
REMARK 923 INTER-LIGAND FREE ENERGY PREDICTED BY IDOCK:   -5.49 KCAL/MOL
REMARK 924 INTRA-LIGAND FREE ENERGY PREDICTED BY IDOCK:   -0.79 KCAL/MOL
REMARK 927      BINDING AFFINITY PREDICTED BY RF-SCORE:    0.00 PKD
ROOT
HETATM    1  C   UNL     1      -8.734   9.926  63.866  1.00  0.00    -0.214 C  
HETATM    2  O   UNL     1      -8.556   8.804  64.732  1.00  0.00    -0.174 OA 
ENDROOT
BRANCH   2   3
HETATM    3  C   UNL     1      -9.169   8.851  65.957  1.00  0.00    -0.228 A  
HETATM    4  C   UNL     1      -8.886   7.866  66.914  1.00  0.00    -0.133 A  
HETATM    5  C   UNL     1     -11.516  10.969  68.032  1.00  0.00    -0.290 A  
HETATM    6  C   UNL     1      -9.515   7.926  68.170  1.00  0.00    -0.154 A  
HETATM    7  N   UNL     1     -12.004  11.012  69.283  1.00  0.00    -0.340 NA 
HETATM    8  C   UNL     1     -10.374   8.953  68.537  1.00  0.00    -0.198 A  
HETATM    9  C   UNL     1     -10.057   9.877  66.315  1.00  0.00    -0.311 A  
HETATM   10  N   UNL     1     -10.878   8.971  69.776  1.00  0.00    -0.227 NA 
HETATM   11  C   UNL     1     -10.663   9.939  67.595  1.00  0.00    -0.339 A  
HETATM   12  C   UNL     1     -11.658  10.008  70.094  1.00  0.00    -0.252 A  
BRANCH   4  13
HETATM   13  O   UNL     1      -8.088   6.753  66.803  1.00  0.00    -0.106 OA 
BRANCH  13  14
HETATM   14  C   UNL     1      -8.158   5.982  65.607  1.00  0.00    -0.126 C  
BRANCH  14  15
HETATM   15  C   UNL     1      -9.477   5.166  65.587  1.00  0.00    -0.129 C  
HETATM   16  N   UNL     1      -9.546   2.784  63.764  1.00  0.00    -0.118 NA 
HETATM   17  C   UNL     1      -9.383   3.719  66.121  1.00  0.00    -0.183 C  
HETATM   18  C   UNL     1     -10.925   2.301  63.703  1.00  0.00    -0.027 C  
HETATM   19  C   UNL     1      -8.946   2.663  65.096  1.00  0.00    -0.133 C  
HETATM   20  C   UNL     1     -10.086   5.181  64.178  1.00  0.00     1.057 C  
HETATM   21  C   UNL     1      -9.418   4.155  63.264  1.00  0.00    -0.141 C  
ENDBRANCH  14  15
ENDBRANCH  13  14
ENDBRANCH   4  13
BRANCH   5  22
HETATM   22  N   UNL     1     -11.901  11.983  67.119  1.00  0.00    -0.604 NA 
HETATM   23  H   UNL     1     -12.722  11.800  66.543  1.00  0.00     0.000 HD 
BRANCH  22  24
HETATM   24  C   UNL     1     -11.249  13.224  66.936  1.00  0.00    -0.305 A  
HETATM   25  C   UNL     1     -11.897  14.274  66.269  1.00  0.00    -0.406 A  
HETATM   26  F   UNL     1     -13.174  14.126  65.884  1.00  0.00    -0.515 F  
HETATM   27  C   UNL     1     -11.248  15.479  65.985  1.00  0.00    -0.107 A  
HETATM   28  C   UNL     1      -9.919  15.635  66.359  1.00  0.00    -0.281 A  
HETATM   29 BR   UNL     1      -9.002  17.241  65.965  1.00  0.00    -0.019 Br 
HETATM   30  C   UNL     1      -9.238  14.596  66.995  1.00  0.00    -0.252 A  
HETATM   31  C   UNL     1      -9.901  13.397  67.274  1.00  0.00    -0.233 A  
ENDBRANCH  22  24
ENDBRANCH   5  22
ENDBRANCH   2   3
TORSDOF 6
ENDMDL
MODEL      166
REMARK 921   NORMALIZED FREE ENERGY PREDICTED BY IDOCK:   -3.80 KCAL/MOL
REMARK 922        TOTAL FREE ENERGY PREDICTED BY IDOCK:   -6.18 KCAL/MOL
REMARK 923 INTER-LIGAND FREE ENERGY PREDICTED BY IDOCK:   -5.26 KCAL/MOL
REMARK 924 INTRA-LIGAND FREE ENERGY PREDICTED BY IDOCK:   -0.93 KCAL/MOL
REMARK 927      BINDING AFFINITY PREDICTED BY RF-SCORE:    0.00 PKD
ROOT
HETATM    1  C   UNL     1      -9.318   8.726  71.861  1.00  0.00    -0.273 C  
HETATM    2  O   UNL     1      -8.129   8.804  71.072  1.00  0.00    -0.126 OA 
ENDROOT
BRANCH   2   3
HETATM    3  C   UNL     1      -8.099   8.084  69.906  1.00  0.00    -0.117 A  
HETATM    4  C   UNL     1      -8.183   6.686  69.950  1.00  0.00    -0.127 A  
HETATM    5  C   UNL     1      -8.002   8.506  66.149  1.00  0.00    -0.102 A  
HETATM    6  C   UNL     1      -8.158   5.957  68.748  1.00  0.00    -0.103 A  
HETATM    7  N   UNL     1      -8.078   7.749  65.042  1.00  0.00    -0.137 NA 
HETATM    8  C   UNL     1      -8.106   6.559  67.500  1.00  0.00    -0.121 A  
HETATM    9  C   UNL     1      -8.020   8.697  68.646  1.00  0.00    -0.115 A  
HETATM   10  N   UNL     1      -8.153   5.794  66.403  1.00  0.00    -0.105 NA 
HETATM   11  C   UNL     1      -8.022   7.950  67.441  1.00  0.00    -0.122 A  
HETATM   12  C   UNL     1      -8.151   6.428  65.226  1.00  0.00    -0.133 A  
BRANCH   4  13
HETATM   13  O   UNL     1      -8.236   5.854  71.042  1.00  0.00    -0.118 OA 
BRANCH  13  14
HETATM   14  C   UNL     1      -8.362   4.452  70.824  1.00  0.00    -0.079 C  
BRANCH  14  15
HETATM   15  C   UNL     1      -9.830   4.014  71.072  1.00  0.00    -0.230 C  
HETATM   16  N   UNL     1     -10.385   2.609  73.664  1.00  0.00    -0.115 NA 
HETATM   17  C   UNL     1     -10.553   4.710  72.247  1.00  0.00    -0.203 C  
HETATM   18  C   UNL     1     -11.743   2.070  73.606  1.00  0.00    -0.151 C  
HETATM   19  C   UNL     1     -10.338   4.074  73.627  1.00  0.00    -0.168 C  
HETATM   20  C   UNL     1      -9.907   2.489  71.222  1.00  0.00    -0.131 C  
HETATM   21  C   UNL     1      -9.519   2.039  72.630  1.00  0.00    -0.082 C  
ENDBRANCH  14  15
ENDBRANCH  13  14
ENDBRANCH   4  13
BRANCH   5  22
HETATM   22  N   UNL     1      -7.865   9.910  66.002  1.00  0.00    -0.108 NA 
HETATM   23  H   UNL     1      -6.919  10.289  66.030  1.00  0.00     0.000 HD 
BRANCH  22  24
HETATM   24  C   UNL     1      -8.923  10.831  65.821  1.00  0.00    -0.187 A  
HETATM   25  C   UNL     1      -9.179  11.815  66.786  1.00  0.00    -0.194 A  
HETATM   26  F   UNL     1      -8.359  11.938  67.841  1.00  0.00    -0.125 F  
HETATM   27  C   UNL     1     -10.275  12.678  66.687  1.00  0.00    -0.246 A  
HETATM   28  C   UNL     1     -11.144  12.545  65.611  1.00  0.00    -0.303 A  
HETATM   29 BR   UNL     1     -12.651  13.675  65.461  1.00  0.00    -0.508 Br 
HETATM   30  C   UNL     1     -10.933  11.553  64.652  1.00  0.00    -0.353 A  
HETATM   31  C   UNL     1      -9.832  10.699  64.763  1.00  0.00    -0.372 A  
ENDBRANCH  22  24
ENDBRANCH   5  22
ENDBRANCH   2   3
TORSDOF 6
ENDMDL
MODEL      167
REMARK 921   NORMALIZED FREE ENERGY PREDICTED BY IDOCK:   -3.80 KCAL/MOL
REMARK 922        TOTAL FREE ENERGY PREDICTED BY IDOCK:   -6.18 KCAL/MOL
REMARK 923 INTER-LIGAND FREE ENERGY PREDICTED BY IDOCK:   -5.20 KCAL/MOL
REMARK 924 INTRA-LIGAND FREE ENERGY PREDICTED BY IDOCK:   -0.98 KCAL/MOL
REMARK 927      BINDING AFFINITY PREDICTED BY RF-SCORE:    0.00 PKD
ROOT
HETATM    1  C   UNL     1     -11.137   6.585  67.001  1.00  0.00    -0.339 C  
HETATM    2  O   UNL     1     -10.655   6.655  68.344  1.00  0.00    -0.200 OA 
ENDROOT
BRANCH   2   3
HETATM    3  C   UNL     1      -9.484   7.335  68.558  1.00  0.00    -0.140 A  
HETATM    4  C   UNL     1      -8.267   6.639  68.561  1.00  0.00    -0.119 A  
HETATM    5  C   UNL     1      -8.119  10.825  69.065  1.00  0.00    -0.140 A  
HETATM    6  C   UNL     1      -7.071   7.347  68.775  1.00  0.00    -0.081 A  
HETATM    7  N   UNL     1      -6.931  11.443  69.168  1.00  0.00    -0.110 NA 
HETATM    8  C   UNL     1      -7.026   8.724  68.933  1.00  0.00    -0.062 A  
HETATM    9  C   UNL     1      -9.445   8.726  68.742  1.00  0.00    -0.142 A  
HETATM   10  N   UNL     1      -5.838   9.328  69.064  1.00  0.00    -0.039 NA 
HETATM   11  C   UNL     1      -8.229   9.429  68.930  1.00  0.00    -0.111 A  
HETATM   12  C   UNL     1      -5.848  10.661  69.161  1.00  0.00    -0.040 A  
BRANCH   4  13
HETATM   13  O   UNL     1      -8.039   5.290  68.436  1.00  0.00    -0.090 OA 
BRANCH  13  14
HETATM   14  C   UNL     1      -7.400   4.815  67.254  1.00  0.00    -0.077 C  
BRANCH  14  15
HETATM   15  C   UNL     1      -7.892   3.379  66.935  1.00  0.00    -0.080 C  
HETATM   16  N   UNL     1      -9.162   2.969  64.248  1.00  0.00    -0.118 NA 
HETATM   17  C   UNL     1      -7.161   2.656  65.782  1.00  0.00    -0.064 C  
HETATM   18  C   UNL     1      -9.768   1.638  64.232  1.00  0.00    -0.088 C  
HETATM   19  C   UNL     1      -7.702   2.941  64.374  1.00  0.00    -0.077 C  
HETATM   20  C   UNL     1      -9.407   3.382  66.693  1.00  0.00    -0.179 C  
HETATM   21  C   UNL     1      -9.751   3.832  65.274  1.00  0.00    -0.167 C  
ENDBRANCH  14  15
ENDBRANCH  13  14
ENDBRANCH   4  13
BRANCH   5  22
HETATM   22  N   UNL     1      -9.299  11.609  69.124  1.00  0.00    -0.386 NA 
HETATM   23  H   UNL     1      -9.726  11.736  70.041  1.00  0.00     0.000 HD 
BRANCH  22  24
HETATM   24  C   UNL     1      -9.936  12.232  68.026  1.00  0.00    -0.202 A  
HETATM   25  C   UNL     1      -9.370  13.367  67.428  1.00  0.00    -0.221 A  
HETATM   26  F   UNL     1      -8.173  13.809  67.845  1.00  0.00    -0.124 F  
HETATM   27  C   UNL     1     -10.020  14.064  66.406  1.00  0.00    -0.301 A  
HETATM   28  C   UNL     1     -11.270  13.630  65.982  1.00  0.00    -0.296 A  
HETATM   29 BR   UNL     1     -12.190  14.566  64.621  1.00  0.00    -0.427 Br 
HETATM   30  C   UNL     1     -11.873  12.523  66.580  1.00  0.00    -0.434 A  
HETATM   31  C   UNL     1     -11.209  11.834  67.600  1.00  0.00    -0.345 A  
ENDBRANCH  22  24
ENDBRANCH   5  22
ENDBRANCH   2   3
TORSDOF 6
ENDMDL
MODEL      168
REMARK 921   NORMALIZED FREE ENERGY PREDICTED BY IDOCK:   -3.79 KCAL/MOL
REMARK 922        TOTAL FREE ENERGY PREDICTED BY IDOCK:   -6.17 KCAL/MOL
REMARK 923 INTER-LIGAND FREE ENERGY PREDICTED BY IDOCK:   -5.03 KCAL/MOL
REMARK 924 INTRA-LIGAND FREE ENERGY PREDICTED BY IDOCK:   -1.14 KCAL/MOL
REMARK 927      BINDING AFFINITY PREDICTED BY RF-SCORE:    0.00 PKD
ROOT
HETATM    1  C   UNL     1      -7.916   6.805  64.525  1.00  0.00    -0.106 C  
HETATM    2  O   UNL     1      -8.603   6.529  65.747  1.00  0.00    -0.148 OA 
ENDROOT
BRANCH   2   3
HETATM    3  C   UNL     1      -8.209   7.222  66.862  1.00  0.00    -0.117 A  
HETATM    4  C   UNL     1      -8.026   6.543  68.074  1.00  0.00    -0.109 A  
HETATM    5  C   UNL     1      -7.167  10.673  68.007  1.00  0.00    -0.087 A  
HETATM    6  C   UNL     1      -7.615   7.262  69.210  1.00  0.00    -0.102 A  
HETATM    7  N   UNL     1      -6.687  11.272  69.109  1.00  0.00    -0.089 NA 
HETATM    8  C   UNL     1      -7.326   8.619  69.183  1.00  0.00    -0.076 A  
HETATM    9  C   UNL     1      -7.942   8.600  66.835  1.00  0.00    -0.095 A  
HETATM   10  N   UNL     1      -6.876   9.213  70.294  1.00  0.00    -0.048 NA 
HETATM   11  C   UNL     1      -7.504   9.307  67.983  1.00  0.00    -0.083 A  
HETATM   12  C   UNL     1      -6.564  10.509  70.199  1.00  0.00    -0.149 A  
BRANCH   4  13
HETATM   13  O   UNL     1      -8.246   5.219  68.368  1.00  0.00    -0.091 OA 
BRANCH  13  14
HETATM   14  C   UNL     1      -8.097   4.788  69.718  1.00  0.00    -0.069 C  
BRANCH  14  15
HETATM   15  C   UNL     1      -9.455   4.259  70.251  1.00  0.00    -0.245 C  
HETATM   16  N   UNL     1     -10.582   5.654  72.656  1.00  0.00    -0.212 NA 
HETATM   17  C   UNL     1     -10.647   5.238  70.151  1.00  0.00    -0.297 C  
HETATM   18  C   UNL     1     -11.716   4.871  73.144  1.00  0.00    -0.131 C  
HETATM   19  C   UNL     1     -10.796   6.220  71.321  1.00  0.00    -0.265 C  
HETATM   20  C   UNL     1      -9.296   3.751  71.690  1.00  0.00    -0.198 C  
HETATM   21  C   UNL     1      -9.328   4.898  72.700  1.00  0.00    -0.133 C  
ENDBRANCH  14  15
ENDBRANCH  13  14
ENDBRANCH   4  13
BRANCH   5  22
HETATM   22  N   UNL     1      -7.368  11.455  66.842  1.00  0.00    -0.143 NA 
HETATM   23  H   UNL     1      -6.566  11.586  66.227  1.00  0.00     0.000 HD 
BRANCH  22  24
HETATM   24  C   UNL     1      -8.582  12.071  66.457  1.00  0.00    -0.100 A  
HETATM   25  C   UNL     1      -8.992  13.268  67.060  1.00  0.00    -0.228 A  
HETATM   26  F   UNL     1      -8.184  13.877  67.942  1.00  0.00    -0.124 F  
HETATM   27  C   UNL     1     -10.230  13.852  66.773  1.00  0.00    -0.268 A  
HETATM   28  C   UNL     1     -11.084  13.218  65.879  1.00  0.00    -0.285 A  
HETATM   29 BR   UNL     1     -12.777  13.964  65.492  1.00  0.00    -0.456 Br 
HETATM   30  C   UNL     1     -10.717  12.009  65.288  1.00  0.00    -0.331 A  
HETATM   31  C   UNL     1      -9.475  11.439  65.583  1.00  0.00    -0.253 A  
ENDBRANCH  22  24
ENDBRANCH   5  22
ENDBRANCH   2   3
TORSDOF 6
ENDMDL
MODEL      169
REMARK 921   NORMALIZED FREE ENERGY PREDICTED BY IDOCK:   -3.54 KCAL/MOL
REMARK 922        TOTAL FREE ENERGY PREDICTED BY IDOCK:   -5.83 KCAL/MOL
REMARK 923 INTER-LIGAND FREE ENERGY PREDICTED BY IDOCK:   -5.64 KCAL/MOL
REMARK 924 INTRA-LIGAND FREE ENERGY PREDICTED BY IDOCK:   -0.19 KCAL/MOL
REMARK 927      BINDING AFFINITY PREDICTED BY RF-SCORE:    0.00 PKD
ROOT
HETATM    1  C   UNL     1      -9.739   5.870  68.021  1.00  0.00    -0.119 C  
HETATM    2  O   UNL     1      -8.936   6.916  67.470  1.00  0.00    -0.118 OA 
ENDROOT
BRANCH   2   3
HETATM    3  C   UNL     1      -9.270   8.204  67.800  1.00  0.00    -0.134 A  
HETATM    4  C   UNL     1      -8.573   9.272  67.218  1.00  0.00    -0.125 A  
HETATM    5  C   UNL     1     -11.752  10.210  69.829  1.00  0.00    -0.139 A  
HETATM    6  C   UNL     1      -8.927  10.590  67.557  1.00  0.00    -0.137 A  
HETATM    7  N   UNL     1     -12.093  11.494  70.031  1.00  0.00    -0.330 NA 
HETATM    8  C   UNL     1      -9.978  10.895  68.411  1.00  0.00    -0.178 A  
HETATM    9  C   UNL     1     -10.317   8.507  68.684  1.00  0.00    -0.224 A  
HETATM   10  N   UNL     1     -10.291  12.177  68.629  1.00  0.00    -0.218 NA 
HETATM   11  C   UNL     1     -10.679   9.841  68.996  1.00  0.00    -0.238 A  
HETATM   12  C   UNL     1     -11.344  12.415  69.418  1.00  0.00    -0.220 A  
BRANCH   4  13
HETATM   13  O   UNL     1      -7.502   9.244  66.358  1.00  0.00    -0.091 OA 
BRANCH  13  14
HETATM   14  C   UNL     1      -7.340  10.320  65.438  1.00  0.00    -0.144 C  
BRANCH  14  15
HETATM   15  C   UNL     1      -7.208   9.760  63.997  1.00  0.00    -0.128 C  
HETATM   16  N   UNL     1      -6.248   6.929  63.747  1.00  0.00    -0.042 NA 
HETATM   17  C   UNL     1      -8.160   8.598  63.634  1.00  0.00    -0.163 C  
HETATM   18  C   UNL     1      -5.961   6.671  62.337  1.00  0.00    -0.035 C  
HETATM   19  C   UNL     1      -7.665   7.195  64.013  1.00  0.00    -0.123 C  
HETATM   20  C   UNL     1      -5.751   9.370  63.714  1.00  0.00    -0.080 C  
HETATM   21  C   UNL     1      -5.411   7.998  64.296  1.00  0.00    -0.044 C  
ENDBRANCH  14  15
ENDBRANCH  13  14
ENDBRANCH   4  13
BRANCH   5  22
HETATM   22  N   UNL     1     -12.483   9.200  70.504  1.00  0.00    -0.466 NA 
HETATM   23  H   UNL     1     -13.475   9.120  70.283  1.00  0.00     0.000 HD 
BRANCH  22  24
HETATM   24  C   UNL     1     -11.959   8.293  71.454  1.00  0.00    -0.299 A  
HETATM   25  C   UNL     1     -10.807   8.619  72.184  1.00  0.00    -0.354 A  
HETATM   26  F   UNL     1     -10.253   9.833  72.042  1.00  0.00     0.070 F  
HETATM   27  C   UNL     1     -10.207   7.709  73.059  1.00  0.00    -0.379 A  
HETATM   28  C   UNL     1     -10.758   6.441  73.197  1.00  0.00    -0.268 A  
HETATM   29 BR   UNL     1      -9.956   5.175  74.350  1.00  0.00    -0.270 Br 
HETATM   30  C   UNL     1     -11.885   6.077  72.460  1.00  0.00    -0.236 A  
HETATM   31  C   UNL     1     -12.476   6.999  71.590  1.00  0.00    -0.413 A  
ENDBRANCH  22  24
ENDBRANCH   5  22
ENDBRANCH   2   3
TORSDOF 6
ENDMDL
MODEL      170
REMARK 921   NORMALIZED FREE ENERGY PREDICTED BY IDOCK:   -3.54 KCAL/MOL
REMARK 922        TOTAL FREE ENERGY PREDICTED BY IDOCK:   -5.82 KCAL/MOL
REMARK 923 INTER-LIGAND FREE ENERGY PREDICTED BY IDOCK:   -5.09 KCAL/MOL
REMARK 924 INTRA-LIGAND FREE ENERGY PREDICTED BY IDOCK:   -0.73 KCAL/MOL
REMARK 927      BINDING AFFINITY PREDICTED BY RF-SCORE:    0.00 PKD
ROOT
HETATM    1  C   UNL     1      -7.067  10.038  69.788  1.00  0.00    -0.119 C  
HETATM    2  O   UNL     1      -7.786  10.041  68.552  1.00  0.00    -0.090 OA 
ENDROOT
BRANCH   2   3
HETATM    3  C   UNL     1      -7.646   8.946  67.740  1.00  0.00    -0.093 A  
HETATM    4  C   UNL     1      -7.810   9.084  66.355  1.00  0.00    -0.099 A  
HETATM    5  C   UNL     1      -6.736   5.276  67.822  1.00  0.00    -0.055 A  
HETATM    6  C   UNL     1      -7.657   7.956  65.529  1.00  0.00    -0.083 A  
HETATM    7  N   UNL     1      -6.515   4.268  66.962  1.00  0.00    -0.041 NA 
HETATM    8  C   UNL     1      -7.297   6.707  66.015  1.00  0.00    -0.076 A  
HETATM    9  C   UNL     1      -7.306   7.679  68.238  1.00  0.00    -0.099 A  
HETATM   10  N   UNL     1      -7.107   5.701  65.153  1.00  0.00    -0.063 NA 
HETATM   11  C   UNL     1      -7.130   6.557  67.391  1.00  0.00    -0.080 A  
HETATM   12  C   UNL     1      -6.711   4.533  65.668  1.00  0.00    -0.052 A  
BRANCH   4  13
HETATM   13  O   UNL     1      -8.169  10.194  65.630  1.00  0.00    -0.137 OA 
BRANCH  13  14
HETATM   14  C   UNL     1      -9.552  10.421  65.374  1.00  0.00    -0.246 C  
BRANCH  14  15
HETATM   15  C   UNL     1      -9.830  11.947  65.318  1.00  0.00    -0.255 C  
HETATM   16  N   UNL     1     -12.709  12.785  65.396  1.00  0.00    -0.603 NA 
HETATM   17  C   UNL     1     -10.473  12.563  66.581  1.00  0.00    -0.252 C  
HETATM   18  C   UNL     1     -12.773  14.214  65.093  1.00  0.00    -0.364 C  
HETATM   19  C   UNL     1     -12.005  12.487  66.647  1.00  0.00    -0.281 C  
HETATM   20  C   UNL     1     -10.657  12.287  64.072  1.00  0.00    -0.434 C  
HETATM   21  C   UNL     1     -12.145  12.009  64.290  1.00  0.00    -0.322 C  
ENDBRANCH  14  15
ENDBRANCH  13  14
ENDBRANCH   4  13
BRANCH   5  22
HETATM   22  N   UNL     1      -6.596   5.027  69.211  1.00  0.00    -0.045 NA 
HETATM   23  H   UNL     1      -5.659   4.813  69.551  1.00  0.00     0.000 HD 
BRANCH  22  24
HETATM   24  C   UNL     1      -7.638   5.049  70.166  1.00  0.00    -0.060 A  
HETATM   25  C   UNL     1      -8.751   4.208  70.020  1.00  0.00    -0.070 A  
HETATM   26  F   UNL     1      -8.781   3.316  69.018  1.00  0.00    -0.088 F  
HETATM   27  C   UNL     1      -9.843   4.272  70.891  1.00  0.00    -0.259 A  
HETATM   28  C   UNL     1      -9.833   5.207  71.918  1.00  0.00    -0.177 A  
HETATM   29 BR   UNL     1     -11.306   5.341  73.095  1.00  0.00    -0.304 Br 
HETATM   30  C   UNL     1      -8.755   6.080  72.068  1.00  0.00    -0.136 A  
HETATM   31  C   UNL     1      -7.668   6.002  71.191  1.00  0.00    -0.109 A  
ENDBRANCH  22  24
ENDBRANCH   5  22
ENDBRANCH   2   3
TORSDOF 6
ENDMDL
MODEL      171
REMARK 921   NORMALIZED FREE ENERGY PREDICTED BY IDOCK:   -3.31 KCAL/MOL
REMARK 922        TOTAL FREE ENERGY PREDICTED BY IDOCK:   -5.53 KCAL/MOL
REMARK 923 INTER-LIGAND FREE ENERGY PREDICTED BY IDOCK:   -5.30 KCAL/MOL
REMARK 924 INTRA-LIGAND FREE ENERGY PREDICTED BY IDOCK:   -0.23 KCAL/MOL
REMARK 927      BINDING AFFINITY PREDICTED BY RF-SCORE:    0.00 PKD
ROOT
HETATM    1  C   UNL     1      -6.952   8.959  71.570  1.00  0.00    -0.067 C  
HETATM    2  O   UNL     1      -8.317   8.776  71.190  1.00  0.00    -0.146 OA 
ENDROOT
BRANCH   2   3
HETATM    3  C   UNL     1      -8.663   9.109  69.906  1.00  0.00    -0.163 A  
HETATM    4  C   UNL     1      -9.025   8.101  69.002  1.00  0.00    -0.144 A  
HETATM    5  C   UNL     1      -9.212  12.093  67.649  1.00  0.00    -0.181 A  
HETATM    6  C   UNL     1      -9.385   8.453  67.689  1.00  0.00    -0.158 A  
HETATM    7  N   UNL     1      -9.657  12.357  66.409  1.00  0.00    -0.243 NA 
HETATM    8  C   UNL     1      -9.452   9.767  67.250  1.00  0.00    -0.153 A  
HETATM    9  C   UNL     1      -8.706  10.438  69.459  1.00  0.00    -0.102 A  
HETATM   10  N   UNL     1      -9.869  10.019  66.003  1.00  0.00    -0.239 NA 
HETATM   11  C   UNL     1      -9.096  10.779  68.140  1.00  0.00    -0.151 A  
HETATM   12  C   UNL     1      -9.964  11.304  65.648  1.00  0.00    -0.247 A  
BRANCH   4  13
HETATM   13  O   UNL     1      -9.036   6.739  69.179  1.00  0.00    -0.133 OA 
BRANCH  13  14
HETATM   14  C   UNL     1      -9.156   6.226  70.503  1.00  0.00    -0.154 C  
BRANCH  14  15
HETATM   15  C   UNL     1     -10.637   5.865  70.792  1.00  0.00    -0.330 C  
HETATM   16  N   UNL     1     -12.283   7.966  72.162  1.00  0.00    -0.316 NA 
HETATM   17  C   UNL     1     -11.695   6.702  70.038  1.00  0.00    -0.378 C  
HETATM   18  C   UNL     1     -13.553   7.359  72.558  1.00  0.00     0.515 C  
HETATM   19  C   UNL     1     -12.094   8.023  70.709  1.00  0.00    -0.076 C  
HETATM   20  C   UNL     1     -10.904   5.895  72.302  1.00  0.00    -0.292 C  
HETATM   21  C   UNL     1     -11.137   7.320  72.805  1.00  0.00    -0.319 C  
ENDBRANCH  14  15
ENDBRANCH  13  14
ENDBRANCH   4  13
BRANCH   5  22
HETATM   22  N   UNL     1      -8.819  13.177  68.474  1.00  0.00    -0.346 NA 
HETATM   23  H   UNL     1      -8.621  12.967  69.452  1.00  0.00     0.000 HD 
BRANCH  22  24
HETATM   24  C   UNL     1      -8.678  14.522  68.063  1.00  0.00    -0.167 A  
HETATM   25  C   UNL     1      -7.414  15.130  68.049  1.00  0.00    -0.120 A  
HETATM   26  F   UNL     1      -6.326  14.403  68.343  1.00  0.00    -0.079 F  
HETATM   27  C   UNL     1      -7.251  16.484  67.742  1.00  0.00    -0.156 A  
HETATM   28  C   UNL     1      -8.373  17.253  67.459  1.00  0.00    -0.196 A  
HETATM   29 BR   UNL     1      -8.191  19.093  67.068  1.00  0.00    -0.297 Br 
HETATM   30  C   UNL     1      -9.647  16.683  67.496  1.00  0.00    -0.242 A  
HETATM   31  C   UNL     1      -9.794  15.327  67.803  1.00  0.00    -0.220 A  
ENDBRANCH  22  24
ENDBRANCH   5  22
ENDBRANCH   2   3
TORSDOF 6
ENDMDL
MODEL      172
REMARK 921   NORMALIZED FREE ENERGY PREDICTED BY IDOCK:   -2.53 KCAL/MOL
REMARK 922        TOTAL FREE ENERGY PREDICTED BY IDOCK:   -4.46 KCAL/MOL
REMARK 923 INTER-LIGAND FREE ENERGY PREDICTED BY IDOCK:   -5.14 KCAL/MOL
REMARK 924 INTRA-LIGAND FREE ENERGY PREDICTED BY IDOCK:    0.68 KCAL/MOL
REMARK 927      BINDING AFFINITY PREDICTED BY RF-SCORE:    0.00 PKD
ROOT
HETATM    1  C   UNL     1     -10.354  10.786  66.620  1.00  0.00    -0.241 C  
HETATM    2  O   UNL     1      -8.954  11.016  66.448  1.00  0.00    -0.169 OA 
ENDROOT
BRANCH   2   3
HETATM    3  C   UNL     1      -8.256  11.486  67.530  1.00  0.00    -0.140 A  
HETATM    4  C   UNL     1      -7.606  10.584  68.382  1.00  0.00    -0.097 A  
HETATM    5  C   UNL     1      -7.176  14.699  69.207  1.00  0.00    -0.156 A  
HETATM    6  C   UNL     1      -6.886  11.077  69.485  1.00  0.00    -0.133 A  
HETATM    7  N   UNL     1      -6.395  15.098  70.224  1.00  0.00    -0.127 NA 
HETATM    8  C   UNL     1      -6.742  12.432  69.749  1.00  0.00     0.132 A  
HETATM    9  C   UNL     1      -8.133  12.857  67.807  1.00  0.00    -0.166 A  
HETATM   10  N   UNL     1      -5.984  12.818  70.783  1.00  0.00    -0.232 NA 
HETATM   11  C   UNL     1      -7.383  13.340  68.908  1.00  0.00    -0.023 A  
HETATM   12  C   UNL     1      -5.836  14.134  70.962  1.00  0.00    -0.217 A  
BRANCH   4  13
HETATM   13  O   UNL     1      -7.596   9.211  68.348  1.00  0.00    -0.081 OA 
BRANCH  13  14
HETATM   14  C   UNL     1      -8.250   8.500  69.396  1.00  0.00    -0.114 C  
BRANCH  14  15
HETATM   15  C   UNL     1      -8.341   6.995  69.030  1.00  0.00    -0.126 C  
HETATM   16  N   UNL     1     -10.017   6.301  66.641  1.00  0.00    -0.167 NA 
HETATM   17  C   UNL     1      -7.716   6.591  67.676  1.00  0.00    -0.106 C  
HETATM   18  C   UNL     1     -10.174   4.847  66.605  1.00  0.00    -0.255 C  
HETATM   19  C   UNL     1      -8.632   6.741  66.453  1.00  0.00    -0.130 C  
HETATM   20  C   UNL     1      -9.797   6.519  69.113  1.00  0.00    -0.156 C  
HETATM   21  C   UNL     1     -10.585   6.888  67.857  1.00  0.00    -0.231 C  
ENDBRANCH  14  15
ENDBRANCH  13  14
ENDBRANCH   4  13
BRANCH   5  22
HETATM   22  N   UNL     1      -7.836  15.686  68.431  1.00  0.00    -0.124 NA 
HETATM   23  H   UNL     1      -7.527  16.651  68.547  1.00  0.00     0.000 HD 
BRANCH  22  24
HETATM   24  C   UNL     1      -8.884  15.452  67.511  1.00  0.00    -0.180 A  
HETATM   25  C   UNL     1     -10.127  14.980  67.956  1.00  0.00    -0.223 A  
HETATM   26  F   UNL     1     -10.348  14.836  69.272  1.00  0.00    -0.221 F  
HETATM   27  C   UNL     1     -11.151  14.646  67.066  1.00  0.00    -0.333 A  
HETATM   28  C   UNL     1     -10.926  14.769  65.701  1.00  0.00    -0.344 A  
HETATM   29 BR   UNL     1     -12.279  14.299  64.467  1.00  0.00    -0.448 Br 
HETATM   30  C   UNL     1      -9.688  15.205  65.226  1.00  0.00    -0.147 A  
HETATM   31  C   UNL     1      -8.674  15.538  66.129  1.00  0.00    -0.186 A  
ENDBRANCH  22  24
ENDBRANCH   5  22
ENDBRANCH   2   3
TORSDOF 6
ENDMDL
MODEL      173
REMARK 921   NORMALIZED FREE ENERGY PREDICTED BY IDOCK:   -1.22 KCAL/MOL
REMARK 922        TOTAL FREE ENERGY PREDICTED BY IDOCK:   -2.70 KCAL/MOL
REMARK 923 INTER-LIGAND FREE ENERGY PREDICTED BY IDOCK:   -3.81 KCAL/MOL
REMARK 924 INTRA-LIGAND FREE ENERGY PREDICTED BY IDOCK:    1.11 KCAL/MOL
REMARK 927      BINDING AFFINITY PREDICTED BY RF-SCORE:    0.00 PKD
ROOT
HETATM    1  C   UNL     1      -7.062  12.717  66.523  1.00  0.00     1.196 C  
HETATM    2  O   UNL     1      -8.440  12.370  66.682  1.00  0.00    -0.143 OA 
ENDROOT
BRANCH   2   3
HETATM    3  C   UNL     1      -9.118  12.948  67.723  1.00  0.00    -0.197 A  
HETATM    4  C   UNL     1      -8.785  14.245  68.134  1.00  0.00    -0.174 A  
HETATM    5  C   UNL     1     -11.993  12.340  70.104  1.00  0.00    -0.298 A  
HETATM    6  C   UNL     1      -9.492  14.832  69.199  1.00  0.00    -0.115 A  
HETATM    7  N   UNL     1     -12.682  13.000  71.049  1.00  0.00    -0.309 NA 
HETATM    8  C   UNL     1     -10.551  14.205  69.840  1.00  0.00     0.330 A  
HETATM    9  C   UNL     1     -10.173  12.299  68.385  1.00  0.00    -0.220 A  
HETATM   10  N   UNL     1     -11.214  14.860  70.800  1.00  0.00    -0.221 NA 
HETATM   11  C   UNL     1     -10.893  12.913  69.440  1.00  0.00     0.049 A  
HETATM   12  C   UNL     1     -12.257  14.231  71.349  1.00  0.00    -0.331 A  
BRANCH   4  13
HETATM   13  O   UNL     1      -7.787  15.071  67.677  1.00  0.00    -0.139 OA 
BRANCH  13  14
HETATM   14  C   UNL     1      -7.670  16.374  68.243  1.00  0.00    -0.162 C  
BRANCH  14  15
HETATM   15  C   UNL     1      -7.773  17.442  67.122  1.00  0.00    -0.229 C  
HETATM   16  N   UNL     1      -9.267  19.953  67.805  1.00  0.00    -0.332 NA 
HETATM   17  C   UNL     1      -7.051  18.780  67.397  1.00  0.00    -0.213 C  
HETATM   18  C   UNL     1      -9.462  20.713  66.571  1.00  0.00    -0.052 C  
HETATM   19  C   UNL     1      -7.858  19.818  68.188  1.00  0.00    -0.308 C  
HETATM   20  C   UNL     1      -9.244  17.689  66.763  1.00  0.00    -0.281 C  
HETATM   21  C   UNL     1      -9.915  18.640  67.754  1.00  0.00    -0.346 C  
ENDBRANCH  14  15
ENDBRANCH  13  14
ENDBRANCH   4  13
BRANCH   5  22
HETATM   22  N   UNL     1     -12.372  11.009  69.793  1.00  0.00    -0.319 NA 
HETATM   23  H   UNL     1     -13.361  10.777  69.878  1.00  0.00     0.000 HD 
BRANCH  22  24
HETATM   24  C   UNL     1     -11.501   9.976  69.374  1.00  0.00    -0.083 A  
HETATM   25  C   UNL     1     -11.287   9.740  68.009  1.00  0.00     0.174 A  
HETATM   26  F   UNL     1     -11.841  10.557  67.100  1.00  0.00     0.014 F  
HETATM   27  C   UNL     1     -10.510   8.668  67.559  1.00  0.00    -0.335 A  
HETATM   28  C   UNL     1      -9.951   7.802  68.491  1.00  0.00    -0.182 A  
HETATM   29 BR   UNL     1      -8.920   6.325  67.917  1.00  0.00    -0.111 Br 
HETATM   30  C   UNL     1     -10.174   7.993  69.855  1.00  0.00    -0.204 A  
HETATM   31  C   UNL     1     -10.950   9.071  70.290  1.00  0.00    -0.274 A  
ENDBRANCH  22  24
ENDBRANCH   5  22
ENDBRANCH   2   3
TORSDOF 6
ENDMDL
MODEL      174
REMARK 921   NORMALIZED FREE ENERGY PREDICTED BY IDOCK:   -1.19 KCAL/MOL
REMARK 922        TOTAL FREE ENERGY PREDICTED BY IDOCK:   -2.65 KCAL/MOL
REMARK 923 INTER-LIGAND FREE ENERGY PREDICTED BY IDOCK:   -3.69 KCAL/MOL
REMARK 924 INTRA-LIGAND FREE ENERGY PREDICTED BY IDOCK:    1.04 KCAL/MOL
REMARK 927      BINDING AFFINITY PREDICTED BY RF-SCORE:    0.00 PKD
ROOT
HETATM    1  C   UNL     1      -9.544  13.747  70.354  1.00  0.00     3.317 C  
HETATM    2  O   UNL     1      -9.092  14.761  69.454  1.00  0.00    -0.088 OA 
ENDROOT
BRANCH   2   3
HETATM    3  C   UNL     1      -9.588  14.733  68.176  1.00  0.00    -0.209 A  
HETATM    4  C   UNL     1      -9.845  13.502  67.557  1.00  0.00    -0.227 A  
HETATM    5  C   UNL     1     -10.801  17.003  65.405  1.00  0.00    -0.073 A  
HETATM    6  C   UNL     1     -10.360  13.485  66.249  1.00  0.00    -0.293 A  
HETATM    7  N   UNL     1     -11.379  16.906  64.196  1.00  0.00    -1.012 NA 
HETATM    8  C   UNL     1     -10.680  14.638  65.547  1.00  0.00    -0.349 A  
HETATM    9  C   UNL     1      -9.887  15.903  67.460  1.00  0.00    -0.230 A  
HETATM   10  N   UNL     1     -11.228  14.532  64.331  1.00  0.00    -0.262 NA 
HETATM   11  C   UNL     1     -10.429  15.870  66.152  1.00  0.00    -0.336 A  
HETATM   12  C   UNL     1     -11.564  15.672  63.720  1.00  0.00     0.645 A  
BRANCH   4  13
HETATM   13  O   UNL     1      -9.614  12.231  68.024  1.00  0.00    -0.193 OA 
BRANCH  13  14
HETATM   14  C   UNL     1      -8.282  11.866  68.372  1.00  0.00    -0.160 C  
BRANCH  14  15
HETATM   15  C   UNL     1      -8.158  10.320  68.415  1.00  0.00    -0.109 C  
HETATM   16  N   UNL     1     -10.566   8.814  69.381  1.00  0.00    -0.225 NA 
HETATM   17  C   UNL     1      -9.082   9.542  67.452  1.00  0.00    -0.144 C  
HETATM   18  C   UNL     1     -10.178   7.417  69.578  1.00  0.00    -0.204 C  
HETATM   19  C   UNL     1     -10.492   9.246  67.982  1.00  0.00    -0.223 C  
HETATM   20  C   UNL     1      -8.334   9.816  69.854  1.00  0.00    -0.198 C  
HETATM   21  C   UNL     1      -9.810   9.725  70.243  1.00  0.00    -0.240 C  
ENDBRANCH  14  15
ENDBRANCH  13  14
ENDBRANCH   4  13
BRANCH   5  22
HETATM   22  N   UNL     1     -10.532  18.294  65.927  1.00  0.00    -0.585 NA 
HETATM   23  H   UNL     1     -11.251  19.005  65.799  1.00  0.00     0.000 HD 
BRANCH  22  24
HETATM   24  C   UNL     1      -9.356  18.683  66.609  1.00  0.00    -0.315 A  
HETATM   25  C   UNL     1      -9.429  19.536  67.719  1.00  0.00    -0.334 A  
HETATM   26  F   UNL     1     -10.629  19.910  68.189  1.00  0.00    -0.527 F  
HETATM   27  C   UNL     1      -8.282  20.017  68.357  1.00  0.00    -0.146 A  
HETATM   28  C   UNL     1      -7.034  19.654  67.865  1.00  0.00    -0.255 A  
HETATM   29 BR   UNL     1      -5.462  20.311  68.684  1.00  0.00    -0.302 Br 
HETATM   30  C   UNL     1      -6.929  18.833  66.742  1.00  0.00    -0.215 A  
HETATM   31  C   UNL     1      -8.086  18.357  66.117  1.00  0.00    -0.201 A  
ENDBRANCH  22  24
ENDBRANCH   5  22
ENDBRANCH   2   3
TORSDOF 6
ENDMDL
MODEL      175
REMARK 921   NORMALIZED FREE ENERGY PREDICTED BY IDOCK:   -1.19 KCAL/MOL
REMARK 922        TOTAL FREE ENERGY PREDICTED BY IDOCK:   -2.65 KCAL/MOL
REMARK 923 INTER-LIGAND FREE ENERGY PREDICTED BY IDOCK:   -4.80 KCAL/MOL
REMARK 924 INTRA-LIGAND FREE ENERGY PREDICTED BY IDOCK:    2.15 KCAL/MOL
REMARK 927      BINDING AFFINITY PREDICTED BY RF-SCORE:    0.00 PKD
ROOT
HETATM    1  C   UNL     1     -10.793  16.214  68.494  1.00  0.00    -0.313 C  
HETATM    2  O   UNL     1     -10.852  14.918  69.095  1.00  0.00    -0.233 OA 
ENDROOT
BRANCH   2   3
HETATM    3  C   UNL     1     -10.127  13.916  68.503  1.00  0.00    -0.234 A  
HETATM    4  C   UNL     1      -9.253  14.220  67.451  1.00  0.00    -0.200 A  
HETATM    5  C   UNL     1      -9.407  10.213  68.763  1.00  0.00    -0.168 A  
HETATM    6  C   UNL     1      -8.509  13.186  66.855  1.00  0.00    -0.081 A  
HETATM    7  N   UNL     1      -8.596   9.297  68.207  1.00  0.00    -0.124 NA 
HETATM    8  C   UNL     1      -8.557  11.870  67.294  1.00  0.00    -0.170 A  
HETATM    9  C   UNL     1     -10.198  12.583  68.934  1.00  0.00    -0.012 A  
HETATM   10  N   UNL     1      -7.766  10.959  66.715  1.00  0.00    -0.134 NA 
HETATM   11  C   UNL     1      -9.423  11.555  68.341  1.00  0.00    -0.195 A  
HETATM   12  C   UNL     1      -7.814   9.719  67.209  1.00  0.00    -0.098 A  
BRANCH   4  13
HETATM   13  O   UNL     1      -9.027  15.425  66.831  1.00  0.00    -0.213 OA 
BRANCH  13  14
HETATM   14  C   UNL     1      -7.933  16.223  67.275  1.00  0.00    -0.167 C  
BRANCH  14  15
HETATM   15  C   UNL     1      -7.932  17.577  66.516  1.00  0.00    -0.309 C  
HETATM   16  N   UNL     1     -10.524  19.088  66.477  1.00  0.00    -0.422 NA 
HETATM   17  C   UNL     1      -8.163  18.836  67.382  1.00  0.00    -0.278 C  
HETATM   18  C   UNL     1     -10.390  20.192  65.528  1.00  0.00    -0.114 C  
HETATM   19  C   UNL     1      -9.632  19.204  67.634  1.00  0.00    -0.311 C  
HETATM   20  C   UNL     1      -8.934  17.531  65.355  1.00  0.00     1.323 C  
HETATM   21  C   UNL     1     -10.364  17.782  65.833  1.00  0.00    -0.254 C  
ENDBRANCH  14  15
ENDBRANCH  13  14
ENDBRANCH   4  13
BRANCH   5  22
HETATM   22  N   UNL     1     -10.295   9.800  69.787  1.00  0.00    -0.227 NA 
HETATM   23  H   UNL     1     -11.043  10.445  70.041  1.00  0.00     0.000 HD 
BRANCH  22  24
HETATM   24  C   UNL     1     -10.238   8.573  70.489  1.00  0.00    -0.194 A  
HETATM   25  C   UNL     1     -10.929   8.415  71.699  1.00  0.00    -0.278 A  
HETATM   26  F   UNL     1     -11.719   9.404  72.144  1.00  0.00    -0.422 F  
HETATM   27  C   UNL     1     -10.816   7.252  72.466  1.00  0.00    -0.312 A  
HETATM   28  C   UNL     1      -9.982   6.231  72.026  1.00  0.00    -0.168 A  
HETATM   29 BR   UNL     1      -9.783   4.657  73.053  1.00  0.00    -0.173 Br 
HETATM   30  C   UNL     1      -9.256   6.373  70.842  1.00  0.00    -0.161 A  
HETATM   31  C   UNL     1      -9.382   7.541  70.084  1.00  0.00    -0.157 A  
ENDBRANCH  22  24
ENDBRANCH   5  22
ENDBRANCH   2   3
TORSDOF 6
ENDMDL
MODEL      176
REMARK 921   NORMALIZED FREE ENERGY PREDICTED BY IDOCK:   -0.62 KCAL/MOL
REMARK 922        TOTAL FREE ENERGY PREDICTED BY IDOCK:   -1.89 KCAL/MOL
REMARK 923 INTER-LIGAND FREE ENERGY PREDICTED BY IDOCK:   -4.21 KCAL/MOL
REMARK 924 INTRA-LIGAND FREE ENERGY PREDICTED BY IDOCK:    2.33 KCAL/MOL
REMARK 927      BINDING AFFINITY PREDICTED BY RF-SCORE:    0.00 PKD
ROOT
HETATM    1  C   UNL     1      -7.840  16.239  66.095  1.00  0.00     0.080 C  
HETATM    2  O   UNL     1      -8.433  14.946  66.233  1.00  0.00    -0.012 OA 
ENDROOT
BRANCH   2   3
HETATM    3  C   UNL     1      -9.448  14.813  67.145  1.00  0.00    -0.227 A  
HETATM    4  C   UNL     1     -10.377  15.850  67.307  1.00  0.00    -0.293 A  
HETATM    5  C   UNL     1     -10.949  12.347  69.588  1.00  0.00     0.178 A  
HETATM    6  C   UNL     1     -11.418  15.701  68.240  1.00  0.00    -0.353 A  
HETATM    7  N   UNL     1     -12.022  12.241  70.390  1.00  0.00    -0.322 NA 
HETATM    8  C   UNL     1     -11.607  14.545  68.984  1.00  0.00    -0.298 A  
HETATM    9  C   UNL     1      -9.620  13.651  67.913  1.00  0.00    -0.223 A  
HETATM   10  N   UNL     1     -12.663  14.459  69.801  1.00  0.00    -0.117 NA 
HETATM   11  C   UNL     1     -10.690  13.505  68.832  1.00  0.00    -0.228 A  
HETATM   12  C   UNL     1     -12.827  13.305  70.455  1.00  0.00     0.085 A  
BRANCH   4  13
HETATM   13  O   UNL     1     -10.412  17.085  66.706  1.00  0.00    -0.308 OA 
BRANCH  13  14
HETATM   14  C   UNL     1     -10.605  18.234  67.526  1.00  0.00    -0.409 C  
BRANCH  14  15
HETATM   15  C   UNL     1      -9.481  18.311  68.593  1.00  0.00    -0.343 C  
HETATM   16  N   UNL     1      -7.337  20.356  68.128  1.00  0.00    -0.215 NA 
HETATM   17  C   UNL     1      -9.409  19.625  69.403  1.00  0.00     0.010 C  
HETATM   18  C   UNL     1      -6.263  20.113  69.091  1.00  0.00    -0.324 C  
HETATM   19  C   UNL     1      -8.599  20.757  68.755  1.00  0.00     1.210 C  
HETATM   20  C   UNL     1      -8.123  17.999  67.952  1.00  0.00    -0.243 C  
HETATM   21  C   UNL     1      -7.545  19.217  67.232  1.00  0.00    -0.232 C  
ENDBRANCH  14  15
ENDBRANCH  13  14
ENDBRANCH   4  13
BRANCH   5  22
HETATM   22  N   UNL     1     -10.035  11.265  69.531  1.00  0.00    -0.394 NA 
HETATM   23  H   UNL     1      -9.732  10.866  70.418  1.00  0.00     0.000 HD 
BRANCH  22  24
HETATM   24  C   UNL     1      -9.508  10.688  68.352  1.00  0.00    -0.165 A  
HETATM   25  C   UNL     1      -8.181  10.237  68.316  1.00  0.00    -0.115 A  
HETATM   26  F   UNL     1      -7.438  10.272  69.433  1.00  0.00    -0.077 F  
HETATM   27  C   UNL     1      -7.598   9.752  67.141  1.00  0.00    -0.092 A  
HETATM   28  C   UNL     1      -8.350   9.732  65.973  1.00  0.00    -0.120 A  
HETATM   29 BR   UNL     1      -7.585   9.110  64.360  1.00  0.00    -0.120 Br 
HETATM   30  C   UNL     1      -9.663  10.205  65.970  1.00  0.00    -0.285 A  
HETATM   31  C   UNL     1     -10.233  10.684  67.154  1.00  0.00    -0.261 A  
ENDBRANCH  22  24
ENDBRANCH   5  22
ENDBRANCH   2   3
TORSDOF 6
ENDMDL
MODEL      177
REMARK 921   NORMALIZED FREE ENERGY PREDICTED BY IDOCK:    0.65 KCAL/MOL
REMARK 922        TOTAL FREE ENERGY PREDICTED BY IDOCK:   -0.17 KCAL/MOL
REMARK 923 INTER-LIGAND FREE ENERGY PREDICTED BY IDOCK:   -1.03 KCAL/MOL
REMARK 924 INTRA-LIGAND FREE ENERGY PREDICTED BY IDOCK:    0.86 KCAL/MOL
REMARK 927      BINDING AFFINITY PREDICTED BY RF-SCORE:    0.00 PKD
ROOT
HETATM    1  C   UNL     1      -7.864  11.925  65.847  1.00  0.00     0.722 C  
HETATM    2  O   UNL     1      -6.659  12.435  66.421  1.00  0.00     0.325 OA 
ENDROOT
BRANCH   2   3
HETATM    3  C   UNL     1      -6.358  12.047  67.700  1.00  0.00    -0.099 A  
HETATM    4  C   UNL     1      -6.082  10.700  67.971  1.00  0.00    -0.046 A  
HETATM    5  C   UNL     1      -5.785  13.431  71.173  1.00  0.00    -0.140 A  
HETATM    6  C   UNL     1      -5.767  10.313  69.286  1.00  0.00    -0.037 A  
HETATM    7  N   UNL     1      -5.387  13.001  72.382  1.00  0.00    -0.383 NA 
HETATM    8  C   UNL     1      -5.664  11.215  70.335  1.00  0.00    -0.137 A  
HETATM    9  C   UNL     1      -6.279  12.960  68.763  1.00  0.00    -0.076 A  
HETATM   10  N   UNL     1      -5.294  10.773  71.542  1.00  0.00    -0.288 NA 
HETATM   11  C   UNL     1      -5.935  12.559  70.079  1.00  0.00    -0.145 A  
HETATM   12  C   UNL     1      -5.159  11.691  72.505  1.00  0.00     0.356 A  
BRANCH   4  13
HETATM   13  O   UNL     1      -6.121   9.619  67.124  1.00  0.00    -0.061 OA 
BRANCH  13  14
HETATM   14  C   UNL     1      -6.694   8.404  67.598  1.00  0.00    -0.066 C  
BRANCH  14  15
HETATM   15  C   UNL     1      -7.905   8.015  66.710  1.00  0.00    -0.103 C  
HETATM   16  N   UNL     1      -8.029   5.159  65.797  1.00  0.00    -0.106 NA 
HETATM   17  C   UNL     1      -8.893   6.997  67.323  1.00  0.00    -0.119 C  
HETATM   18  C   UNL     1      -9.086   5.051  64.792  1.00  0.00    -0.051 C  
HETATM   19  C   UNL     1      -8.527   5.519  67.128  1.00  0.00    -0.110 C  
HETATM   20  C   UNL     1      -7.418   7.531  65.337  1.00  0.00    -0.082 C  
HETATM   21  C   UNL     1      -6.962   6.073  65.382  1.00  0.00    -0.063 C  
ENDBRANCH  14  15
ENDBRANCH  13  14
ENDBRANCH   4  13
BRANCH   5  22
HETATM   22  N   UNL     1      -6.093  14.805  71.009  1.00  0.00    -0.031 NA 
HETATM   23  H   UNL     1      -5.908  15.420  71.801  1.00  0.00     0.000 HD 
BRANCH  22  24
HETATM   24  C   UNL     1      -6.634  15.400  69.845  1.00  0.00    -0.144 A  
HETATM   25  C   UNL     1      -8.021  15.428  69.643  1.00  0.00    -0.138 A  
HETATM   26  F   UNL     1      -8.840  14.968  70.601  1.00  0.00     0.447 F  
HETATM   27  C   UNL     1      -8.584  15.920  68.461  1.00  0.00    -0.190 A  
HETATM   28  C   UNL     1      -7.745  16.377  67.453  1.00  0.00    -0.154 A  
HETATM   29 BR   UNL     1      -8.472  17.022  65.831  1.00  0.00     0.173 Br 
HETATM   30  C   UNL     1      -6.360  16.332  67.612  1.00  0.00    -0.181 A  
HETATM   31  C   UNL     1      -5.811  15.840  68.801  1.00  0.00    -0.100 A  
ENDBRANCH  22  24
ENDBRANCH   5  22
ENDBRANCH   2   3
TORSDOF 6
ENDMDL
MODEL      178
REMARK 921   NORMALIZED FREE ENERGY PREDICTED BY IDOCK:   10.78 KCAL/MOL
REMARK 922        TOTAL FREE ENERGY PREDICTED BY IDOCK:   13.52 KCAL/MOL
REMARK 923 INTER-LIGAND FREE ENERGY PREDICTED BY IDOCK:   11.26 KCAL/MOL
REMARK 924 INTRA-LIGAND FREE ENERGY PREDICTED BY IDOCK:    2.25 KCAL/MOL
REMARK 927      BINDING AFFINITY PREDICTED BY RF-SCORE:    0.00 PKD
ROOT
HETATM    1  C   UNL     1      -6.962  15.113  65.645  1.00  0.00     6.918 C  
HETATM    2  O   UNL     1      -8.153  15.255  66.423  1.00  0.00    -0.050 OA 
ENDROOT
BRANCH   2   3
HETATM    3  C   UNL     1      -8.202  16.294  67.315  1.00  0.00    -0.172 A  
HETATM    4  C   UNL     1      -7.071  17.099  67.506  1.00  0.00    -0.154 A  
HETATM    5  C   UNL     1     -10.569  18.116  69.635  1.00  0.00     0.873 A  
HETATM    6  C   UNL     1      -7.133  18.168  68.418  1.00  0.00    -0.256 A  
HETATM    7  N   UNL     1     -10.580  19.208  70.417  1.00  0.00     1.483 NA 
HETATM    8  C   UNL     1      -8.288  18.503  69.111  1.00  0.00     0.056 A  
HETATM    9  C   UNL     1      -9.365  16.615  68.033  1.00  0.00    -0.227 A  
HETATM   10  N   UNL     1      -8.281  19.577  69.910  1.00  0.00     0.526 NA 
HETATM   11  C   UNL     1      -9.420  17.710  68.930  1.00  0.00    -0.183 A  
HETATM   12  C   UNL     1      -9.433  19.885  70.514  1.00  0.00     1.316 A  
BRANCH   4  13
HETATM   13  O   UNL     1      -5.818  16.980  66.956  1.00  0.00    -0.147 OA 
BRANCH  13  14
HETATM   14  C   UNL     1      -5.139  18.164  66.546  1.00  0.00    -0.144 C  
BRANCH  14  15
HETATM   15  C   UNL     1      -5.749  18.683  65.217  1.00  0.00    -0.260 C  
HETATM   16  N   UNL     1      -7.614  21.024  65.429  1.00  0.00     0.635 NA 
HETATM   17  C   UNL     1      -5.330  20.109  64.794  1.00  0.00    -0.204 C  
HETATM   18  C   UNL     1      -8.261  21.206  64.131  1.00  0.00     2.361 C  
HETATM   19  C   UNL     1      -6.166  21.249  65.393  1.00  0.00    -0.012 C  
HETATM   20  C   UNL     1      -7.278  18.561  65.256  1.00  0.00     0.347 C  
HETATM   21  C   UNL     1      -7.918  19.719  66.021  1.00  0.00    -0.330 C  
ENDBRANCH  14  15
ENDBRANCH  13  14
ENDBRANCH   4  13
BRANCH   5  22
HETATM   22  N   UNL     1     -11.747  17.333  69.545  1.00  0.00     0.810 NA 
HETATM   23  H   UNL     1     -12.486  17.676  68.932  1.00  0.00     0.000 HD 
BRANCH  22  24
HETATM   24  C   UNL     1     -11.990  16.120  70.230  1.00  0.00    -0.064 A  
HETATM   25  C   UNL     1     -12.197  14.932  69.515  1.00  0.00    -0.233 A  
HETATM   26  F   UNL     1     -12.075  14.932  68.179  1.00  0.00    -0.328 F  
HETATM   27  C   UNL     1     -12.535  13.736  70.155  1.00  0.00    -0.332 A  
HETATM   28  C   UNL     1     -12.687  13.728  71.536  1.00  0.00    -0.346 A  
HETATM   29 BR   UNL     1     -13.172  12.135  72.431  1.00  0.00     0.318 Br 
HETATM   30  C   UNL     1     -12.519  14.902  72.271  1.00  0.00    -0.422 A  
HETATM   31  C   UNL     1     -12.178  16.090  71.618  1.00  0.00    -0.514 A  
ENDBRANCH  22  24
ENDBRANCH   5  22
ENDBRANCH   2   3
TORSDOF 6
ENDMDL
MODEL      179
REMARK 921   NORMALIZED FREE ENERGY PREDICTED BY IDOCK:   29.89 KCAL/MOL
REMARK 922        TOTAL FREE ENERGY PREDICTED BY IDOCK:   39.32 KCAL/MOL
REMARK 923 INTER-LIGAND FREE ENERGY PREDICTED BY IDOCK:   12.61 KCAL/MOL
REMARK 924 INTRA-LIGAND FREE ENERGY PREDICTED BY IDOCK:   26.72 KCAL/MOL
REMARK 927      BINDING AFFINITY PREDICTED BY RF-SCORE:    0.00 PKD
ROOT
HETATM    1  C   UNL     1     -12.651  13.483  70.267  1.00  0.00    -0.152 C  
HETATM    2  O   UNL     1     -11.674  12.918  71.144  1.00  0.00     0.434 OA 
ENDROOT
BRANCH   2   3
HETATM    3  C   UNL     1     -10.940  11.862  70.672  1.00  0.00     1.895 A  
HETATM    4  C   UNL     1     -11.280  10.556  71.050  1.00  0.00     0.147 A  
HETATM    5  C   UNL     1      -8.082  11.030  68.338  1.00  0.00    -0.134 A  
HETATM    6  C   UNL     1     -10.524   9.478  70.555  1.00  0.00    -0.358 A  
HETATM    7  N   UNL     1      -7.469   9.947  67.834  1.00  0.00    -0.089 NA 
HETATM    8  C   UNL     1      -9.478   9.638  69.657  1.00  0.00    -0.210 A  
HETATM    9  C   UNL     1      -9.866  12.030  69.784  1.00  0.00     1.578 A  
HETATM   10  N   UNL     1      -8.854   8.553  69.183  1.00  0.00    -0.141 NA 
HETATM   11  C   UNL     1      -9.130  10.932  69.272  1.00  0.00     0.003 A  
HETATM   12  C   UNL     1      -7.888   8.760  68.283  1.00  0.00    -0.101 A  
BRANCH   4  13
HETATM   13  O   UNL     1     -12.254  10.130  71.919  1.00  0.00    -0.332 OA 
BRANCH  13  14
HETATM   14  C   UNL     1     -12.748  11.049  72.890  1.00  0.00     3.268 C  
BRANCH  14  15
HETATM   15  C   UNL     1     -12.205  12.471  72.588  1.00  0.00     2.707 C  
HETATM   16  N   UNL     1     -14.252  14.638  72.250  1.00  0.00    -0.478 NA 
HETATM   17  C   UNL     1     -12.462  13.537  73.677  1.00  0.00     2.632 C  
HETATM   18  C   UNL     1     -13.572  15.828  71.740  1.00  0.00    -0.287 C  
HETATM   19  C   UNL     1     -13.818  14.252  73.596  1.00  0.00     2.713 C  
HETATM   20  C   UNL     1     -12.724  12.956  71.228  1.00  0.00    -0.371 C  
HETATM   21  C   UNL     1     -14.148  13.504  71.330  1.00  0.00     0.596 C  
ENDBRANCH  14  15
ENDBRANCH  13  14
ENDBRANCH   4  13
BRANCH   5  22
HETATM   22  N   UNL     1      -7.634  12.313  67.935  1.00  0.00    -0.115 NA 
HETATM   23  H   UNL     1      -7.670  12.525  66.939  1.00  0.00     0.000 HD 
BRANCH  22  24
HETATM   24  C   UNL     1      -7.140  13.325  68.791  1.00  0.00    -0.100 A  
HETATM   25  C   UNL     1      -7.763  14.580  68.837  1.00  0.00    -0.132 A  
HETATM   26  F   UNL     1      -8.885  14.790  68.132  1.00  0.00    -0.153 F  
HETATM   27  C   UNL     1      -7.245  15.633  69.598  1.00  0.00    -0.153 A  
HETATM   28  C   UNL     1      -6.071  15.435  70.314  1.00  0.00    -0.098 A  
HETATM   29 BR   UNL     1      -5.327  16.845  71.329  1.00  0.00     0.249 Br 
HETATM   30  C   UNL     1      -5.411  14.207  70.261  1.00  0.00    -0.105 A  
HETATM   31  C   UNL     1      -5.942  13.162  69.498  1.00  0.00    -0.108 A  
ENDBRANCH  22  24
ENDBRANCH   5  22
ENDBRANCH   2   3
TORSDOF 6
ENDMDL
MODEL      180
REMARK 921   NORMALIZED FREE ENERGY PREDICTED BY IDOCK:   41.67 KCAL/MOL
REMARK 922        TOTAL FREE ENERGY PREDICTED BY IDOCK:   55.24 KCAL/MOL
REMARK 923 INTER-LIGAND FREE ENERGY PREDICTED BY IDOCK:   49.30 KCAL/MOL
REMARK 924 INTRA-LIGAND FREE ENERGY PREDICTED BY IDOCK:    5.94 KCAL/MOL
REMARK 927      BINDING AFFINITY PREDICTED BY RF-SCORE:    0.00 PKD
ROOT
HETATM    1  C   UNL     1      -9.789  13.266  70.192  1.00  0.00     2.942 C  
HETATM    2  O   UNL     1      -9.888  14.080  69.022  1.00  0.00    -0.128 OA 
ENDROOT
BRANCH   2   3
HETATM    3  C   UNL     1     -10.738  13.659  68.033  1.00  0.00    -0.247 A  
HETATM    4  C   UNL     1     -11.435  12.453  68.183  1.00  0.00    -0.318 A  
HETATM    5  C   UNL     1     -12.194  14.722  64.708  1.00  0.00    -0.348 A  
HETATM    6  C   UNL     1     -12.310  12.033  67.165  1.00  0.00     0.819 A  
HETATM    7  N   UNL     1     -13.115  14.302  63.825  1.00  0.00     0.209 NA 
HETATM    8  C   UNL     1     -12.562  12.785  66.027  1.00  0.00     0.224 A  
HETATM    9  C   UNL     1     -10.971  14.412  66.871  1.00  0.00    -0.308 A  
HETATM   10  N   UNL     1     -13.460  12.344  65.138  1.00  0.00     0.343 NA 
HETATM   11  C   UNL     1     -11.876  13.988  65.866  1.00  0.00    -0.395 A  
HETATM   12  C   UNL     1     -13.704  13.132  64.086  1.00  0.00     2.669 A  
BRANCH   4  13
HETATM   13  O   UNL     1     -11.362  11.529  69.197  1.00  0.00    -0.239 OA 
BRANCH  13  14
HETATM   14  C   UNL     1     -10.127  11.377  69.891  1.00  0.00     0.975 C  
BRANCH  14  15
HETATM   15  C   UNL     1      -9.841   9.869  70.125  1.00  0.00    -0.272 C  
HETATM   16  N   UNL     1     -12.107   7.980  69.579  1.00  0.00     1.252 NA 
HETATM   17  C   UNL     1      -9.879   8.972  68.868  1.00  0.00    -0.181 C  
HETATM   18  C   UNL     1     -11.727   6.661  70.082  1.00  0.00    -0.351 C  
HETATM   19  C   UNL     1     -11.265   8.445  68.472  1.00  0.00     0.578 C  
HETATM   20  C   UNL     1     -10.778   9.317  71.208  1.00  0.00    -0.422 C  
HETATM   21  C   UNL     1     -12.158   8.984  70.644  1.00  0.00    -0.036 C  
ENDBRANCH  14  15
ENDBRANCH  13  14
ENDBRANCH   4  13
BRANCH   5  22
HETATM   22  N   UNL     1     -11.502  15.931  64.444  1.00  0.00    -0.699 NA 
HETATM   23  H   UNL     1     -10.727  15.886  63.783  1.00  0.00     0.000 HD 
BRANCH  22  24
HETATM   24  C   UNL     1     -11.790  17.193  65.014  1.00  0.00     2.096 A  
HETATM   25  C   UNL     1     -12.351  17.280  66.296  1.00  0.00     4.854 A  
HETATM   26  F   UNL     1     -12.531  16.163  67.018  1.00  0.00     1.152 F  
HETATM   27  C   UNL     1     -12.738  18.504  66.850  1.00  0.00     6.799 A  
HETATM   28  C   UNL     1     -12.579  19.664  66.102  1.00  0.00     6.216 A  
HETATM   29 BR   UNL     1     -13.119  21.332  66.809  1.00  0.00    10.055 Br 
HETATM   30  C   UNL     1     -12.054  19.605  64.810  1.00  0.00     5.730 A  
HETATM   31  C   UNL     1     -11.668  18.374  64.271  1.00  0.00     6.326 A  
ENDBRANCH  22  24
ENDBRANCH   5  22
ENDBRANCH   2   3
TORSDOF 6
ENDMDL
