MODEL        1
REMARK 921   NORMALIZED FREE ENERGY PREDICTED BY IDOCK:   -5.02 KCAL/MOL
REMARK 922        TOTAL FREE ENERGY PREDICTED BY IDOCK:   -7.10 KCAL/MOL
REMARK 923 INTER-LIGAND FREE ENERGY PREDICTED BY IDOCK:   -6.78 KCAL/MOL
REMARK 924 INTRA-LIGAND FREE ENERGY PREDICTED BY IDOCK:   -0.32 KCAL/MOL
REMARK 927      BINDING AFFINITY PREDICTED BY RF-SCORE:    0.00 PKD
ROOT
HETATM    1  C   UNL     1     -12.048  12.171  63.716  1.00  0.00    -0.620 C  
HETATM    2  C   UNL     1     -12.690  12.779  64.954  1.00  0.00    -0.479 C  
ENDROOT
BRANCH   2   3
HETATM    3  C   UNL     1     -11.667  12.987  66.067  1.00  0.00    -0.442 C  
BRANCH   3   4
HETATM    4  C   UNL     1     -11.001  11.676  66.468  1.00  0.00    -0.299 C  
BRANCH   4   5
HETATM    5  O   UNL     1     -11.766  11.087  67.518  1.00  0.00    -0.565 OA 
BRANCH   5   6
HETATM    6  C   UNL     1     -11.045  11.084  68.748  1.00  0.00    -0.239 C  
BRANCH   6   7
HETATM    7  C   UNL     1     -11.847  11.809  69.800  1.00  0.00    -0.420 A  
HETATM    8  C   UNL     1     -11.963  13.211  69.757  1.00  0.00    -0.382 A  
HETATM    9  C   UNL     1     -12.653  13.896  70.759  1.00  0.00    -0.354 A  
HETATM   10  C   UNL     1     -13.233  13.162  71.800  1.00  0.00    -0.403 A  
HETATM   11  H   UNL     1     -14.299  13.306  73.511  1.00  0.00     0.000 HD 
HETATM   12  C   UNL     1     -13.143  11.776  71.852  1.00  0.00    -0.482 A  
HETATM   13  C   UNL     1     -12.446  11.099  70.852  1.00  0.00    -0.509 A  
HETATM   14  O   UNL     1     -13.904  13.804  72.805  1.00  0.00    -0.716 OA 
BRANCH   9  15
HETATM   15  O   UNL     1     -12.819  15.254  70.846  1.00  0.00    -0.386 OA 
HETATM   16  C   UNL     1     -11.807  15.973  71.541  1.00  0.00    -0.486 C  
ENDBRANCH   9  15
ENDBRANCH   6   7
ENDBRANCH   5   6
ENDBRANCH   4   5
ENDBRANCH   3   4
ENDBRANCH   2   3
TORSDOF 6
ENDMDL
MODEL        2
REMARK 921   NORMALIZED FREE ENERGY PREDICTED BY IDOCK:   -5.01 KCAL/MOL
REMARK 922        TOTAL FREE ENERGY PREDICTED BY IDOCK:   -7.08 KCAL/MOL
REMARK 923 INTER-LIGAND FREE ENERGY PREDICTED BY IDOCK:   -6.82 KCAL/MOL
REMARK 924 INTRA-LIGAND FREE ENERGY PREDICTED BY IDOCK:   -0.27 KCAL/MOL
REMARK 927      BINDING AFFINITY PREDICTED BY RF-SCORE:    0.00 PKD
ROOT
HETATM    1  C   UNL     1     -12.333   9.465  71.434  1.00  0.00    -0.439 C  
HETATM    2  C   UNL     1     -12.794  10.913  71.485  1.00  0.00    -0.560 C  
ENDROOT
BRANCH   2   3
HETATM    3  C   UNL     1     -12.112  11.754  70.409  1.00  0.00    -0.440 C  
BRANCH   3   4
HETATM    4  C   UNL     1     -11.854  10.943  69.144  1.00  0.00    -0.317 C  
BRANCH   4   5
HETATM    5  O   UNL     1     -12.049  11.797  68.018  1.00  0.00    -0.572 OA 
BRANCH   5   6
HETATM    6  C   UNL     1     -10.821  12.048  67.337  1.00  0.00    -0.242 C  
BRANCH   6   7
HETATM    7  C   UNL     1     -11.001  13.212  66.395  1.00  0.00    -0.305 A  
HETATM    8  C   UNL     1     -10.127  14.314  66.459  1.00  0.00    -0.283 A  
HETATM    9  C   UNL     1     -10.321  15.422  65.633  1.00  0.00    -0.372 A  
HETATM   10  C   UNL     1     -11.395  15.412  64.736  1.00  0.00    -0.376 A  
HETATM   11  H   UNL     1     -12.350  16.483  63.312  1.00  0.00     0.000 HD 
HETATM   12  C   UNL     1     -12.260  14.329  64.646  1.00  0.00    -0.470 A  
HETATM   13  C   UNL     1     -12.064  13.229  65.480  1.00  0.00    -0.480 A  
HETATM   14  O   UNL     1     -11.621  16.489  63.921  1.00  0.00    -1.175 OA 
BRANCH   9  15
HETATM   15  O   UNL     1      -9.558  16.561  65.612  1.00  0.00    -0.511 OA 
HETATM   16  C   UNL     1      -9.584  17.362  66.788  1.00  0.00    -0.277 C  
ENDBRANCH   9  15
ENDBRANCH   6   7
ENDBRANCH   5   6
ENDBRANCH   4   5
ENDBRANCH   3   4
ENDBRANCH   2   3
TORSDOF 6
ENDMDL
MODEL        3
REMARK 921   NORMALIZED FREE ENERGY PREDICTED BY IDOCK:   -4.98 KCAL/MOL
REMARK 922        TOTAL FREE ENERGY PREDICTED BY IDOCK:   -7.04 KCAL/MOL
REMARK 923 INTER-LIGAND FREE ENERGY PREDICTED BY IDOCK:   -6.59 KCAL/MOL
REMARK 924 INTRA-LIGAND FREE ENERGY PREDICTED BY IDOCK:   -0.45 KCAL/MOL
REMARK 927      BINDING AFFINITY PREDICTED BY RF-SCORE:    0.00 PKD
ROOT
HETATM    1  C   UNL     1      -8.402  19.518  68.351  1.00  0.00    -0.384 C  
HETATM    2  C   UNL     1      -9.886  19.801  68.519  1.00  0.00    -0.506 C  
ENDROOT
BRANCH   2   3
HETATM    3  C   UNL     1     -10.726  18.967  67.555  1.00  0.00    -0.532 C  
BRANCH   3   4
HETATM    4  C   UNL     1     -10.325  19.215  66.106  1.00  0.00    -0.484 C  
BRANCH   4   5
HETATM    5  O   UNL     1     -10.500  18.001  65.379  1.00  0.00    -0.621 OA 
BRANCH   5   6
HETATM    6  C   UNL     1     -10.095  16.870  66.149  1.00  0.00    -0.333 C  
BRANCH   6   7
HETATM    7  C   UNL     1     -10.936  15.678  65.767  1.00  0.00    -0.250 A  
HETATM    8  C   UNL     1     -11.191  14.663  66.709  1.00  0.00    -0.344 A  
HETATM    9  C   UNL     1     -11.917  13.528  66.348  1.00  0.00    -0.414 A  
HETATM   10  C   UNL     1     -12.394  13.422  65.036  1.00  0.00    -0.436 A  
HETATM   11  H   UNL     1     -13.423  12.243  63.756  1.00  0.00     0.000 HD 
HETATM   12  C   UNL     1     -12.167  14.420  64.097  1.00  0.00    -0.393 A  
HETATM   13  C   UNL     1     -11.434  15.548  64.462  1.00  0.00    -0.311 A  
HETATM   14  O   UNL     1     -13.099  12.315  64.646  1.00  0.00    -0.770 OA 
BRANCH   9  15
HETATM   15  O   UNL     1     -12.214  12.463  67.160  1.00  0.00    -0.492 OA 
HETATM   16  C   UNL     1     -11.545  12.418  68.415  1.00  0.00    -0.324 C  
ENDBRANCH   9  15
ENDBRANCH   6   7
ENDBRANCH   5   6
ENDBRANCH   4   5
ENDBRANCH   3   4
ENDBRANCH   2   3
TORSDOF 6
ENDMDL
MODEL        4
REMARK 921   NORMALIZED FREE ENERGY PREDICTED BY IDOCK:   -4.93 KCAL/MOL
REMARK 922        TOTAL FREE ENERGY PREDICTED BY IDOCK:   -6.98 KCAL/MOL
REMARK 923 INTER-LIGAND FREE ENERGY PREDICTED BY IDOCK:   -6.71 KCAL/MOL
REMARK 924 INTRA-LIGAND FREE ENERGY PREDICTED BY IDOCK:   -0.27 KCAL/MOL
REMARK 927      BINDING AFFINITY PREDICTED BY RF-SCORE:    0.00 PKD
ROOT
HETATM    1  C   UNL     1     -13.556  15.323  72.832  1.00  0.00    -0.584 C  
HETATM    2  C   UNL     1     -14.124  14.123  72.090  1.00  0.00    -0.643 C  
ENDROOT
BRANCH   2   3
HETATM    3  C   UNL     1     -13.017  13.189  71.610  1.00  0.00    -0.429 C  
BRANCH   3   4
HETATM    4  C   UNL     1     -12.053  13.901  70.668  1.00  0.00    -0.347 C  
BRANCH   4   5
HETATM    5  O   UNL     1     -12.123  13.266  69.392  1.00  0.00    -0.300 OA 
BRANCH   5   6
HETATM    6  C   UNL     1     -10.892  13.389  68.682  1.00  0.00    -0.263 C  
BRANCH   6   7
HETATM    7  C   UNL     1     -11.101  14.256  67.466  1.00  0.00    -0.309 A  
HETATM    8  C   UNL     1     -11.791  13.750  66.348  1.00  0.00    -0.434 A  
HETATM    9  C   UNL     1     -11.937  14.523  65.195  1.00  0.00    -0.369 A  
HETATM   10  C   UNL     1     -11.393  15.813  65.177  1.00  0.00    -0.154 A  
HETATM   11  H   UNL     1     -11.138  17.468  64.044  1.00  0.00     0.000 HD 
HETATM   12  C   UNL     1     -10.722  16.336  66.275  1.00  0.00    -0.185 A  
HETATM   13  C   UNL     1     -10.573  15.555  67.420  1.00  0.00    -0.292 A  
HETATM   14  O   UNL     1     -11.507  16.593  64.057  1.00  0.00    -1.192 OA 
BRANCH   9  15
HETATM   15  O   UNL     1     -12.564  14.142  64.037  1.00  0.00    -0.691 OA 
HETATM   16  C   UNL     1     -11.997  13.037  63.344  1.00  0.00    -0.520 C  
ENDBRANCH   9  15
ENDBRANCH   6   7
ENDBRANCH   5   6
ENDBRANCH   4   5
ENDBRANCH   3   4
ENDBRANCH   2   3
TORSDOF 6
ENDMDL
MODEL        5
REMARK 921   NORMALIZED FREE ENERGY PREDICTED BY IDOCK:   -4.89 KCAL/MOL
REMARK 922        TOTAL FREE ENERGY PREDICTED BY IDOCK:   -6.93 KCAL/MOL
REMARK 923 INTER-LIGAND FREE ENERGY PREDICTED BY IDOCK:   -6.57 KCAL/MOL
REMARK 924 INTRA-LIGAND FREE ENERGY PREDICTED BY IDOCK:   -0.36 KCAL/MOL
REMARK 927      BINDING AFFINITY PREDICTED BY RF-SCORE:    0.00 PKD
ROOT
HETATM    1  C   UNL     1     -12.607  15.343  73.792  1.00  0.00    -0.747 C  
HETATM    2  C   UNL     1     -13.729  15.818  72.882  1.00  0.00    -0.631 C  
ENDROOT
BRANCH   2   3
HETATM    3  C   UNL     1     -13.947  14.857  71.717  1.00  0.00    -0.583 C  
BRANCH   3   4
HETATM    4  C   UNL     1     -13.625  13.419  72.108  1.00  0.00    -0.567 C  
BRANCH   4   5
HETATM    5  O   UNL     1     -12.605  12.935  71.236  1.00  0.00    -0.350 OA 
BRANCH   5   6
HETATM    6  C   UNL     1     -12.117  13.968  70.382  1.00  0.00    -0.356 C  
BRANCH   6   7
HETATM    7  C   UNL     1     -11.847  13.398  69.013  1.00  0.00    -0.378 A  
HETATM    8  C   UNL     1     -11.863  14.237  67.882  1.00  0.00    -0.393 A  
HETATM    9  C   UNL     1     -11.675  13.709  66.604  1.00  0.00    -0.388 A  
HETATM   10  C   UNL     1     -11.461  12.333  66.470  1.00  0.00    -0.381 A  
HETATM   11  H   UNL     1     -11.140  10.847  65.137  1.00  0.00     0.000 HD 
HETATM   12  C   UNL     1     -11.425  11.490  67.573  1.00  0.00    -0.355 A  
HETATM   13  C   UNL     1     -11.623  12.023  68.846  1.00  0.00    -0.377 A  
HETATM   14  O   UNL     1     -11.285  11.781  65.229  1.00  0.00    -0.307 OA 
BRANCH   9  15
HETATM   15  O   UNL     1     -11.689  14.412  65.427  1.00  0.00    -0.346 OA 
HETATM   16  C   UNL     1     -10.506  15.135  65.107  1.00  0.00    -0.410 C  
ENDBRANCH   9  15
ENDBRANCH   6   7
ENDBRANCH   5   6
ENDBRANCH   4   5
ENDBRANCH   3   4
ENDBRANCH   2   3
TORSDOF 6
ENDMDL
MODEL        6
REMARK 921   NORMALIZED FREE ENERGY PREDICTED BY IDOCK:   -4.89 KCAL/MOL
REMARK 922        TOTAL FREE ENERGY PREDICTED BY IDOCK:   -6.92 KCAL/MOL
REMARK 923 INTER-LIGAND FREE ENERGY PREDICTED BY IDOCK:   -6.51 KCAL/MOL
REMARK 924 INTRA-LIGAND FREE ENERGY PREDICTED BY IDOCK:   -0.41 KCAL/MOL
REMARK 927      BINDING AFFINITY PREDICTED BY RF-SCORE:    0.00 PKD
ROOT
HETATM    1  C   UNL     1     -13.108  15.515  72.960  1.00  0.00    -0.632 C  
HETATM    2  C   UNL     1     -12.205  15.683  71.748  1.00  0.00    -0.494 C  
ENDROOT
BRANCH   2   3
HETATM    3  C   UNL     1     -12.846  15.101  70.491  1.00  0.00    -0.395 C  
BRANCH   3   4
HETATM    4  C   UNL     1     -12.409  13.660  70.255  1.00  0.00    -0.322 C  
BRANCH   4   5
HETATM    5  O   UNL     1     -11.324  13.667  69.328  1.00  0.00    -0.260 OA 
BRANCH   5   6
HETATM    6  C   UNL     1     -11.635  12.915  68.157  1.00  0.00    -0.336 C  
BRANCH   6   7
HETATM    7  C   UNL     1     -11.597  13.824  66.955  1.00  0.00    -0.394 A  
HETATM    8  C   UNL     1     -10.758  14.954  66.950  1.00  0.00    -0.308 A  
HETATM    9  C   UNL     1     -10.761  15.834  65.867  1.00  0.00    -0.313 A  
HETATM   10  C   UNL     1     -11.606  15.566  64.784  1.00  0.00    -0.256 A  
HETATM   11  H   UNL     1     -12.216  16.235  62.976  1.00  0.00     0.000 HD 
HETATM   12  C   UNL     1     -12.430  14.448  64.762  1.00  0.00    -0.371 A  
HETATM   13  C   UNL     1     -12.428  13.578  65.851  1.00  0.00    -0.484 A  
HETATM   14  O   UNL     1     -11.643  16.417  63.711  1.00  0.00    -1.055 OA 
BRANCH   9  15
HETATM   15  O   UNL     1     -10.012  16.977  65.748  1.00  0.00    -0.524 OA 
HETATM   16  C   UNL     1     -10.317  18.031  66.654  1.00  0.00    -0.371 C  
ENDBRANCH   9  15
ENDBRANCH   6   7
ENDBRANCH   5   6
ENDBRANCH   4   5
ENDBRANCH   3   4
ENDBRANCH   2   3
TORSDOF 6
ENDMDL
MODEL        7
REMARK 921   NORMALIZED FREE ENERGY PREDICTED BY IDOCK:   -4.84 KCAL/MOL
REMARK 922        TOTAL FREE ENERGY PREDICTED BY IDOCK:   -6.85 KCAL/MOL
REMARK 923 INTER-LIGAND FREE ENERGY PREDICTED BY IDOCK:   -6.47 KCAL/MOL
REMARK 924 INTRA-LIGAND FREE ENERGY PREDICTED BY IDOCK:   -0.39 KCAL/MOL
REMARK 927      BINDING AFFINITY PREDICTED BY RF-SCORE:    0.00 PKD
ROOT
HETATM    1  C   UNL     1     -10.761  19.464  65.859  1.00  0.00    -0.501 C  
HETATM    2  C   UNL     1     -10.419  19.740  67.315  1.00  0.00    -0.579 C  
ENDROOT
BRANCH   2   3
HETATM    3  C   UNL     1     -10.183  18.446  68.088  1.00  0.00    -0.410 C  
BRANCH   3   4
HETATM    4  C   UNL     1     -10.436  17.220  67.217  1.00  0.00    -0.319 C  
BRANCH   4   5
HETATM    5  O   UNL     1     -10.827  16.142  68.065  1.00  0.00    -0.312 OA 
BRANCH   5   6
HETATM    6  C   UNL     1     -10.684  16.484  69.442  1.00  0.00    -0.330 C  
BRANCH   6   7
HETATM    7  C   UNL     1     -11.558  15.581  70.276  1.00  0.00    -0.355 A  
HETATM    8  C   UNL     1     -12.046  16.023  71.520  1.00  0.00    -0.513 A  
HETATM    9  C   UNL     1     -12.805  15.173  72.326  1.00  0.00    -0.343 A  
HETATM   10  C   UNL     1     -13.080  13.880  71.868  1.00  0.00    -0.385 A  
HETATM   11  H   UNL     1     -13.999  12.139  72.330  1.00  0.00     0.000 HD 
HETATM   12  C   UNL     1     -12.622  13.430  70.637  1.00  0.00    -0.325 A  
HETATM   13  C   UNL     1     -11.857  14.281  69.841  1.00  0.00    -0.382 A  
HETATM   14  O   UNL     1     -13.812  13.017  72.640  1.00  0.00    -0.653 OA 
BRANCH   9  15
HETATM   15  O   UNL     1     -13.319  15.472  73.562  1.00  0.00    -0.456 OA 
HETATM   16  C   UNL     1     -12.380  15.854  74.562  1.00  0.00    -0.602 C  
ENDBRANCH   9  15
ENDBRANCH   6   7
ENDBRANCH   5   6
ENDBRANCH   4   5
ENDBRANCH   3   4
ENDBRANCH   2   3
TORSDOF 6
ENDMDL
MODEL        8
REMARK 921   NORMALIZED FREE ENERGY PREDICTED BY IDOCK:   -4.84 KCAL/MOL
REMARK 922        TOTAL FREE ENERGY PREDICTED BY IDOCK:   -6.85 KCAL/MOL
REMARK 923 INTER-LIGAND FREE ENERGY PREDICTED BY IDOCK:   -6.40 KCAL/MOL
REMARK 924 INTRA-LIGAND FREE ENERGY PREDICTED BY IDOCK:   -0.45 KCAL/MOL
REMARK 927      BINDING AFFINITY PREDICTED BY RF-SCORE:    0.00 PKD
ROOT
HETATM    1  C   UNL     1     -10.772  19.559  66.462  1.00  0.00    -0.535 C  
HETATM    2  C   UNL     1     -10.178  19.820  67.838  1.00  0.00    -0.576 C  
ENDROOT
BRANCH   2   3
HETATM    3  C   UNL     1      -9.611  18.543  68.451  1.00  0.00    -0.383 C  
BRANCH   3   4
HETATM    4  C   UNL     1     -10.465  17.329  68.107  1.00  0.00    -0.382 C  
BRANCH   4   5
HETATM    5  O   UNL     1      -9.594  16.246  67.785  1.00  0.00    -0.221 OA 
BRANCH   5   6
HETATM    6  C   UNL     1      -9.477  16.074  66.374  1.00  0.00    -0.293 C  
BRANCH   6   7
HETATM    7  C   UNL     1     -10.531  15.105  65.899  1.00  0.00    -0.350 A  
HETATM    8  C   UNL     1     -10.783  13.925  66.624  1.00  0.00    -0.281 A  
HETATM    9  C   UNL     1     -11.712  12.993  66.161  1.00  0.00    -0.394 A  
HETATM   10  C   UNL     1     -12.394  13.258  64.968  1.00  0.00    -0.448 A  
HETATM   11  H   UNL     1     -13.766  12.539  63.669  1.00  0.00     0.000 HD 
HETATM   12  C   UNL     1     -12.172  14.424  64.246  1.00  0.00    -0.450 A  
HETATM   13  C   UNL     1     -11.236  15.347  64.710  1.00  0.00    -0.404 A  
HETATM   14  O   UNL     1     -13.303  12.359  64.479  1.00  0.00    -0.800 OA 
BRANCH   9  15
HETATM   15  O   UNL     1     -12.033  11.801  66.759  1.00  0.00    -0.584 OA 
HETATM   16  C   UNL     1     -10.943  11.011  67.221  1.00  0.00    -0.297 C  
ENDBRANCH   9  15
ENDBRANCH   6   7
ENDBRANCH   5   6
ENDBRANCH   4   5
ENDBRANCH   3   4
ENDBRANCH   2   3
TORSDOF 6
ENDMDL
MODEL        9
REMARK 921   NORMALIZED FREE ENERGY PREDICTED BY IDOCK:   -4.83 KCAL/MOL
REMARK 922        TOTAL FREE ENERGY PREDICTED BY IDOCK:   -6.84 KCAL/MOL
REMARK 923 INTER-LIGAND FREE ENERGY PREDICTED BY IDOCK:   -6.55 KCAL/MOL
REMARK 924 INTRA-LIGAND FREE ENERGY PREDICTED BY IDOCK:   -0.29 KCAL/MOL
REMARK 927      BINDING AFFINITY PREDICTED BY RF-SCORE:    0.00 PKD
ROOT
HETATM    1  C   UNL     1     -12.545  11.996  63.452  1.00  0.00    -0.592 C  
HETATM    2  C   UNL     1     -12.000  13.301  64.010  1.00  0.00    -0.525 C  
ENDROOT
BRANCH   2   3
HETATM    3  C   UNL     1     -12.326  13.453  65.493  1.00  0.00    -0.528 C  
BRANCH   3   4
HETATM    4  C   UNL     1     -11.659  14.687  66.089  1.00  0.00    -0.332 C  
BRANCH   4   5
HETATM    5  O   UNL     1     -10.973  14.296  67.277  1.00  0.00    -0.286 OA 
BRANCH   5   6
HETATM    6  C   UNL     1     -11.114  15.273  68.306  1.00  0.00    -0.300 C  
BRANCH   6   7
HETATM    7  C   UNL     1     -11.898  14.684  69.451  1.00  0.00    -0.368 A  
HETATM    8  C   UNL     1     -12.530  15.529  70.383  1.00  0.00    -0.443 A  
HETATM    9  C   UNL     1     -13.207  14.994  71.480  1.00  0.00    -0.402 A  
HETATM   10  C   UNL     1     -13.253  13.604  71.630  1.00  0.00    -0.367 A  
HETATM   11  H   UNL     1     -13.930  12.103  72.803  1.00  0.00     0.000 HD 
HETATM   12  C   UNL     1     -12.651  12.752  70.713  1.00  0.00    -0.308 A  
HETATM   13  C   UNL     1     -11.969  13.293  69.624  1.00  0.00    -0.376 A  
HETATM   14  O   UNL     1     -13.898  13.047  72.702  1.00  0.00    -0.653 OA 
BRANCH   9  15
HETATM   15  O   UNL     1     -13.841  15.705  72.467  1.00  0.00    -0.534 OA 
HETATM   16  C   UNL     1     -13.026  16.169  73.537  1.00  0.00    -0.532 C  
ENDBRANCH   9  15
ENDBRANCH   6   7
ENDBRANCH   5   6
ENDBRANCH   4   5
ENDBRANCH   3   4
ENDBRANCH   2   3
TORSDOF 6
ENDMDL
MODEL       10
REMARK 921   NORMALIZED FREE ENERGY PREDICTED BY IDOCK:   -4.80 KCAL/MOL
REMARK 922        TOTAL FREE ENERGY PREDICTED BY IDOCK:   -6.80 KCAL/MOL
REMARK 923 INTER-LIGAND FREE ENERGY PREDICTED BY IDOCK:   -6.47 KCAL/MOL
REMARK 924 INTRA-LIGAND FREE ENERGY PREDICTED BY IDOCK:   -0.33 KCAL/MOL
REMARK 927      BINDING AFFINITY PREDICTED BY RF-SCORE:    0.00 PKD
ROOT
HETATM    1  C   UNL     1     -12.771   9.634  71.315  1.00  0.00    -0.443 C  
HETATM    2  C   UNL     1     -12.971  11.120  71.570  1.00  0.00    -0.542 C  
ENDROOT
BRANCH   2   3
HETATM    3  C   UNL     1     -12.191  11.967  70.568  1.00  0.00    -0.414 C  
BRANCH   3   4
HETATM    4  C   UNL     1     -12.562  13.442  70.674  1.00  0.00    -0.253 C  
BRANCH   4   5
HETATM    5  O   UNL     1     -11.774  14.171  69.735  1.00  0.00    -0.276 OA 
BRANCH   5   6
HETATM    6  C   UNL     1     -11.418  13.362  68.616  1.00  0.00    -0.310 C  
BRANCH   6   7
HETATM    7  C   UNL     1     -11.434  14.204  67.365  1.00  0.00    -0.369 A  
HETATM    8  C   UNL     1     -12.065  13.728  66.201  1.00  0.00    -0.477 A  
HETATM    9  C   UNL     1     -12.033  14.473  65.021  1.00  0.00    -0.399 A  
HETATM   10  C   UNL     1     -11.370  15.705  65.022  1.00  0.00    -0.253 A  
HETATM   11  H   UNL     1     -10.860  17.292  63.878  1.00  0.00     0.000 HD 
HETATM   12  C   UNL     1     -10.755  16.201  66.164  1.00  0.00    -0.222 A  
HETATM   13  C   UNL     1     -10.783  15.447  67.337  1.00  0.00    -0.296 A  
HETATM   14  O   UNL     1     -11.309  16.455  63.878  1.00  0.00    -0.967 OA 
BRANCH   9  15
HETATM   15  O   UNL     1     -12.587  14.113  63.820  1.00  0.00    -0.804 OA 
HETATM   16  C   UNL     1     -12.147  12.879  63.264  1.00  0.00    -0.440 C  
ENDBRANCH   9  15
ENDBRANCH   6   7
ENDBRANCH   5   6
ENDBRANCH   4   5
ENDBRANCH   3   4
ENDBRANCH   2   3
TORSDOF 6
ENDMDL
MODEL       11
REMARK 921   NORMALIZED FREE ENERGY PREDICTED BY IDOCK:   -4.79 KCAL/MOL
REMARK 922        TOTAL FREE ENERGY PREDICTED BY IDOCK:   -6.78 KCAL/MOL
REMARK 923 INTER-LIGAND FREE ENERGY PREDICTED BY IDOCK:   -6.54 KCAL/MOL
REMARK 924 INTRA-LIGAND FREE ENERGY PREDICTED BY IDOCK:   -0.24 KCAL/MOL
REMARK 927      BINDING AFFINITY PREDICTED BY RF-SCORE:    0.00 PKD
ROOT
HETATM    1  C   UNL     1     -10.701  11.422  63.822  1.00  0.00    -0.470 C  
HETATM    2  C   UNL     1     -11.373  12.783  63.917  1.00  0.00    -0.498 C  
ENDROOT
BRANCH   2   3
HETATM    3  C   UNL     1     -12.457  12.795  64.991  1.00  0.00    -0.572 C  
BRANCH   3   4
HETATM    4  C   UNL     1     -12.349  14.028  65.882  1.00  0.00    -0.486 C  
BRANCH   4   5
HETATM    5  O   UNL     1     -12.157  13.593  67.226  1.00  0.00    -0.380 OA 
BRANCH   5   6
HETATM    6  C   UNL     1     -11.437  14.560  67.988  1.00  0.00    -0.321 C  
BRANCH   6   7
HETATM    7  C   UNL     1     -11.909  14.521  69.420  1.00  0.00    -0.367 A  
HETATM    8  C   UNL     1     -12.282  13.297  70.008  1.00  0.00    -0.345 A  
HETATM    9  C   UNL     1     -12.777  13.259  71.312  1.00  0.00    -0.323 A  
HETATM   10  C   UNL     1     -12.887  14.458  72.025  1.00  0.00    -0.343 A  
HETATM   11  H   UNL     1     -13.456  15.270  73.787  1.00  0.00     0.000 HD 
HETATM   12  C   UNL     1     -12.511  15.674  71.469  1.00  0.00    -0.499 A  
HETATM   13  C   UNL     1     -12.024  15.706  70.163  1.00  0.00    -0.387 A  
HETATM   14  O   UNL     1     -13.382  14.456  73.302  1.00  0.00    -0.616 OA 
BRANCH   9  15
HETATM   15  O   UNL     1     -13.193  12.141  71.989  1.00  0.00    -0.499 OA 
HETATM   16  C   UNL     1     -12.784  10.888  71.452  1.00  0.00    -0.434 C  
ENDBRANCH   9  15
ENDBRANCH   6   7
ENDBRANCH   5   6
ENDBRANCH   4   5
ENDBRANCH   3   4
ENDBRANCH   2   3
TORSDOF 6
ENDMDL
MODEL       12
REMARK 921   NORMALIZED FREE ENERGY PREDICTED BY IDOCK:   -4.76 KCAL/MOL
REMARK 922        TOTAL FREE ENERGY PREDICTED BY IDOCK:   -6.74 KCAL/MOL
REMARK 923 INTER-LIGAND FREE ENERGY PREDICTED BY IDOCK:   -6.41 KCAL/MOL
REMARK 924 INTRA-LIGAND FREE ENERGY PREDICTED BY IDOCK:   -0.33 KCAL/MOL
REMARK 927      BINDING AFFINITY PREDICTED BY RF-SCORE:    0.00 PKD
ROOT
HETATM    1  C   UNL     1     -12.095  12.876  63.218  1.00  0.00    -0.520 C  
HETATM    2  C   UNL     1     -10.711  12.574  63.770  1.00  0.00    -0.483 C  
ENDROOT
BRANCH   2   3
HETATM    3  C   UNL     1     -10.581  13.018  65.224  1.00  0.00    -0.320 C  
BRANCH   3   4
HETATM    4  C   UNL     1     -11.938  13.072  65.916  1.00  0.00    -0.435 C  
BRANCH   4   5
HETATM    5  O   UNL     1     -11.979  12.044  66.903  1.00  0.00    -0.612 OA 
BRANCH   5   6
HETATM    6  C   UNL     1     -11.017  12.271  67.932  1.00  0.00    -0.224 C  
BRANCH   6   7
HETATM    7  C   UNL     1     -11.731  12.561  69.228  1.00  0.00    -0.379 A  
HETATM    8  C   UNL     1     -12.062  11.509  70.104  1.00  0.00    -0.432 A  
HETATM    9  C   UNL     1     -12.775  11.760  71.276  1.00  0.00    -0.316 A  
HETATM   10  C   UNL     1     -13.147  13.077  71.569  1.00  0.00    -0.310 A  
HETATM   11  H   UNL     1     -14.112  14.250  72.904  1.00  0.00     0.000 HD 
HETATM   12  C   UNL     1     -12.818  14.131  70.727  1.00  0.00    -0.378 A  
HETATM   13  C   UNL     1     -12.112  13.872  69.553  1.00  0.00    -0.393 A  
HETATM   14  O   UNL     1     -13.859  13.356  72.705  1.00  0.00    -0.726 OA 
BRANCH   9  15
HETATM   15  O   UNL     1     -13.176  10.826  72.197  1.00  0.00    -0.473 OA 
HETATM   16  C   UNL     1     -12.778   9.483  71.950  1.00  0.00    -0.411 C  
ENDBRANCH   9  15
ENDBRANCH   6   7
ENDBRANCH   5   6
ENDBRANCH   4   5
ENDBRANCH   3   4
ENDBRANCH   2   3
TORSDOF 6
ENDMDL
MODEL       13
REMARK 921   NORMALIZED FREE ENERGY PREDICTED BY IDOCK:   -4.75 KCAL/MOL
REMARK 922        TOTAL FREE ENERGY PREDICTED BY IDOCK:   -6.74 KCAL/MOL
REMARK 923 INTER-LIGAND FREE ENERGY PREDICTED BY IDOCK:   -6.47 KCAL/MOL
REMARK 924 INTRA-LIGAND FREE ENERGY PREDICTED BY IDOCK:   -0.27 KCAL/MOL
REMARK 927      BINDING AFFINITY PREDICTED BY RF-SCORE:    0.00 PKD
ROOT
HETATM    1  C   UNL     1     -12.426  15.564  74.300  1.00  0.00    -0.792 C  
HETATM    2  C   UNL     1     -13.299  15.929  73.109  1.00  0.00    -0.681 C  
ENDROOT
BRANCH   2   3
HETATM    3  C   UNL     1     -13.213  14.874  72.010  1.00  0.00    -0.443 C  
BRANCH   3   4
HETATM    4  C   UNL     1     -12.891  15.499  70.658  1.00  0.00    -0.413 C  
BRANCH   4   5
HETATM    5  O   UNL     1     -11.747  14.838  70.120  1.00  0.00    -0.270 OA 
BRANCH   5   6
HETATM    6  C   UNL     1     -10.726  15.768  69.767  1.00  0.00    -0.316 C  
BRANCH   6   7
HETATM    7  C   UNL     1     -10.796  16.050  68.287  1.00  0.00    -0.319 A  
HETATM    8  C   UNL     1     -10.414  17.310  67.789  1.00  0.00    -0.371 A  
HETATM    9  C   UNL     1     -10.533  17.601  66.429  1.00  0.00    -0.286 A  
HETATM   10  C   UNL     1     -11.030  16.614  65.571  1.00  0.00    -0.059 A  
HETATM   11  H   UNL     1     -11.509  16.202  63.651  1.00  0.00     0.000 HD 
HETATM   12  C   UNL     1     -11.399  15.359  66.039  1.00  0.00    -0.089 A  
HETATM   13  C   UNL     1     -11.285  15.078  67.400  1.00  0.00    -0.337 A  
HETATM   14  O   UNL     1     -11.172  16.872  64.234  1.00  0.00    -1.204 OA 
BRANCH   9  15
HETATM   15  O   UNL     1     -10.217  18.790  65.824  1.00  0.00    -0.541 OA 
HETATM   16  C   UNL     1      -9.061  19.461  66.311  1.00  0.00    -0.346 C  
ENDBRANCH   9  15
ENDBRANCH   6   7
ENDBRANCH   5   6
ENDBRANCH   4   5
ENDBRANCH   3   4
ENDBRANCH   2   3
TORSDOF 6
ENDMDL
MODEL       14
REMARK 921   NORMALIZED FREE ENERGY PREDICTED BY IDOCK:   -4.73 KCAL/MOL
REMARK 922        TOTAL FREE ENERGY PREDICTED BY IDOCK:   -6.70 KCAL/MOL
REMARK 923 INTER-LIGAND FREE ENERGY PREDICTED BY IDOCK:   -6.29 KCAL/MOL
REMARK 924 INTRA-LIGAND FREE ENERGY PREDICTED BY IDOCK:   -0.42 KCAL/MOL
REMARK 927      BINDING AFFINITY PREDICTED BY RF-SCORE:    0.00 PKD
ROOT
HETATM    1  C   UNL     1     -10.537  11.313  63.725  1.00  0.00    -0.455 C  
HETATM    2  C   UNL     1     -11.855  12.056  63.573  1.00  0.00    -0.587 C  
ENDROOT
BRANCH   2   3
HETATM    3  C   UNL     1     -12.410  12.488  64.928  1.00  0.00    -0.539 C  
BRANCH   3   4
HETATM    4  C   UNL     1     -12.103  13.953  65.217  1.00  0.00    -0.410 C  
BRANCH   4   5
HETATM    5  O   UNL     1     -12.409  14.213  66.586  1.00  0.00    -0.455 OA 
BRANCH   5   6
HETATM    6  C   UNL     1     -11.301  13.914  67.433  1.00  0.00    -0.326 C  
BRANCH   6   7
HETATM    7  C   UNL     1     -11.781  13.124  68.624  1.00  0.00    -0.362 A  
HETATM    8  C   UNL     1     -12.247  13.792  69.773  1.00  0.00    -0.368 A  
HETATM    9  C   UNL     1     -12.636  13.070  70.903  1.00  0.00    -0.280 A  
HETATM   10  C   UNL     1     -12.562  11.673  70.868  1.00  0.00    -0.313 A  
HETATM   11  H   UNL     1     -12.875   9.988  71.940  1.00  0.00     0.000 HD 
HETATM   12  C   UNL     1     -12.120  10.995  69.739  1.00  0.00    -0.424 A  
HETATM   13  C   UNL     1     -11.726  11.722  68.616  1.00  0.00    -0.389 A  
HETATM   14  O   UNL     1     -12.924  10.937  71.964  1.00  0.00    -0.457 OA 
BRANCH   9  15
HETATM   15  O   UNL     1     -13.085  13.598  72.086  1.00  0.00    -0.378 OA 
HETATM   16  C   UNL     1     -14.329  14.288  72.040  1.00  0.00    -0.544 C  
ENDBRANCH   9  15
ENDBRANCH   6   7
ENDBRANCH   5   6
ENDBRANCH   4   5
ENDBRANCH   3   4
ENDBRANCH   2   3
TORSDOF 6
ENDMDL
MODEL       15
REMARK 921   NORMALIZED FREE ENERGY PREDICTED BY IDOCK:   -4.70 KCAL/MOL
REMARK 922        TOTAL FREE ENERGY PREDICTED BY IDOCK:   -6.67 KCAL/MOL
REMARK 923 INTER-LIGAND FREE ENERGY PREDICTED BY IDOCK:   -6.40 KCAL/MOL
REMARK 924 INTRA-LIGAND FREE ENERGY PREDICTED BY IDOCK:   -0.27 KCAL/MOL
REMARK 927      BINDING AFFINITY PREDICTED BY RF-SCORE:    0.00 PKD
ROOT
HETATM    1  C   UNL     1     -11.384   8.222  72.382  1.00  0.00    -0.457 C  
HETATM    2  C   UNL     1     -11.192   9.370  71.403  1.00  0.00    -0.452 C  
ENDROOT
BRANCH   2   3
HETATM    3  C   UNL     1     -12.432  10.256  71.332  1.00  0.00    -0.528 C  
BRANCH   3   4
HETATM    4  C   UNL     1     -12.159  11.539  70.555  1.00  0.00    -0.378 C  
BRANCH   4   5
HETATM    5  O   UNL     1     -11.945  11.198  69.187  1.00  0.00    -0.330 OA 
BRANCH   5   6
HETATM    6  C   UNL     1     -10.961  12.038  68.588  1.00  0.00    -0.240 C  
BRANCH   6   7
HETATM    7  C   UNL     1     -11.460  12.515  67.247  1.00  0.00    -0.416 A  
HETATM    8  C   UNL     1     -11.197  11.762  66.087  1.00  0.00    -0.363 A  
HETATM    9  C   UNL     1     -11.601  12.225  64.834  1.00  0.00    -0.342 A  
HETATM   10  C   UNL     1     -12.281  13.446  64.755  1.00  0.00    -0.409 A  
HETATM   11  H   UNL     1     -13.142  14.763  63.486  1.00  0.00     0.000 HD 
HETATM   12  C   UNL     1     -12.565  14.196  65.889  1.00  0.00    -0.447 A  
HETATM   13  C   UNL     1     -12.150  13.732  67.137  1.00  0.00    -0.416 A  
HETATM   14  O   UNL     1     -12.680  13.935  63.540  1.00  0.00    -0.797 OA 
BRANCH   9  15
HETATM   15  O   UNL     1     -11.389  11.601  63.632  1.00  0.00    -0.413 OA 
HETATM   16  C   UNL     1     -10.034  11.468  63.218  1.00  0.00    -0.409 C  
ENDBRANCH   9  15
ENDBRANCH   6   7
ENDBRANCH   5   6
ENDBRANCH   4   5
ENDBRANCH   3   4
ENDBRANCH   2   3
TORSDOF 6
ENDMDL
MODEL       16
REMARK 921   NORMALIZED FREE ENERGY PREDICTED BY IDOCK:   -4.70 KCAL/MOL
REMARK 922        TOTAL FREE ENERGY PREDICTED BY IDOCK:   -6.67 KCAL/MOL
REMARK 923 INTER-LIGAND FREE ENERGY PREDICTED BY IDOCK:   -6.07 KCAL/MOL
REMARK 924 INTRA-LIGAND FREE ENERGY PREDICTED BY IDOCK:   -0.60 KCAL/MOL
REMARK 927      BINDING AFFINITY PREDICTED BY RF-SCORE:    0.00 PKD
ROOT
HETATM    1  C   UNL     1     -13.615  13.169  72.205  1.00  0.00    -0.677 C  
HETATM    2  C   UNL     1     -14.244  14.550  72.106  1.00  0.00    -0.619 C  
ENDROOT
BRANCH   2   3
HETATM    3  C   UNL     1     -13.259  15.572  71.545  1.00  0.00    -0.589 C  
BRANCH   3   4
HETATM    4  C   UNL     1     -11.817  15.192  71.860  1.00  0.00    -0.404 C  
BRANCH   4   5
HETATM    5  O   UNL     1     -11.098  15.104  70.632  1.00  0.00    -0.288 OA 
BRANCH   5   6
HETATM    6  C   UNL     1     -11.851  15.644  69.548  1.00  0.00    -0.372 C  
BRANCH   6   7
HETATM    7  C   UNL     1     -11.782  14.701  68.373  1.00  0.00    -0.352 A  
HETATM    8  C   UNL     1     -11.884  13.312  68.575  1.00  0.00    -0.384 A  
HETATM    9  C   UNL     1     -11.761  12.428  67.502  1.00  0.00    -0.357 A  
HETATM   10  C   UNL     1     -11.544  12.950  66.222  1.00  0.00    -0.372 A  
HETATM   11  H   UNL     1     -11.259  12.464  64.280  1.00  0.00     0.000 HD 
HETATM   12  C   UNL     1     -11.456  14.318  65.998  1.00  0.00    -0.347 A  
HETATM   13  C   UNL     1     -11.572  15.195  67.076  1.00  0.00    -0.179 A  
HETATM   14  O   UNL     1     -11.406  12.110  65.150  1.00  0.00    -0.317 OA 
BRANCH   9  15
HETATM   15  O   UNL     1     -11.819  11.060  67.568  1.00  0.00    -0.571 OA 
HETATM   16  C   UNL     1     -11.255  10.457  68.727  1.00  0.00    -0.241 C  
ENDBRANCH   9  15
ENDBRANCH   6   7
ENDBRANCH   5   6
ENDBRANCH   4   5
ENDBRANCH   3   4
ENDBRANCH   2   3
TORSDOF 6
ENDMDL
MODEL       17
REMARK 921   NORMALIZED FREE ENERGY PREDICTED BY IDOCK:   -4.70 KCAL/MOL
REMARK 922        TOTAL FREE ENERGY PREDICTED BY IDOCK:   -6.66 KCAL/MOL
REMARK 923 INTER-LIGAND FREE ENERGY PREDICTED BY IDOCK:   -6.31 KCAL/MOL
REMARK 924 INTRA-LIGAND FREE ENERGY PREDICTED BY IDOCK:   -0.35 KCAL/MOL
REMARK 927      BINDING AFFINITY PREDICTED BY RF-SCORE:    0.00 PKD
ROOT
HETATM    1  C   UNL     1     -12.057  15.979  72.646  1.00  0.00    -0.640 C  
HETATM    2  C   UNL     1     -12.165  15.236  71.324  1.00  0.00    -0.408 C  
ENDROOT
BRANCH   2   3
HETATM    3  C   UNL     1     -12.914  13.916  71.485  1.00  0.00    -0.436 C  
BRANCH   3   4
HETATM    4  C   UNL     1     -12.340  12.832  70.580  1.00  0.00    -0.297 C  
BRANCH   4   5
HETATM    5  O   UNL     1     -11.775  13.461  69.431  1.00  0.00    -0.288 OA 
BRANCH   5   6
HETATM    6  C   UNL     1     -11.152  12.510  68.570  1.00  0.00    -0.262 C  
BRANCH   6   7
HETATM    7  C   UNL     1     -11.566  12.780  67.145  1.00  0.00    -0.426 A  
HETATM    8  C   UNL     1     -11.192  11.889  66.121  1.00  0.00    -0.387 A  
HETATM    9  C   UNL     1     -11.518  12.161  64.791  1.00  0.00    -0.322 A  
HETATM   10  C   UNL     1     -12.230  13.329  64.498  1.00  0.00    -0.400 A  
HETATM   11  H   UNL     1     -13.039  14.425  63.004  1.00  0.00     0.000 HD 
HETATM   12  C   UNL     1     -12.622  14.213  65.496  1.00  0.00    -0.501 A  
HETATM   13  C   UNL     1     -12.286  13.939  66.821  1.00  0.00    -0.370 A  
HETATM   14  O   UNL     1     -12.555  13.632  63.203  1.00  0.00    -0.792 OA 
BRANCH   9  15
HETATM   15  O   UNL     1     -11.196  11.390  63.704  1.00  0.00    -0.402 OA 
HETATM   16  C   UNL     1      -9.816  11.320  63.363  1.00  0.00    -0.385 C  
ENDBRANCH   9  15
ENDBRANCH   6   7
ENDBRANCH   5   6
ENDBRANCH   4   5
ENDBRANCH   3   4
ENDBRANCH   2   3
TORSDOF 6
ENDMDL
MODEL       18
REMARK 921   NORMALIZED FREE ENERGY PREDICTED BY IDOCK:   -4.70 KCAL/MOL
REMARK 922        TOTAL FREE ENERGY PREDICTED BY IDOCK:   -6.66 KCAL/MOL
REMARK 923 INTER-LIGAND FREE ENERGY PREDICTED BY IDOCK:   -6.29 KCAL/MOL
REMARK 924 INTRA-LIGAND FREE ENERGY PREDICTED BY IDOCK:   -0.37 KCAL/MOL
REMARK 927      BINDING AFFINITY PREDICTED BY RF-SCORE:    0.00 PKD
ROOT
HETATM    1  C   UNL     1     -12.516  15.740  74.126  1.00  0.00    -0.793 C  
HETATM    2  C   UNL     1     -12.070  16.175  72.739  1.00  0.00    -0.653 C  
ENDROOT
BRANCH   2   3
HETATM    3  C   UNL     1     -12.847  15.444  71.649  1.00  0.00    -0.492 C  
BRANCH   3   4
HETATM    4  C   UNL     1     -14.030  14.673  72.224  1.00  0.00    -0.489 C  
BRANCH   4   5
HETATM    5  O   UNL     1     -13.757  13.279  72.104  1.00  0.00    -0.507 OA 
BRANCH   5   6
HETATM    6  C   UNL     1     -12.743  13.028  71.133  1.00  0.00    -0.283 C  
BRANCH   6   7
HETATM    7  C   UNL     1     -12.451  11.549  71.085  1.00  0.00    -0.442 A  
HETATM    8  C   UNL     1     -11.502  11.046  70.175  1.00  0.00    -0.383 A  
HETATM    9  C   UNL     1     -11.268   9.673  70.081  1.00  0.00    -0.256 A  
HETATM   10  C   UNL     1     -11.988   8.810  70.915  1.00  0.00    -0.201 A  
HETATM   11  H   UNL     1     -12.279   6.870  71.405  1.00  0.00     0.000 HD 
HETATM   12  C   UNL     1     -12.917   9.287  71.831  1.00  0.00    -0.489 A  
HETATM   13  C   UNL     1     -13.151  10.659  71.913  1.00  0.00    -0.563 A  
HETATM   14  O   UNL     1     -11.791   7.457  70.839  1.00  0.00    -0.299 OA 
BRANCH   9  15
HETATM   15  O   UNL     1     -10.391   9.057  69.226  1.00  0.00    -0.209 OA 
HETATM   16  C   UNL     1     -10.632   9.236  67.835  1.00  0.00    -0.231 C  
ENDBRANCH   9  15
ENDBRANCH   6   7
ENDBRANCH   5   6
ENDBRANCH   4   5
ENDBRANCH   3   4
ENDBRANCH   2   3
TORSDOF 6
ENDMDL
MODEL       19
REMARK 921   NORMALIZED FREE ENERGY PREDICTED BY IDOCK:   -4.68 KCAL/MOL
REMARK 922        TOTAL FREE ENERGY PREDICTED BY IDOCK:   -6.63 KCAL/MOL
REMARK 923 INTER-LIGAND FREE ENERGY PREDICTED BY IDOCK:   -6.34 KCAL/MOL
REMARK 924 INTRA-LIGAND FREE ENERGY PREDICTED BY IDOCK:   -0.29 KCAL/MOL
REMARK 927      BINDING AFFINITY PREDICTED BY RF-SCORE:    0.00 PKD
ROOT
HETATM    1  C   UNL     1     -12.319  15.253  74.062  1.00  0.00    -0.767 C  
HETATM    2  C   UNL     1     -13.352  16.038  73.269  1.00  0.00    -0.625 C  
ENDROOT
BRANCH   2   3
HETATM    3  C   UNL     1     -14.004  15.174  72.193  1.00  0.00    -0.635 C  
BRANCH   3   4
HETATM    4  C   UNL     1     -13.195  15.185  70.901  1.00  0.00    -0.433 C  
BRANCH   4   5
HETATM    5  O   UNL     1     -12.500  13.944  70.797  1.00  0.00    -0.336 OA 
BRANCH   5   6
HETATM    6  C   UNL     1     -13.154  12.917  71.540  1.00  0.00    -0.298 C  
BRANCH   6   7
HETATM    7  C   UNL     1     -12.614  11.574  71.119  1.00  0.00    -0.463 A  
HETATM    8  C   UNL     1     -12.994  10.410  71.814  1.00  0.00    -0.580 A  
HETATM    9  C   UNL     1     -12.453   9.171  71.471  1.00  0.00    -0.346 A  
HETATM   10  C   UNL     1     -11.533   9.106  70.418  1.00  0.00    -0.194 A  
HETATM   11  H   UNL     1     -10.349   7.863  69.350  1.00  0.00     0.000 HD 
HETATM   12  C   UNL     1     -11.156  10.240  69.709  1.00  0.00    -0.340 A  
HETATM   13  C   UNL     1     -11.695  11.476  70.063  1.00  0.00    -0.414 A  
HETATM   14  O   UNL     1     -10.974   7.907  70.065  1.00  0.00    -0.249 OA 
BRANCH   9  15
HETATM   15  O   UNL     1     -12.723   7.972  72.079  1.00  0.00    -0.315 OA 
HETATM   16  C   UNL     1     -13.898   7.294  71.650  1.00  0.00    -0.349 C  
ENDBRANCH   9  15
ENDBRANCH   6   7
ENDBRANCH   5   6
ENDBRANCH   4   5
ENDBRANCH   3   4
ENDBRANCH   2   3
TORSDOF 6
ENDMDL
MODEL       20
REMARK 921   NORMALIZED FREE ENERGY PREDICTED BY IDOCK:   -4.66 KCAL/MOL
REMARK 922        TOTAL FREE ENERGY PREDICTED BY IDOCK:   -6.62 KCAL/MOL
REMARK 923 INTER-LIGAND FREE ENERGY PREDICTED BY IDOCK:   -6.18 KCAL/MOL
REMARK 924 INTRA-LIGAND FREE ENERGY PREDICTED BY IDOCK:   -0.43 KCAL/MOL
REMARK 927      BINDING AFFINITY PREDICTED BY RF-SCORE:    0.00 PKD
ROOT
HETATM    1  C   UNL     1      -8.300  20.059  67.088  1.00  0.00    -0.381 C  
HETATM    2  C   UNL     1      -9.631  20.127  67.818  1.00  0.00    -0.508 C  
ENDROOT
BRANCH   2   3
HETATM    3  C   UNL     1     -10.588  19.040  67.337  1.00  0.00    -0.559 C  
BRANCH   3   4
HETATM    4  C   UNL     1     -10.675  19.005  65.815  1.00  0.00    -0.276 C  
BRANCH   4   5
HETATM    5  O   UNL     1     -10.719  17.640  65.401  1.00  0.00    -0.618 OA 
BRANCH   5   6
HETATM    6  C   UNL     1      -9.808  16.839  66.150  1.00  0.00    -0.309 C  
BRANCH   6   7
HETATM    7  C   UNL     1     -10.374  15.449  66.304  1.00  0.00    -0.304 A  
HETATM    8  C   UNL     1     -11.329  14.971  65.386  1.00  0.00    -0.328 A  
HETATM    9  C   UNL     1     -11.903  13.710  65.554  1.00  0.00    -0.362 A  
HETATM   10  C   UNL     1     -11.505  12.929  66.645  1.00  0.00    -0.343 A  
HETATM   11  H   UNL     1     -11.788  11.162  67.586  1.00  0.00     0.000 HD 
HETATM   12  C   UNL     1     -10.553  13.376  67.553  1.00  0.00    -0.255 A  
HETATM   13  C   UNL     1      -9.990  14.640  67.383  1.00  0.00    -0.231 A  
HETATM   14  O   UNL     1     -12.058  11.693  66.845  1.00  0.00    -0.512 OA 
BRANCH   9  15
HETATM   15  O   UNL     1     -12.854  13.138  64.748  1.00  0.00    -0.701 OA 
HETATM   16  C   UNL     1     -12.401  12.621  63.502  1.00  0.00    -0.496 C  
ENDBRANCH   9  15
ENDBRANCH   6   7
ENDBRANCH   5   6
ENDBRANCH   4   5
ENDBRANCH   3   4
ENDBRANCH   2   3
TORSDOF 6
ENDMDL
MODEL       21
REMARK 921   NORMALIZED FREE ENERGY PREDICTED BY IDOCK:   -4.66 KCAL/MOL
REMARK 922        TOTAL FREE ENERGY PREDICTED BY IDOCK:   -6.61 KCAL/MOL
REMARK 923 INTER-LIGAND FREE ENERGY PREDICTED BY IDOCK:   -5.98 KCAL/MOL
REMARK 924 INTRA-LIGAND FREE ENERGY PREDICTED BY IDOCK:   -0.64 KCAL/MOL
REMARK 927      BINDING AFFINITY PREDICTED BY RF-SCORE:    0.00 PKD
ROOT
HETATM    1  C   UNL     1      -9.904  10.358  64.173  1.00  0.00    -0.379 C  
HETATM    2  C   UNL     1     -10.252  11.693  63.534  1.00  0.00    -0.474 C  
ENDROOT
BRANCH   2   3
HETATM    3  C   UNL     1     -11.761  11.856  63.370  1.00  0.00    -0.500 C  
BRANCH   3   4
HETATM    4  C   UNL     1     -12.183  13.316  63.488  1.00  0.00    -0.441 C  
BRANCH   4   5
HETATM    5  O   UNL     1     -12.828  13.495  64.748  1.00  0.00    -0.677 OA 
BRANCH   5   6
HETATM    6  C   UNL     1     -11.999  14.212  65.660  1.00  0.00    -0.396 C  
BRANCH   6   7
HETATM    7  C   UNL     1     -11.939  13.469  66.971  1.00  0.00    -0.440 A  
HETATM    8  C   UNL     1     -12.060  14.170  68.186  1.00  0.00    -0.297 A  
HETATM    9  C   UNL     1     -11.945  13.500  69.405  1.00  0.00    -0.330 A  
HETATM   10  C   UNL     1     -11.716  12.120  69.395  1.00  0.00    -0.329 A  
HETATM   11  H   UNL     1     -11.430  10.498  70.568  1.00  0.00     0.000 HD 
HETATM   12  C   UNL     1     -11.608  11.407  68.208  1.00  0.00    -0.376 A  
HETATM   13  C   UNL     1     -11.716  12.084  66.994  1.00  0.00    -0.341 A  
HETATM   14  O   UNL     1     -11.585  11.435  70.574  1.00  0.00    -0.278 OA 
BRANCH   9  15
HETATM   15  O   UNL     1     -12.022  14.067  70.651  1.00  0.00    -0.318 OA 
HETATM   16  C   UNL     1     -12.381  15.443  70.701  1.00  0.00    -0.403 C  
ENDBRANCH   9  15
ENDBRANCH   6   7
ENDBRANCH   5   6
ENDBRANCH   4   5
ENDBRANCH   3   4
ENDBRANCH   2   3
TORSDOF 6
ENDMDL
MODEL       22
REMARK 921   NORMALIZED FREE ENERGY PREDICTED BY IDOCK:   -4.63 KCAL/MOL
REMARK 922        TOTAL FREE ENERGY PREDICTED BY IDOCK:   -6.57 KCAL/MOL
REMARK 923 INTER-LIGAND FREE ENERGY PREDICTED BY IDOCK:   -5.88 KCAL/MOL
REMARK 924 INTRA-LIGAND FREE ENERGY PREDICTED BY IDOCK:   -0.69 KCAL/MOL
REMARK 927      BINDING AFFINITY PREDICTED BY RF-SCORE:    0.00 PKD
ROOT
HETATM    1  C   UNL     1     -10.196  10.822  65.553  1.00  0.00    -0.330 C  
HETATM    2  C   UNL     1     -10.222  10.797  64.033  1.00  0.00    -0.390 C  
ENDROOT
BRANCH   2   3
HETATM    3  C   UNL     1     -10.872  12.055  63.465  1.00  0.00    -0.509 C  
BRANCH   3   4
HETATM    4  C   UNL     1     -12.393  11.971  63.515  1.00  0.00    -0.551 C  
BRANCH   4   5
HETATM    5  O   UNL     1     -12.866  12.953  64.435  1.00  0.00    -0.696 OA 
BRANCH   5   6
HETATM    6  C   UNL     1     -12.008  14.092  64.468  1.00  0.00    -0.448 C  
BRANCH   6   7
HETATM    7  C   UNL     1     -11.703  14.447  65.901  1.00  0.00    -0.371 A  
HETATM    8  C   UNL     1     -10.931  15.587  66.197  1.00  0.00    -0.247 A  
HETATM    9  C   UNL     1     -10.593  15.891  67.516  1.00  0.00    -0.315 A  
HETATM   10  C   UNL     1     -11.042  15.047  68.538  1.00  0.00    -0.272 A  
HETATM   11  H   UNL     1     -11.023  14.737  70.536  1.00  0.00     0.000 HD 
HETATM   12  C   UNL     1     -11.818  13.926  68.269  1.00  0.00    -0.412 A  
HETATM   13  C   UNL     1     -12.145  13.624  66.947  1.00  0.00    -0.431 A  
HETATM   14  O   UNL     1     -10.717  15.309  69.842  1.00  0.00    -0.259 OA 
BRANCH   9  15
HETATM   15  O   UNL     1      -9.833  16.953  67.934  1.00  0.00    -0.251 OA 
HETATM   16  C   UNL     1     -10.365  18.249  67.686  1.00  0.00    -0.396 C  
ENDBRANCH   9  15
ENDBRANCH   6   7
ENDBRANCH   5   6
ENDBRANCH   4   5
ENDBRANCH   3   4
ENDBRANCH   2   3
TORSDOF 6
ENDMDL
MODEL       23
REMARK 921   NORMALIZED FREE ENERGY PREDICTED BY IDOCK:   -4.60 KCAL/MOL
REMARK 922        TOTAL FREE ENERGY PREDICTED BY IDOCK:   -6.54 KCAL/MOL
REMARK 923 INTER-LIGAND FREE ENERGY PREDICTED BY IDOCK:   -5.80 KCAL/MOL
REMARK 924 INTRA-LIGAND FREE ENERGY PREDICTED BY IDOCK:   -0.74 KCAL/MOL
REMARK 927      BINDING AFFINITY PREDICTED BY RF-SCORE:    0.00 PKD
ROOT
HETATM    1  C   UNL     1      -9.532  11.400  65.599  1.00  0.00    -0.253 C  
HETATM    2  C   UNL     1     -10.252  10.803  64.400  1.00  0.00    -0.432 C  
ENDROOT
BRANCH   2   3
HETATM    3  C   UNL     1     -10.650  11.880  63.396  1.00  0.00    -0.485 C  
BRANCH   3   4
HETATM    4  C   UNL     1     -12.156  12.117  63.396  1.00  0.00    -0.507 C  
BRANCH   4   5
HETATM    5  O   UNL     1     -12.403  13.427  63.904  1.00  0.00    -0.615 OA 
BRANCH   5   6
HETATM    6  C   UNL     1     -12.657  13.402  65.307  1.00  0.00    -0.464 C  
BRANCH   6   7
HETATM    7  C   UNL     1     -11.784  14.424  65.992  1.00  0.00    -0.378 A  
HETATM    8  C   UNL     1     -11.962  14.701  67.361  1.00  0.00    -0.309 A  
HETATM    9  C   UNL     1     -11.201  15.687  67.989  1.00  0.00    -0.339 A  
HETATM   10  C   UNL     1     -10.253  16.388  67.235  1.00  0.00    -0.278 A  
HETATM   11  H   UNL     1      -8.855  17.847  67.306  1.00  0.00     0.000 HD 
HETATM   12  C   UNL     1     -10.051  16.119  65.887  1.00  0.00    -0.379 A  
HETATM   13  C   UNL     1     -10.821  15.138  65.264  1.00  0.00    -0.414 A  
HETATM   14  O   UNL     1      -9.499  17.371  67.818  1.00  0.00    -0.254 OA 
BRANCH   9  15
HETATM   15  O   UNL     1     -11.291  16.066  69.304  1.00  0.00    -0.325 OA 
HETATM   16  C   UNL     1     -12.210  15.339  70.111  1.00  0.00    -0.364 C  
ENDBRANCH   9  15
ENDBRANCH   6   7
ENDBRANCH   5   6
ENDBRANCH   4   5
ENDBRANCH   3   4
ENDBRANCH   2   3
TORSDOF 6
ENDMDL
MODEL       24
REMARK 921   NORMALIZED FREE ENERGY PREDICTED BY IDOCK:   -4.58 KCAL/MOL
REMARK 922        TOTAL FREE ENERGY PREDICTED BY IDOCK:   -6.51 KCAL/MOL
REMARK 923 INTER-LIGAND FREE ENERGY PREDICTED BY IDOCK:   -6.01 KCAL/MOL
REMARK 924 INTRA-LIGAND FREE ENERGY PREDICTED BY IDOCK:   -0.50 KCAL/MOL
REMARK 927      BINDING AFFINITY PREDICTED BY RF-SCORE:    0.00 PKD
ROOT
HETATM    1  C   UNL     1     -12.767  12.083  71.554  1.00  0.00    -0.360 C  
HETATM    2  C   UNL     1     -13.777  13.024  72.192  1.00  0.00    -0.547 C  
ENDROOT
BRANCH   2   3
HETATM    3  C   UNL     1     -13.087  14.196  72.884  1.00  0.00    -0.544 C  
BRANCH   3   4
HETATM    4  C   UNL     1     -13.674  15.532  72.442  1.00  0.00    -0.559 C  
BRANCH   4   5
HETATM    5  O   UNL     1     -13.275  15.772  71.093  1.00  0.00    -0.526 OA 
BRANCH   5   6
HETATM    6  C   UNL     1     -11.857  15.875  70.981  1.00  0.00    -0.428 C  
BRANCH   6   7
HETATM    7  C   UNL     1     -11.467  15.850  69.524  1.00  0.00    -0.342 A  
HETATM    8  C   UNL     1     -11.820  14.751  68.718  1.00  0.00    -0.330 A  
HETATM    9  C   UNL     1     -11.413  14.691  67.384  1.00  0.00    -0.369 A  
HETATM   10  C   UNL     1     -10.655  15.746  66.864  1.00  0.00    -0.317 A  
HETATM   11  H   UNL     1      -9.715  16.428  65.209  1.00  0.00     0.000 HD 
HETATM   12  C   UNL     1     -10.310  16.847  67.638  1.00  0.00    -0.317 A  
HETATM   13  C   UNL     1     -10.714  16.897  68.972  1.00  0.00    -0.308 A  
HETATM   14  O   UNL     1     -10.229  15.712  65.563  1.00  0.00    -0.343 OA 
BRANCH   9  15
HETATM   15  O   UNL     1     -11.670  13.672  66.503  1.00  0.00    -0.345 OA 
HETATM   16  C   UNL     1     -12.888  13.760  65.773  1.00  0.00    -0.379 C  
ENDBRANCH   9  15
ENDBRANCH   6   7
ENDBRANCH   5   6
ENDBRANCH   4   5
ENDBRANCH   3   4
ENDBRANCH   2   3
TORSDOF 6
ENDMDL
MODEL       25
REMARK 921   NORMALIZED FREE ENERGY PREDICTED BY IDOCK:   -4.58 KCAL/MOL
REMARK 922        TOTAL FREE ENERGY PREDICTED BY IDOCK:   -6.50 KCAL/MOL
REMARK 923 INTER-LIGAND FREE ENERGY PREDICTED BY IDOCK:   -6.28 KCAL/MOL
REMARK 924 INTRA-LIGAND FREE ENERGY PREDICTED BY IDOCK:   -0.22 KCAL/MOL
REMARK 927      BINDING AFFINITY PREDICTED BY RF-SCORE:    0.00 PKD
ROOT
HETATM    1  C   UNL     1     -10.612   5.770  70.812  1.00  0.00    -0.337 C  
HETATM    2  C   UNL     1     -11.694   6.730  70.341  1.00  0.00    -0.418 C  
ENDROOT
BRANCH   2   3
HETATM    3  C   UNL     1     -12.572   7.192  71.500  1.00  0.00    -0.427 C  
BRANCH   3   4
HETATM    4  C   UNL     1     -11.862   8.231  72.362  1.00  0.00    -0.396 C  
BRANCH   4   5
HETATM    5  O   UNL     1     -11.881   9.477  71.668  1.00  0.00    -0.366 OA 
BRANCH   5   6
HETATM    6  C   UNL     1     -12.993  10.277  72.065  1.00  0.00    -0.402 C  
BRANCH   6   7
HETATM    7  C   UNL     1     -12.797  11.687  71.569  1.00  0.00    -0.469 A  
HETATM    8  C   UNL     1     -13.311  12.772  72.303  1.00  0.00    -0.563 A  
HETATM    9  C   UNL     1     -13.188  14.076  71.822  1.00  0.00    -0.375 A  
HETATM   10  C   UNL     1     -12.536  14.284  70.601  1.00  0.00    -0.358 A  
HETATM   11  H   UNL     1     -11.966  15.691  69.266  1.00  0.00     0.000 HD 
HETATM   12  C   UNL     1     -12.007  13.229  69.869  1.00  0.00    -0.400 A  
HETATM   13  C   UNL     1     -12.141  11.928  70.352  1.00  0.00    -0.421 A  
HETATM   14  O   UNL     1     -12.409  15.550  70.094  1.00  0.00    -0.373 OA 
BRANCH   9  15
HETATM   15  O   UNL     1     -13.662  15.212  72.427  1.00  0.00    -0.412 OA 
HETATM   16  C   UNL     1     -12.799  15.832  73.374  1.00  0.00    -0.564 C  
ENDBRANCH   9  15
ENDBRANCH   6   7
ENDBRANCH   5   6
ENDBRANCH   4   5
ENDBRANCH   3   4
ENDBRANCH   2   3
TORSDOF 6
ENDMDL
MODEL       26
REMARK 921   NORMALIZED FREE ENERGY PREDICTED BY IDOCK:   -4.57 KCAL/MOL
REMARK 922        TOTAL FREE ENERGY PREDICTED BY IDOCK:   -6.50 KCAL/MOL
REMARK 923 INTER-LIGAND FREE ENERGY PREDICTED BY IDOCK:   -6.14 KCAL/MOL
REMARK 924 INTRA-LIGAND FREE ENERGY PREDICTED BY IDOCK:   -0.35 KCAL/MOL
REMARK 927      BINDING AFFINITY PREDICTED BY RF-SCORE:    0.00 PKD
ROOT
HETATM    1  C   UNL     1      -9.986  19.853  66.367  1.00  0.00    -0.593 C  
HETATM    2  C   UNL     1      -9.987  19.940  67.885  1.00  0.00    -0.552 C  
ENDROOT
BRANCH   2   3
HETATM    3  C   UNL     1     -10.142  18.563  68.523  1.00  0.00    -0.414 C  
BRANCH   3   4
HETATM    4  C   UNL     1     -10.585  17.520  67.503  1.00  0.00    -0.333 C  
BRANCH   4   5
HETATM    5  O   UNL     1     -10.994  16.350  68.209  1.00  0.00    -0.336 OA 
BRANCH   5   6
HETATM    6  C   UNL     1     -10.522  16.360  69.554  1.00  0.00    -0.301 C  
BRANCH   6   7
HETATM    7  C   UNL     1     -11.407  15.481  70.402  1.00  0.00    -0.360 A  
HETATM    8  C   UNL     1     -11.574  14.122  70.075  1.00  0.00    -0.315 A  
HETATM    9  C   UNL     1     -12.437  13.315  70.817  1.00  0.00    -0.324 A  
HETATM   10  C   UNL     1     -13.126  13.881  71.896  1.00  0.00    -0.385 A  
HETATM   11  H   UNL     1     -14.458  13.504  73.369  1.00  0.00     0.000 HD 
HETATM   12  C   UNL     1     -12.964  15.216  72.245  1.00  0.00    -0.442 A  
HETATM   13  C   UNL     1     -12.106  16.018  71.494  1.00  0.00    -0.513 A  
HETATM   14  O   UNL     1     -13.991  13.120  72.636  1.00  0.00    -0.708 OA 
BRANCH   9  15
HETATM   15  O   UNL     1     -12.703  11.989  70.590  1.00  0.00    -0.200 OA 
HETATM   16  C   UNL     1     -11.812  11.305  69.718  1.00  0.00    -0.364 C  
ENDBRANCH   9  15
ENDBRANCH   6   7
ENDBRANCH   5   6
ENDBRANCH   4   5
ENDBRANCH   3   4
ENDBRANCH   2   3
TORSDOF 6
ENDMDL
MODEL       27
REMARK 921   NORMALIZED FREE ENERGY PREDICTED BY IDOCK:   -4.55 KCAL/MOL
REMARK 922        TOTAL FREE ENERGY PREDICTED BY IDOCK:   -6.46 KCAL/MOL
REMARK 923 INTER-LIGAND FREE ENERGY PREDICTED BY IDOCK:   -6.07 KCAL/MOL
REMARK 924 INTRA-LIGAND FREE ENERGY PREDICTED BY IDOCK:   -0.38 KCAL/MOL
REMARK 927      BINDING AFFINITY PREDICTED BY RF-SCORE:    0.00 PKD
ROOT
HETATM    1  C   UNL     1     -11.456   6.527  70.149  1.00  0.00    -0.477 C  
HETATM    2  C   UNL     1     -11.882   6.582  71.608  1.00  0.00    -0.384 C  
ENDROOT
BRANCH   2   3
HETATM    3  C   UNL     1     -11.844   8.009  72.147  1.00  0.00    -0.401 C  
BRANCH   3   4
HETATM    4  C   UNL     1     -13.245   8.594  72.283  1.00  0.00    -0.372 C  
BRANCH   4   5
HETATM    5  O   UNL     1     -13.439   9.540  71.233  1.00  0.00    -0.370 OA 
BRANCH   5   6
HETATM    6  C   UNL     1     -12.280  10.348  71.039  1.00  0.00    -0.393 C  
BRANCH   6   7
HETATM    7  C   UNL     1     -12.666  11.803  71.124  1.00  0.00    -0.405 A  
HETATM    8  C   UNL     1     -12.128  12.731  70.211  1.00  0.00    -0.373 A  
HETATM    9  C   UNL     1     -12.431  14.089  70.319  1.00  0.00    -0.338 A  
HETATM   10  C   UNL     1     -13.286  14.508  71.344  1.00  0.00    -0.355 A  
HETATM   11  H   UNL     1     -14.173  16.120  72.181  1.00  0.00     0.000 HD 
HETATM   12  C   UNL     1     -13.840  13.608  72.245  1.00  0.00    -0.689 A  
HETATM   13  C   UNL     1     -13.526  12.254  72.137  1.00  0.00    -0.431 A  
HETATM   14  O   UNL     1     -13.593  15.835  71.485  1.00  0.00    -0.488 OA 
BRANCH   9  15
HETATM   15  O   UNL     1     -11.958  15.091  69.511  1.00  0.00    -0.303 OA 
HETATM   16  C   UNL     1     -10.616  15.507  69.739  1.00  0.00    -0.295 C  
ENDBRANCH   9  15
ENDBRANCH   6   7
ENDBRANCH   5   6
ENDBRANCH   4   5
ENDBRANCH   3   4
ENDBRANCH   2   3
TORSDOF 6
ENDMDL
MODEL       28
REMARK 921   NORMALIZED FREE ENERGY PREDICTED BY IDOCK:   -4.55 KCAL/MOL
REMARK 922        TOTAL FREE ENERGY PREDICTED BY IDOCK:   -6.46 KCAL/MOL
REMARK 923 INTER-LIGAND FREE ENERGY PREDICTED BY IDOCK:   -5.78 KCAL/MOL
REMARK 924 INTRA-LIGAND FREE ENERGY PREDICTED BY IDOCK:   -0.68 KCAL/MOL
REMARK 927      BINDING AFFINITY PREDICTED BY RF-SCORE:    0.00 PKD
ROOT
HETATM    1  C   UNL     1      -9.121   9.713  69.893  1.00  0.00    -0.250 C  
HETATM    2  C   UNL     1      -9.942   8.555  70.437  1.00  0.00    -0.203 C  
ENDROOT
BRANCH   2   3
HETATM    3  C   UNL     1     -10.548   8.892  71.797  1.00  0.00    -0.432 C  
BRANCH   3   4
HETATM    4  C   UNL     1     -12.030   8.540  71.852  1.00  0.00    -0.345 C  
BRANCH   4   5
HETATM    5  O   UNL     1     -12.751   9.517  71.103  1.00  0.00    -0.317 OA 
BRANCH   5   6
HETATM    6  C   UNL     1     -13.131  10.623  71.920  1.00  0.00    -0.458 C  
BRANCH   6   7
HETATM    7  C   UNL     1     -12.783  11.909  71.213  1.00  0.00    -0.401 A  
HETATM    8  C   UNL     1     -13.259  13.138  71.709  1.00  0.00    -0.494 A  
HETATM    9  C   UNL     1     -12.993  14.327  71.029  1.00  0.00    -0.342 A  
HETATM   10  C   UNL     1     -12.237  14.275  69.852  1.00  0.00    -0.352 A  
HETATM   11  H   UNL     1     -11.455  15.387  68.356  1.00  0.00     0.000 HD 
HETATM   12  C   UNL     1     -11.744  13.075  69.355  1.00  0.00    -0.386 A  
HETATM   13  C   UNL     1     -12.021  11.889  70.035  1.00  0.00    -0.409 A  
HETATM   14  O   UNL     1     -11.968  15.422  69.154  1.00  0.00    -0.335 OA 
BRANCH   9  15
HETATM   15  O   UNL     1     -13.414  15.580  71.392  1.00  0.00    -0.496 OA 
HETATM   16  C   UNL     1     -13.767  15.758  72.759  1.00  0.00    -0.560 C  
ENDBRANCH   9  15
ENDBRANCH   6   7
ENDBRANCH   5   6
ENDBRANCH   4   5
ENDBRANCH   3   4
ENDBRANCH   2   3
TORSDOF 6
ENDMDL
MODEL       29
REMARK 921   NORMALIZED FREE ENERGY PREDICTED BY IDOCK:   -4.55 KCAL/MOL
REMARK 922        TOTAL FREE ENERGY PREDICTED BY IDOCK:   -6.46 KCAL/MOL
REMARK 923 INTER-LIGAND FREE ENERGY PREDICTED BY IDOCK:   -5.85 KCAL/MOL
REMARK 924 INTRA-LIGAND FREE ENERGY PREDICTED BY IDOCK:   -0.60 KCAL/MOL
REMARK 927      BINDING AFFINITY PREDICTED BY RF-SCORE:    0.00 PKD
ROOT
HETATM    1  C   UNL     1     -11.000  15.482  65.099  1.00  0.00    -0.422 C  
HETATM    2  C   UNL     1     -11.978  14.512  64.456  1.00  0.00    -0.482 C  
ENDROOT
BRANCH   2   3
HETATM    3  C   UNL     1     -12.650  13.623  65.499  1.00  0.00    -0.541 C  
BRANCH   3   4
HETATM    4  C   UNL     1     -11.814  12.385  65.802  1.00  0.00    -0.406 C  
BRANCH   4   5
HETATM    5  O   UNL     1     -12.078  11.983  67.144  1.00  0.00    -0.587 OA 
BRANCH   5   6
HETATM    6  C   UNL     1     -10.965  12.246  67.996  1.00  0.00    -0.225 C  
BRANCH   6   7
HETATM    7  C   UNL     1     -11.340  13.313  68.994  1.00  0.00    -0.334 A  
HETATM    8  C   UNL     1     -10.848  14.624  68.844  1.00  0.00    -0.257 A  
HETATM    9  C   UNL     1     -11.140  15.603  69.795  1.00  0.00    -0.313 A  
HETATM   10  C   UNL     1     -11.937  15.259  70.893  1.00  0.00    -0.342 A  
HETATM   11  H   UNL     1     -12.772  15.959  72.596  1.00  0.00     0.000 HD 
HETATM   12  C   UNL     1     -12.444  13.975  71.051  1.00  0.00    -0.444 A  
HETATM   13  C   UNL     1     -12.142  13.000  70.101  1.00  0.00    -0.377 A  
HETATM   14  O   UNL     1     -12.231  16.192  71.850  1.00  0.00    -0.472 OA 
BRANCH   9  15
HETATM   15  O   UNL     1     -10.708  16.904  69.778  1.00  0.00    -0.291 OA 
HETATM   16  C   UNL     1     -10.450  17.469  68.497  1.00  0.00    -0.361 C  
ENDBRANCH   9  15
ENDBRANCH   6   7
ENDBRANCH   5   6
ENDBRANCH   4   5
ENDBRANCH   3   4
ENDBRANCH   2   3
TORSDOF 6
ENDMDL
MODEL       30
REMARK 921   NORMALIZED FREE ENERGY PREDICTED BY IDOCK:   -4.54 KCAL/MOL
REMARK 922        TOTAL FREE ENERGY PREDICTED BY IDOCK:   -6.45 KCAL/MOL
REMARK 923 INTER-LIGAND FREE ENERGY PREDICTED BY IDOCK:   -5.84 KCAL/MOL
REMARK 924 INTRA-LIGAND FREE ENERGY PREDICTED BY IDOCK:   -0.61 KCAL/MOL
REMARK 927      BINDING AFFINITY PREDICTED BY RF-SCORE:    0.00 PKD
ROOT
HETATM    1  C   UNL     1     -10.071  14.776  66.521  1.00  0.00    -0.281 C  
HETATM    2  C   UNL     1     -11.217  15.019  65.552  1.00  0.00    -0.344 C  
ENDROOT
BRANCH   2   3
HETATM    3  C   UNL     1     -12.146  13.812  65.473  1.00  0.00    -0.434 C  
BRANCH   3   4
HETATM    4  C   UNL     1     -11.397  12.510  65.735  1.00  0.00    -0.336 C  
BRANCH   4   5
HETATM    5  O   UNL     1     -12.071  11.809  66.779  1.00  0.00    -0.547 OA 
BRANCH   5   6
HETATM    6  C   UNL     1     -11.176  11.456  67.832  1.00  0.00    -0.288 C  
BRANCH   6   7
HETATM    7  C   UNL     1     -11.764  11.885  69.152  1.00  0.00    -0.380 A  
HETATM    8  C   UNL     1     -12.324  10.928  70.020  1.00  0.00    -0.385 A  
HETATM    9  C   UNL     1     -12.925  11.321  71.216  1.00  0.00    -0.327 A  
HETATM   10  C   UNL     1     -12.952  12.682  71.540  1.00  0.00    -0.282 A  
HETATM   11  H   UNL     1     -13.564  14.027  72.921  1.00  0.00     0.000 HD 
HETATM   12  C   UNL     1     -12.392  13.641  70.706  1.00  0.00    -0.446 A  
HETATM   13  C   UNL     1     -11.800  13.242  69.508  1.00  0.00    -0.388 A  
HETATM   14  O   UNL     1     -13.545  13.103  72.701  1.00  0.00    -0.604 OA 
BRANCH   9  15
HETATM   15  O   UNL     1     -13.522  10.495  72.133  1.00  0.00    -0.382 OA 
HETATM   16  C   UNL     1     -12.961   9.195  72.275  1.00  0.00    -0.420 C  
ENDBRANCH   9  15
ENDBRANCH   6   7
ENDBRANCH   5   6
ENDBRANCH   4   5
ENDBRANCH   3   4
ENDBRANCH   2   3
TORSDOF 6
ENDMDL
MODEL       31
REMARK 921   NORMALIZED FREE ENERGY PREDICTED BY IDOCK:   -4.53 KCAL/MOL
REMARK 922        TOTAL FREE ENERGY PREDICTED BY IDOCK:   -6.44 KCAL/MOL
REMARK 923 INTER-LIGAND FREE ENERGY PREDICTED BY IDOCK:   -5.78 KCAL/MOL
REMARK 924 INTRA-LIGAND FREE ENERGY PREDICTED BY IDOCK:   -0.66 KCAL/MOL
REMARK 927      BINDING AFFINITY PREDICTED BY RF-SCORE:    0.00 PKD
ROOT
HETATM    1  C   UNL     1     -14.339  15.424  72.312  1.00  0.00    -0.576 C  
HETATM    2  C   UNL     1     -13.188  15.689  73.269  1.00  0.00    -0.666 C  
ENDROOT
BRANCH   2   3
HETATM    3  C   UNL     1     -11.838  15.474  72.592  1.00  0.00    -0.575 C  
BRANCH   3   4
HETATM    4  C   UNL     1     -11.873  15.893  71.127  1.00  0.00    -0.438 C  
BRANCH   4   5
HETATM    5  O   UNL     1     -11.215  14.888  70.358  1.00  0.00    -0.250 OA 
BRANCH   5   6
HETATM    6  C   UNL     1     -12.145  14.124  69.593  1.00  0.00    -0.349 C  
BRANCH   6   7
HETATM    7  C   UNL     1     -12.070  12.678  70.014  1.00  0.00    -0.339 A  
HETATM    8  C   UNL     1     -11.407  11.739  69.201  1.00  0.00    -0.340 A  
HETATM    9  C   UNL     1     -11.384  10.388  69.551  1.00  0.00    -0.265 A  
HETATM   10  C   UNL     1     -12.024   9.988  70.730  1.00  0.00    -0.335 A  
HETATM   11  H   UNL     1     -12.465   8.396  71.896  1.00  0.00     0.000 HD 
HETATM   12  C   UNL     1     -12.670  10.900  71.554  1.00  0.00    -0.533 A  
HETATM   13  C   UNL     1     -12.696  12.247  71.194  1.00  0.00    -0.340 A  
HETATM   14  O   UNL     1     -12.031   8.668  71.096  1.00  0.00    -0.290 OA 
BRANCH   9  15
HETATM   15  O   UNL     1     -10.796   9.376  68.838  1.00  0.00    -0.204 OA 
HETATM   16  C   UNL     1     -10.549   9.631  67.461  1.00  0.00    -0.277 C  
ENDBRANCH   9  15
ENDBRANCH   6   7
ENDBRANCH   5   6
ENDBRANCH   4   5
ENDBRANCH   3   4
ENDBRANCH   2   3
TORSDOF 6
ENDMDL
MODEL       32
REMARK 921   NORMALIZED FREE ENERGY PREDICTED BY IDOCK:   -4.53 KCAL/MOL
REMARK 922        TOTAL FREE ENERGY PREDICTED BY IDOCK:   -6.44 KCAL/MOL
REMARK 923 INTER-LIGAND FREE ENERGY PREDICTED BY IDOCK:   -6.03 KCAL/MOL
REMARK 924 INTRA-LIGAND FREE ENERGY PREDICTED BY IDOCK:   -0.40 KCAL/MOL
REMARK 927      BINDING AFFINITY PREDICTED BY RF-SCORE:    0.00 PKD
ROOT
HETATM    1  C   UNL     1     -13.175  15.691  73.133  1.00  0.00    -0.674 C  
HETATM    2  C   UNL     1     -13.467  14.309  72.572  1.00  0.00    -0.613 C  
ENDROOT
BRANCH   2   3
HETATM    3  C   UNL     1     -12.760  14.087  71.238  1.00  0.00    -0.439 C  
BRANCH   3   4
HETATM    4  C   UNL     1     -12.779  15.346  70.378  1.00  0.00    -0.362 C  
BRANCH   4   5
HETATM    5  O   UNL     1     -11.466  15.555  69.861  1.00  0.00    -0.275 OA 
BRANCH   5   6
HETATM    6  C   UNL     1     -11.491  15.787  68.454  1.00  0.00    -0.365 C  
BRANCH   6   7
HETATM    7  C   UNL     1     -11.267  14.484  67.729  1.00  0.00    -0.312 A  
HETATM    8  C   UNL     1     -12.102  14.122  66.654  1.00  0.00    -0.480 A  
HETATM    9  C   UNL     1     -11.941  12.891  66.016  1.00  0.00    -0.446 A  
HETATM   10  C   UNL     1     -10.929  12.031  66.458  1.00  0.00    -0.295 A  
HETATM   11  H   UNL     1     -10.067  10.227  66.161  1.00  0.00     0.000 HD 
HETATM   12  C   UNL     1     -10.086  12.376  67.506  1.00  0.00    -0.205 A  
HETATM   13  C   UNL     1     -10.257  13.603  68.145  1.00  0.00    -0.247 A  
HETATM   14  O   UNL     1     -10.753  10.811  65.862  1.00  0.00    -0.179 OA 
BRANCH   9  15
HETATM   15  O   UNL     1     -12.697  12.412  64.977  1.00  0.00    -0.631 OA 
HETATM   16  C   UNL     1     -12.285  12.789  63.668  1.00  0.00    -0.512 C  
ENDBRANCH   9  15
ENDBRANCH   6   7
ENDBRANCH   5   6
ENDBRANCH   4   5
ENDBRANCH   3   4
ENDBRANCH   2   3
TORSDOF 6
ENDMDL
MODEL       33
REMARK 921   NORMALIZED FREE ENERGY PREDICTED BY IDOCK:   -4.53 KCAL/MOL
REMARK 922        TOTAL FREE ENERGY PREDICTED BY IDOCK:   -6.43 KCAL/MOL
REMARK 923 INTER-LIGAND FREE ENERGY PREDICTED BY IDOCK:   -5.78 KCAL/MOL
REMARK 924 INTRA-LIGAND FREE ENERGY PREDICTED BY IDOCK:   -0.65 KCAL/MOL
REMARK 927      BINDING AFFINITY PREDICTED BY RF-SCORE:    0.00 PKD
ROOT
HETATM    1  C   UNL     1     -10.024  10.462  65.149  1.00  0.00    -0.390 C  
HETATM    2  C   UNL     1     -10.066  10.871  63.686  1.00  0.00    -0.414 C  
ENDROOT
BRANCH   2   3
HETATM    3  C   UNL     1     -10.800  12.196  63.498  1.00  0.00    -0.518 C  
BRANCH   3   4
HETATM    4  C   UNL     1     -12.311  12.016  63.574  1.00  0.00    -0.551 C  
BRANCH   4   5
HETATM    5  O   UNL     1     -12.788  12.706  64.727  1.00  0.00    -0.730 OA 
BRANCH   5   6
HETATM    6  C   UNL     1     -11.892  13.745  65.118  1.00  0.00    -0.352 C  
BRANCH   6   7
HETATM    7  C   UNL     1     -11.821  13.803  66.624  1.00  0.00    -0.445 A  
HETATM    8  C   UNL     1     -11.987  12.630  67.384  1.00  0.00    -0.309 A  
HETATM    9  C   UNL     1     -11.983  12.683  68.779  1.00  0.00    -0.237 A  
HETATM   10  C   UNL     1     -11.801  13.922  69.405  1.00  0.00    -0.334 A  
HETATM   11  H   UNL     1     -11.681  14.850  71.196  1.00  0.00     0.000 HD 
HETATM   12  C   UNL     1     -11.619  15.088  68.673  1.00  0.00    -0.347 A  
HETATM   13  C   UNL     1     -11.633  15.029  67.280  1.00  0.00    -0.285 A  
HETATM   14  O   UNL     1     -11.805  14.010  70.771  1.00  0.00    -0.297 OA 
BRANCH   9  15
HETATM   15  O   UNL     1     -12.155  11.623  69.631  1.00  0.00    -0.304 OA 
HETATM   16  C   UNL     1     -11.367  10.467  69.371  1.00  0.00    -0.269 C  
ENDBRANCH   9  15
ENDBRANCH   6   7
ENDBRANCH   5   6
ENDBRANCH   4   5
ENDBRANCH   3   4
ENDBRANCH   2   3
TORSDOF 6
ENDMDL
MODEL       34
REMARK 921   NORMALIZED FREE ENERGY PREDICTED BY IDOCK:   -4.51 KCAL/MOL
REMARK 922        TOTAL FREE ENERGY PREDICTED BY IDOCK:   -6.41 KCAL/MOL
REMARK 923 INTER-LIGAND FREE ENERGY PREDICTED BY IDOCK:   -6.06 KCAL/MOL
REMARK 924 INTRA-LIGAND FREE ENERGY PREDICTED BY IDOCK:   -0.35 KCAL/MOL
REMARK 927      BINDING AFFINITY PREDICTED BY RF-SCORE:    0.00 PKD
ROOT
HETATM    1  C   UNL     1      -6.790  19.986  65.616  1.00  0.00    -0.314 C  
HETATM    2  C   UNL     1      -6.629  18.510  65.944  1.00  0.00    -0.299 C  
ENDROOT
BRANCH   2   3
HETATM    3  C   UNL     1      -7.718  18.029  66.899  1.00  0.00    -0.245 C  
BRANCH   3   4
HETATM    4  C   UNL     1      -9.087  18.571  66.505  1.00  0.00    -0.295 C  
BRANCH   4   5
HETATM    5  O   UNL     1      -9.821  17.522  65.877  1.00  0.00    -0.516 OA 
BRANCH   5   6
HETATM    6  C   UNL     1      -9.583  16.267  66.512  1.00  0.00    -0.264 C  
BRANCH   6   7
HETATM    7  C   UNL     1     -10.604  15.264  66.036  1.00  0.00    -0.327 A  
HETATM    8  C   UNL     1     -10.892  14.127  66.814  1.00  0.00    -0.296 A  
HETATM    9  C   UNL     1     -11.790  13.163  66.355  1.00  0.00    -0.400 A  
HETATM   10  C   UNL     1     -12.404  13.353  65.111  1.00  0.00    -0.456 A  
HETATM   11  H   UNL     1     -13.698  12.549  63.782  1.00  0.00     0.000 HD 
HETATM   12  C   UNL     1     -12.145  14.476  64.335  1.00  0.00    -0.492 A  
HETATM   13  C   UNL     1     -11.241  15.431  64.797  1.00  0.00    -0.404 A  
HETATM   14  O   UNL     1     -13.281  12.420  64.626  1.00  0.00    -0.822 OA 
BRANCH   9  15
HETATM   15  O   UNL     1     -12.140  12.006  67.003  1.00  0.00    -0.603 OA 
HETATM   16  C   UNL     1     -11.636  11.843  68.323  1.00  0.00    -0.327 C  
ENDBRANCH   9  15
ENDBRANCH   6   7
ENDBRANCH   5   6
ENDBRANCH   4   5
ENDBRANCH   3   4
ENDBRANCH   2   3
TORSDOF 6
ENDMDL
MODEL       35
REMARK 921   NORMALIZED FREE ENERGY PREDICTED BY IDOCK:   -4.50 KCAL/MOL
REMARK 922        TOTAL FREE ENERGY PREDICTED BY IDOCK:   -6.39 KCAL/MOL
REMARK 923 INTER-LIGAND FREE ENERGY PREDICTED BY IDOCK:   -5.79 KCAL/MOL
REMARK 924 INTRA-LIGAND FREE ENERGY PREDICTED BY IDOCK:   -0.61 KCAL/MOL
REMARK 927      BINDING AFFINITY PREDICTED BY RF-SCORE:    0.00 PKD
ROOT
HETATM    1  C   UNL     1     -10.057  10.812  65.282  1.00  0.00    -0.353 C  
HETATM    2  C   UNL     1     -10.308  10.895  63.784  1.00  0.00    -0.384 C  
ENDROOT
BRANCH   2   3
HETATM    3  C   UNL     1     -11.064  12.168  63.415  1.00  0.00    -0.495 C  
BRANCH   3   4
HETATM    4  C   UNL     1     -12.515  12.113  63.879  1.00  0.00    -0.478 C  
BRANCH   4   5
HETATM    5  O   UNL     1     -12.770  13.258  64.689  1.00  0.00    -0.643 OA 
BRANCH   5   6
HETATM    6  C   UNL     1     -11.670  14.166  64.668  1.00  0.00    -0.417 C  
BRANCH   6   7
HETATM    7  C   UNL     1     -11.433  14.697  66.060  1.00  0.00    -0.332 A  
HETATM    8  C   UNL     1     -12.024  14.061  67.168  1.00  0.00    -0.465 A  
HETATM    9  C   UNL     1     -11.859  14.580  68.453  1.00  0.00    -0.316 A  
HETATM   10  C   UNL     1     -11.090  15.737  68.619  1.00  0.00    -0.327 A  
HETATM   11  H   UNL     1     -10.397  17.064  69.978  1.00  0.00     0.000 HD 
HETATM   12  C   UNL     1     -10.485  16.370  67.541  1.00  0.00    -0.304 A  
HETATM   13  C   UNL     1     -10.660  15.851  66.258  1.00  0.00    -0.301 A  
HETATM   14  O   UNL     1     -10.920  16.278  69.865  1.00  0.00    -0.337 OA 
BRANCH   9  15
HETATM   15  O   UNL     1     -12.397  14.071  69.608  1.00  0.00    -0.334 OA 
HETATM   16  C   UNL     1     -11.944  12.781  70.002  1.00  0.00    -0.301 C  
ENDBRANCH   9  15
ENDBRANCH   6   7
ENDBRANCH   5   6
ENDBRANCH   4   5
ENDBRANCH   3   4
ENDBRANCH   2   3
TORSDOF 6
ENDMDL
MODEL       36
REMARK 921   NORMALIZED FREE ENERGY PREDICTED BY IDOCK:   -4.49 KCAL/MOL
REMARK 922        TOTAL FREE ENERGY PREDICTED BY IDOCK:   -6.38 KCAL/MOL
REMARK 923 INTER-LIGAND FREE ENERGY PREDICTED BY IDOCK:   -6.07 KCAL/MOL
REMARK 924 INTRA-LIGAND FREE ENERGY PREDICTED BY IDOCK:   -0.31 KCAL/MOL
REMARK 927      BINDING AFFINITY PREDICTED BY RF-SCORE:    0.00 PKD
ROOT
HETATM    1  C   UNL     1      -8.529  19.519  68.538  1.00  0.00    -0.374 C  
HETATM    2  C   UNL     1      -9.993  19.928  68.480  1.00  0.00    -0.507 C  
ENDROOT
BRANCH   2   3
HETATM    3  C   UNL     1     -10.673  19.391  67.224  1.00  0.00    -0.603 C  
BRANCH   3   4
HETATM    4  C   UNL     1      -9.918  18.201  66.643  1.00  0.00    -0.362 C  
BRANCH   4   5
HETATM    5  O   UNL     1     -10.775  17.062  66.688  1.00  0.00    -0.228 OA 
BRANCH   5   6
HETATM    6  C   UNL     1     -10.850  16.518  68.004  1.00  0.00    -0.337 C  
BRANCH   6   7
HETATM    7  C   UNL     1     -11.106  15.034  67.918  1.00  0.00    -0.310 A  
HETATM    8  C   UNL     1     -11.666  14.481  66.751  1.00  0.00    -0.393 A  
HETATM    9  C   UNL     1     -11.963  13.119  66.684  1.00  0.00    -0.389 A  
HETATM   10  C   UNL     1     -11.685  12.314  67.794  1.00  0.00    -0.337 A  
HETATM   11  H   UNL     1     -11.786  10.430  68.520  1.00  0.00     0.000 HD 
HETATM   12  C   UNL     1     -11.118  12.838  68.949  1.00  0.00    -0.310 A  
HETATM   13  C   UNL     1     -10.832  14.201  69.012  1.00  0.00    -0.273 A  
HETATM   14  O   UNL     1     -11.976  10.976  67.766  1.00  0.00    -0.609 OA 
BRANCH   9  15
HETATM   15  O   UNL     1     -12.527  12.463  65.619  1.00  0.00    -0.640 OA 
HETATM   16  C   UNL     1     -11.989  12.760  64.336  1.00  0.00    -0.399 C  
ENDBRANCH   9  15
ENDBRANCH   6   7
ENDBRANCH   5   6
ENDBRANCH   4   5
ENDBRANCH   3   4
ENDBRANCH   2   3
TORSDOF 6
ENDMDL
MODEL       37
REMARK 921   NORMALIZED FREE ENERGY PREDICTED BY IDOCK:   -4.48 KCAL/MOL
REMARK 922        TOTAL FREE ENERGY PREDICTED BY IDOCK:   -6.37 KCAL/MOL
REMARK 923 INTER-LIGAND FREE ENERGY PREDICTED BY IDOCK:   -5.82 KCAL/MOL
REMARK 924 INTRA-LIGAND FREE ENERGY PREDICTED BY IDOCK:   -0.55 KCAL/MOL
REMARK 927      BINDING AFFINITY PREDICTED BY RF-SCORE:    0.00 PKD
ROOT
HETATM    1  C   UNL     1     -10.590  19.464  65.865  1.00  0.00    -0.551 C  
HETATM    2  C   UNL     1     -11.031  19.093  67.272  1.00  0.00    -0.417 C  
ENDROOT
BRANCH   2   3
HETATM    3  C   UNL     1      -9.833  18.836  68.182  1.00  0.00    -0.396 C  
BRANCH   3   4
HETATM    4  C   UNL     1      -8.794  17.951  67.505  1.00  0.00    -0.248 C  
BRANCH   4   5
HETATM    5  O   UNL     1      -9.305  16.620  67.454  1.00  0.00    -0.220 OA 
BRANCH   5   6
HETATM    6  C   UNL     1      -9.001  15.993  66.209  1.00  0.00    -0.345 C  
BRANCH   6   7
HETATM    7  C   UNL     1     -10.095  15.016  65.861  1.00  0.00    -0.343 A  
HETATM    8  C   UNL     1      -9.978  14.201  64.718  1.00  0.00    -0.043 A  
HETATM    9  C   UNL     1     -11.012  13.338  64.354  1.00  0.00    -0.393 A  
HETATM   10  C   UNL     1     -12.161  13.291  65.150  1.00  0.00    -0.443 A  
HETATM   11  H   UNL     1     -13.980  12.431  65.354  1.00  0.00     0.000 HD 
HETATM   12  C   UNL     1     -12.291  14.074  66.290  1.00  0.00    -0.482 A  
HETATM   13  C   UNL     1     -11.257  14.941  66.644  1.00  0.00    -0.340 A  
HETATM   14  O   UNL     1     -13.199  12.464  64.813  1.00  0.00    -0.784 OA 
BRANCH   9  15
HETATM   15  O   UNL     1     -11.031  12.512  63.259  1.00  0.00    -0.425 OA 
HETATM   16  C   UNL     1     -10.161  11.387  63.299  1.00  0.00    -0.387 C  
ENDBRANCH   9  15
ENDBRANCH   6   7
ENDBRANCH   5   6
ENDBRANCH   4   5
ENDBRANCH   3   4
ENDBRANCH   2   3
TORSDOF 6
ENDMDL
MODEL       38
REMARK 921   NORMALIZED FREE ENERGY PREDICTED BY IDOCK:   -4.42 KCAL/MOL
REMARK 922        TOTAL FREE ENERGY PREDICTED BY IDOCK:   -6.29 KCAL/MOL
REMARK 923 INTER-LIGAND FREE ENERGY PREDICTED BY IDOCK:   -5.82 KCAL/MOL
REMARK 924 INTRA-LIGAND FREE ENERGY PREDICTED BY IDOCK:   -0.47 KCAL/MOL
REMARK 927      BINDING AFFINITY PREDICTED BY RF-SCORE:    0.00 PKD
ROOT
HETATM    1  C   UNL     1      -7.920   9.352  67.670  1.00  0.00    -0.099 C  
HETATM    2  C   UNL     1      -8.876  10.480  67.317  1.00  0.00    -0.138 C  
ENDROOT
BRANCH   2   3
HETATM    3  C   UNL     1     -10.276   9.951  67.016  1.00  0.00    -0.294 C  
BRANCH   3   4
HETATM    4  C   UNL     1     -11.274  10.365  68.092  1.00  0.00    -0.268 C  
BRANCH   4   5
HETATM    5  O   UNL     1     -12.104  11.396  67.559  1.00  0.00    -0.592 OA 
BRANCH   5   6
HETATM    6  C   UNL     1     -11.703  12.681  68.028  1.00  0.00    -0.350 C  
BRANCH   6   7
HETATM    7  C   UNL     1     -11.633  13.638  66.865  1.00  0.00    -0.397 A  
HETATM    8  C   UNL     1     -10.677  14.672  66.857  1.00  0.00    -0.294 A  
HETATM    9  C   UNL     1     -10.643  15.599  65.815  1.00  0.00    -0.361 A  
HETATM   10  C   UNL     1     -11.570  15.475  64.774  1.00  0.00    -0.256 A  
HETATM   11  H   UNL     1     -12.201  16.292  63.035  1.00  0.00     0.000 HD 
HETATM   12  C   UNL     1     -12.511  14.453  64.754  1.00  0.00    -0.371 A  
HETATM   13  C   UNL     1     -12.544  13.536  65.803  1.00  0.00    -0.490 A  
HETATM   14  O   UNL     1     -11.572  16.376  63.742  1.00  0.00    -1.055 OA 
BRANCH   9  15
HETATM   15  O   UNL     1      -9.781  16.659  65.700  1.00  0.00    -0.530 OA 
HETATM   16  C   UNL     1      -8.481  16.481  66.251  1.00  0.00    -0.328 C  
ENDBRANCH   9  15
ENDBRANCH   6   7
ENDBRANCH   5   6
ENDBRANCH   4   5
ENDBRANCH   3   4
ENDBRANCH   2   3
TORSDOF 6
ENDMDL
MODEL       39
REMARK 921   NORMALIZED FREE ENERGY PREDICTED BY IDOCK:   -4.42 KCAL/MOL
REMARK 922        TOTAL FREE ENERGY PREDICTED BY IDOCK:   -6.29 KCAL/MOL
REMARK 923 INTER-LIGAND FREE ENERGY PREDICTED BY IDOCK:   -5.56 KCAL/MOL
REMARK 924 INTRA-LIGAND FREE ENERGY PREDICTED BY IDOCK:   -0.73 KCAL/MOL
REMARK 927      BINDING AFFINITY PREDICTED BY RF-SCORE:    0.00 PKD
ROOT
HETATM    1  C   UNL     1      -9.479  16.875  67.200  1.00  0.00    -0.241 C  
HETATM    2  C   UNL     1     -10.132  17.517  68.414  1.00  0.00    -0.358 C  
ENDROOT
BRANCH   2   3
HETATM    3  C   UNL     1     -10.935  16.498  69.219  1.00  0.00    -0.302 C  
BRANCH   3   4
HETATM    4  C   UNL     1     -10.098  15.272  69.564  1.00  0.00    -0.256 C  
BRANCH   4   5
HETATM    5  O   UNL     1     -10.808  14.111  69.136  1.00  0.00    -0.250 OA 
BRANCH   5   6
HETATM    6  C   UNL     1     -10.051  13.355  68.194  1.00  0.00    -0.244 C  
BRANCH   6   7
HETATM    7  C   UNL     1     -10.759  13.361  66.863  1.00  0.00    -0.274 A  
HETATM    8  C   UNL     1     -10.163  12.753  65.742  1.00  0.00    -0.302 A  
HETATM    9  C   UNL     1     -10.782  12.807  64.493  1.00  0.00    -0.358 A  
HETATM   10  C   UNL     1     -12.010  13.468  64.378  1.00  0.00    -0.422 A  
HETATM   11  H   UNL     1     -13.472  13.998  63.086  1.00  0.00     0.000 HD 
HETATM   12  C   UNL     1     -12.624  14.061  65.475  1.00  0.00    -0.543 A  
HETATM   13  C   UNL     1     -11.995  14.010  66.718  1.00  0.00    -0.473 A  
HETATM   14  O   UNL     1     -12.638  13.549  63.164  1.00  0.00    -0.762 OA 
BRANCH   9  15
HETATM   15  O   UNL     1     -10.298  12.276  63.324  1.00  0.00    -0.413 OA 
HETATM   16  C   UNL     1      -9.897  10.912  63.367  1.00  0.00    -0.362 C  
ENDBRANCH   9  15
ENDBRANCH   6   7
ENDBRANCH   5   6
ENDBRANCH   4   5
ENDBRANCH   3   4
ENDBRANCH   2   3
TORSDOF 6
ENDMDL
MODEL       40
REMARK 921   NORMALIZED FREE ENERGY PREDICTED BY IDOCK:   -4.41 KCAL/MOL
REMARK 922        TOTAL FREE ENERGY PREDICTED BY IDOCK:   -6.27 KCAL/MOL
REMARK 923 INTER-LIGAND FREE ENERGY PREDICTED BY IDOCK:   -5.89 KCAL/MOL
REMARK 924 INTRA-LIGAND FREE ENERGY PREDICTED BY IDOCK:   -0.38 KCAL/MOL
REMARK 927      BINDING AFFINITY PREDICTED BY RF-SCORE:    0.00 PKD
ROOT
HETATM    1  C   UNL     1     -14.349   7.238  71.472  1.00  0.00    -0.558 C  
HETATM    2  C   UNL     1     -12.834   7.297  71.586  1.00  0.00    -0.415 C  
ENDROOT
BRANCH   2   3
HETATM    3  C   UNL     1     -12.352   8.713  71.888  1.00  0.00    -0.414 C  
BRANCH   3   4
HETATM    4  C   UNL     1     -13.502   9.617  72.316  1.00  0.00    -0.400 C  
BRANCH   4   5
HETATM    5  O   UNL     1     -13.231  10.938  71.851  1.00  0.00    -0.467 OA 
BRANCH   5   6
HETATM    6  C   UNL     1     -12.226  10.938  70.839  1.00  0.00    -0.381 C  
BRANCH   6   7
HETATM    7  C   UNL     1     -12.156  12.303  70.204  1.00  0.00    -0.364 A  
HETATM    8  C   UNL     1     -11.863  12.431  68.833  1.00  0.00    -0.350 A  
HETATM    9  C   UNL     1     -11.736  13.692  68.249  1.00  0.00    -0.363 A  
HETATM   10  C   UNL     1     -11.914  14.825  69.050  1.00  0.00    -0.273 A  
HETATM   11  H   UNL     1     -11.904  16.847  69.055  1.00  0.00     0.000 HD 
HETATM   12  C   UNL     1     -12.219  14.722  70.402  1.00  0.00    -0.395 A  
HETATM   13  C   UNL     1     -12.336  13.459  70.980  1.00  0.00    -0.401 A  
HETATM   14  O   UNL     1     -11.783  16.077  68.511  1.00  0.00    -0.375 OA 
BRANCH   9  15
HETATM   15  O   UNL     1     -11.434  13.951  66.937  1.00  0.00    -0.321 OA 
HETATM   16  C   UNL     1     -12.348  13.453  65.966  1.00  0.00    -0.413 C  
ENDBRANCH   9  15
ENDBRANCH   6   7
ENDBRANCH   5   6
ENDBRANCH   4   5
ENDBRANCH   3   4
ENDBRANCH   2   3
TORSDOF 6
ENDMDL
MODEL       41
REMARK 921   NORMALIZED FREE ENERGY PREDICTED BY IDOCK:   -4.40 KCAL/MOL
REMARK 922        TOTAL FREE ENERGY PREDICTED BY IDOCK:   -6.26 KCAL/MOL
REMARK 923 INTER-LIGAND FREE ENERGY PREDICTED BY IDOCK:   -5.96 KCAL/MOL
REMARK 924 INTRA-LIGAND FREE ENERGY PREDICTED BY IDOCK:   -0.30 KCAL/MOL
REMARK 927      BINDING AFFINITY PREDICTED BY RF-SCORE:    0.00 PKD
ROOT
HETATM    1  C   UNL     1     -13.519  12.488  72.212  1.00  0.00    -0.490 C  
HETATM    2  C   UNL     1     -13.569  13.963  72.580  1.00  0.00    -0.680 C  
ENDROOT
BRANCH   2   3
HETATM    3  C   UNL     1     -13.958  14.824  71.381  1.00  0.00    -0.512 C  
BRANCH   3   4
HETATM    4  C   UNL     1     -12.770  15.624  70.858  1.00  0.00    -0.445 C  
BRANCH   4   5
HETATM    5  O   UNL     1     -12.067  14.817  69.915  1.00  0.00    -0.303 OA 
BRANCH   5   6
HETATM    6  C   UNL     1     -10.704  15.221  69.798  1.00  0.00    -0.283 C  
BRANCH   6   7
HETATM    7  C   UNL     1     -10.573  16.214  68.671  1.00  0.00    -0.283 A  
HETATM    8  C   UNL     1     -10.597  15.773  67.334  1.00  0.00    -0.313 A  
HETATM    9  C   UNL     1     -10.416  16.676  66.286  1.00  0.00    -0.268 A  
HETATM   10  C   UNL     1     -10.218  18.028  66.589  1.00  0.00    -0.373 A  
HETATM   11  H   UNL     1      -9.890  19.855  65.789  1.00  0.00     0.000 HD 
HETATM   12  C   UNL     1     -10.206  18.486  67.900  1.00  0.00    -0.415 A  
HETATM   13  C   UNL     1     -10.380  17.577  68.943  1.00  0.00    -0.338 A  
HETATM   14  O   UNL     1     -10.024  18.938  65.584  1.00  0.00    -0.425 OA 
BRANCH   9  15
HETATM   15  O   UNL     1     -10.397  16.372  64.949  1.00  0.00    -0.590 OA 
HETATM   16  C   UNL     1     -11.594  15.829  64.405  1.00  0.00    -0.240 C  
ENDBRANCH   9  15
ENDBRANCH   6   7
ENDBRANCH   5   6
ENDBRANCH   4   5
ENDBRANCH   3   4
ENDBRANCH   2   3
TORSDOF 6
ENDMDL
MODEL       42
REMARK 921   NORMALIZED FREE ENERGY PREDICTED BY IDOCK:   -4.38 KCAL/MOL
REMARK 922        TOTAL FREE ENERGY PREDICTED BY IDOCK:   -6.24 KCAL/MOL
REMARK 923 INTER-LIGAND FREE ENERGY PREDICTED BY IDOCK:   -5.64 KCAL/MOL
REMARK 924 INTRA-LIGAND FREE ENERGY PREDICTED BY IDOCK:   -0.60 KCAL/MOL
REMARK 927      BINDING AFFINITY PREDICTED BY RF-SCORE:    0.00 PKD
ROOT
HETATM    1  C   UNL     1     -10.670   7.516  69.975  1.00  0.00    -0.248 C  
HETATM    2  C   UNL     1     -11.881   6.673  70.343  1.00  0.00    -0.407 C  
ENDROOT
BRANCH   2   3
HETATM    3  C   UNL     1     -12.516   7.149  71.647  1.00  0.00    -0.405 C  
BRANCH   3   4
HETATM    4  C   UNL     1     -13.983   7.513  71.456  1.00  0.00    -0.410 C  
BRANCH   4   5
HETATM    5  O   UNL     1     -14.073   8.923  71.262  1.00  0.00    -0.314 OA 
BRANCH   5   6
HETATM    6  C   UNL     1     -13.133   9.622  72.075  1.00  0.00    -0.445 C  
BRANCH   6   7
HETATM    7  C   UNL     1     -12.867  10.981  71.478  1.00  0.00    -0.555 A  
HETATM    8  C   UNL     1     -12.092  11.099  70.308  1.00  0.00    -0.462 A  
HETATM    9  C   UNL     1     -11.790  12.355  69.782  1.00  0.00    -0.317 A  
HETATM   10  C   UNL     1     -12.280  13.493  70.433  1.00  0.00    -0.356 A  
HETATM   11  H   UNL     1     -12.324  15.514  70.391  1.00  0.00     0.000 HD 
HETATM   12  C   UNL     1     -13.059  13.398  71.579  1.00  0.00    -0.427 A  
HETATM   13  C   UNL     1     -13.350  12.140  72.104  1.00  0.00    -0.438 A  
HETATM   14  O   UNL     1     -11.991  14.741  69.950  1.00  0.00    -0.292 OA 
BRANCH   9  15
HETATM   15  O   UNL     1     -11.032  12.607  68.667  1.00  0.00    -0.237 OA 
HETATM   16  C   UNL     1     -11.425  11.944  67.471  1.00  0.00    -0.326 C  
ENDBRANCH   9  15
ENDBRANCH   6   7
ENDBRANCH   5   6
ENDBRANCH   4   5
ENDBRANCH   3   4
ENDBRANCH   2   3
TORSDOF 6
ENDMDL
MODEL       43
REMARK 921   NORMALIZED FREE ENERGY PREDICTED BY IDOCK:   -4.35 KCAL/MOL
REMARK 922        TOTAL FREE ENERGY PREDICTED BY IDOCK:   -6.19 KCAL/MOL
REMARK 923 INTER-LIGAND FREE ENERGY PREDICTED BY IDOCK:   -5.91 KCAL/MOL
REMARK 924 INTRA-LIGAND FREE ENERGY PREDICTED BY IDOCK:   -0.28 KCAL/MOL
REMARK 927      BINDING AFFINITY PREDICTED BY RF-SCORE:    0.00 PKD
ROOT
HETATM    1  C   UNL     1     -11.274   6.223  69.622  1.00  0.00    -0.506 C  
HETATM    2  C   UNL     1     -11.678   6.359  71.081  1.00  0.00    -0.359 C  
ENDROOT
BRANCH   2   3
HETATM    3  C   UNL     1     -12.392   7.682  71.342  1.00  0.00    -0.358 C  
BRANCH   3   4
HETATM    4  C   UNL     1     -11.460   8.705  71.980  1.00  0.00    -0.367 C  
BRANCH   4   5
HETATM    5  O   UNL     1     -11.369   9.831  71.110  1.00  0.00    -0.344 OA 
BRANCH   5   6
HETATM    6  C   UNL     1     -12.506  10.682  71.237  1.00  0.00    -0.410 C  
BRANCH   6   7
HETATM    7  C   UNL     1     -12.256  11.967  70.489  1.00  0.00    -0.414 A  
HETATM    8  C   UNL     1     -12.574  13.203  71.083  1.00  0.00    -0.403 A  
HETATM    9  C   UNL     1     -12.402  14.394  70.377  1.00  0.00    -0.342 A  
HETATM   10  C   UNL     1     -11.902  14.336  69.071  1.00  0.00    -0.335 A  
HETATM   11  H   UNL     1     -11.394  15.446  67.460  1.00  0.00     0.000 HD 
HETATM   12  C   UNL     1     -11.568  13.128  68.472  1.00  0.00    -0.361 A  
HETATM   13  C   UNL     1     -11.749  11.941  69.181  1.00  0.00    -0.380 A  
HETATM   14  O   UNL     1     -11.734  15.485  68.346  1.00  0.00    -0.365 OA 
BRANCH   9  15
HETATM   15  O   UNL     1     -12.692  15.655  70.831  1.00  0.00    -0.451 OA 
HETATM   16  C   UNL     1     -12.249  15.972  72.145  1.00  0.00    -0.516 C  
ENDBRANCH   9  15
ENDBRANCH   6   7
ENDBRANCH   5   6
ENDBRANCH   4   5
ENDBRANCH   3   4
ENDBRANCH   2   3
TORSDOF 6
ENDMDL
MODEL       44
REMARK 921   NORMALIZED FREE ENERGY PREDICTED BY IDOCK:   -4.34 KCAL/MOL
REMARK 922        TOTAL FREE ENERGY PREDICTED BY IDOCK:   -6.19 KCAL/MOL
REMARK 923 INTER-LIGAND FREE ENERGY PREDICTED BY IDOCK:   -5.53 KCAL/MOL
REMARK 924 INTRA-LIGAND FREE ENERGY PREDICTED BY IDOCK:   -0.66 KCAL/MOL
REMARK 927      BINDING AFFINITY PREDICTED BY RF-SCORE:    0.00 PKD
ROOT
HETATM    1  C   UNL     1     -12.931  12.894  71.534  1.00  0.00    -0.388 C  
HETATM    2  C   UNL     1     -13.142  11.414  71.807  1.00  0.00    -0.523 C  
ENDROOT
BRANCH   2   3
HETATM    3  C   UNL     1     -12.753  10.563  70.602  1.00  0.00    -0.441 C  
BRANCH   3   4
HETATM    4  C   UNL     1     -11.250  10.308  70.558  1.00  0.00    -0.330 C  
BRANCH   4   5
HETATM    5  O   UNL     1     -10.715  10.981  69.420  1.00  0.00    -0.229 OA 
BRANCH   5   6
HETATM    6  C   UNL     1     -11.697  11.137  68.398  1.00  0.00    -0.279 C  
BRANCH   6   7
HETATM    7  C   UNL     1     -11.502  12.468  67.716  1.00  0.00    -0.378 A  
HETATM    8  C   UNL     1     -11.845  12.623  66.360  1.00  0.00    -0.466 A  
HETATM    9  C   UNL     1     -11.612  13.833  65.703  1.00  0.00    -0.330 A  
HETATM   10  C   UNL     1     -11.040  14.889  66.422  1.00  0.00    -0.342 A  
HETATM   11  H   UNL     1     -10.398  16.801  66.292  1.00  0.00     0.000 HD 
HETATM   12  C   UNL     1     -10.708  14.761  67.765  1.00  0.00    -0.268 A  
HETATM   13  C   UNL     1     -10.936  13.547  68.412  1.00  0.00    -0.289 A  
HETATM   14  O   UNL     1     -10.786  16.084  65.804  1.00  0.00    -0.305 OA 
BRANCH   9  15
HETATM   15  O   UNL     1     -11.880  14.105  64.386  1.00  0.00    -0.415 OA 
HETATM   16  C   UNL     1     -12.126  12.984  63.545  1.00  0.00    -0.542 C  
ENDBRANCH   9  15
ENDBRANCH   6   7
ENDBRANCH   5   6
ENDBRANCH   4   5
ENDBRANCH   3   4
ENDBRANCH   2   3
TORSDOF 6
ENDMDL
MODEL       45
REMARK 921   NORMALIZED FREE ENERGY PREDICTED BY IDOCK:   -4.34 KCAL/MOL
REMARK 922        TOTAL FREE ENERGY PREDICTED BY IDOCK:   -6.19 KCAL/MOL
REMARK 923 INTER-LIGAND FREE ENERGY PREDICTED BY IDOCK:   -5.76 KCAL/MOL
REMARK 924 INTRA-LIGAND FREE ENERGY PREDICTED BY IDOCK:   -0.42 KCAL/MOL
REMARK 927      BINDING AFFINITY PREDICTED BY RF-SCORE:    0.00 PKD
ROOT
HETATM    1  C   UNL     1      -9.693  20.448  67.187  1.00  0.00    -0.601 C  
HETATM    2  C   UNL     1     -10.485  19.679  66.142  1.00  0.00    -0.624 C  
ENDROOT
BRANCH   2   3
HETATM    3  C   UNL     1     -10.386  18.173  66.364  1.00  0.00    -0.404 C  
BRANCH   3   4
HETATM    4  C   UNL     1      -9.270  17.823  67.342  1.00  0.00    -0.248 C  
BRANCH   4   5
HETATM    5  O   UNL     1      -9.750  16.810  68.224  1.00  0.00    -0.237 OA 
BRANCH   5   6
HETATM    6  C   UNL     1     -11.159  16.634  68.097  1.00  0.00    -0.285 C  
BRANCH   6   7
HETATM    7  C   UNL     1     -11.493  15.168  68.222  1.00  0.00    -0.350 A  
HETATM    8  C   UNL     1     -11.726  14.602  69.490  1.00  0.00    -0.366 A  
HETATM    9  C   UNL     1     -11.976  13.236  69.621  1.00  0.00    -0.314 A  
HETATM   10  C   UNL     1     -11.999  12.442  68.469  1.00  0.00    -0.223 A  
HETATM   11  H   UNL     1     -12.244  10.556  67.782  1.00  0.00     0.000 HD 
HETATM   12  C   UNL     1     -11.787  12.983  67.207  1.00  0.00    -0.419 A  
HETATM   13  C   UNL     1     -11.530  14.348  67.084  1.00  0.00    -0.379 A  
HETATM   14  O   UNL     1     -12.228  11.095  68.565  1.00  0.00    -0.600 OA 
BRANCH   9  15
HETATM   15  O   UNL     1     -12.197  12.561  70.795  1.00  0.00    -0.369 OA 
HETATM   16  C   UNL     1     -13.197  13.096  71.654  1.00  0.00    -0.346 C  
ENDBRANCH   9  15
ENDBRANCH   6   7
ENDBRANCH   5   6
ENDBRANCH   4   5
ENDBRANCH   3   4
ENDBRANCH   2   3
TORSDOF 6
ENDMDL
MODEL       46
REMARK 921   NORMALIZED FREE ENERGY PREDICTED BY IDOCK:   -4.32 KCAL/MOL
REMARK 922        TOTAL FREE ENERGY PREDICTED BY IDOCK:   -6.15 KCAL/MOL
REMARK 923 INTER-LIGAND FREE ENERGY PREDICTED BY IDOCK:   -5.68 KCAL/MOL
REMARK 924 INTRA-LIGAND FREE ENERGY PREDICTED BY IDOCK:   -0.47 KCAL/MOL
REMARK 927      BINDING AFFINITY PREDICTED BY RF-SCORE:    0.00 PKD
ROOT
HETATM    1  C   UNL     1     -10.209  10.993  63.371  1.00  0.00    -0.404 C  
HETATM    2  C   UNL     1     -10.396  12.425  63.847  1.00  0.00    -0.450 C  
ENDROOT
BRANCH   2   3
HETATM    3  C   UNL     1     -11.853  12.865  63.731  1.00  0.00    -0.571 C  
BRANCH   3   4
HETATM    4  C   UNL     1     -12.429  13.256  65.087  1.00  0.00    -0.470 C  
BRANCH   4   5
HETATM    5  O   UNL     1     -12.294  12.143  65.969  1.00  0.00    -0.550 OA 
BRANCH   5   6
HETATM    6  C   UNL     1     -11.819  12.549  67.251  1.00  0.00    -0.311 C  
BRANCH   6   7
HETATM    7  C   UNL     1     -11.476  11.328  68.066  1.00  0.00    -0.369 A  
HETATM    8  C   UNL     1     -11.899  11.231  69.406  1.00  0.00    -0.424 A  
HETATM    9  C   UNL     1     -11.535  10.134  70.186  1.00  0.00    -0.296 A  
HETATM   10  C   UNL     1     -10.750   9.129  69.610  1.00  0.00    -0.225 A  
HETATM   11  H   UNL     1      -9.832   7.362  69.962  1.00  0.00     0.000 HD 
HETATM   12  C   UNL     1     -10.335   9.197  68.286  1.00  0.00    -0.256 A  
HETATM   13  C   UNL     1     -10.695  10.301  67.514  1.00  0.00    -0.348 A  
HETATM   14  O   UNL     1     -10.365   8.045  70.353  1.00  0.00    -0.200 OA 
BRANCH   9  15
HETATM   15  O   UNL     1     -11.862   9.931  71.503  1.00  0.00    -0.381 OA 
HETATM   16  C   UNL     1     -13.225   9.627  71.776  1.00  0.00    -0.430 C  
ENDBRANCH   9  15
ENDBRANCH   6   7
ENDBRANCH   5   6
ENDBRANCH   4   5
ENDBRANCH   3   4
ENDBRANCH   2   3
TORSDOF 6
ENDMDL
MODEL       47
REMARK 921   NORMALIZED FREE ENERGY PREDICTED BY IDOCK:   -4.31 KCAL/MOL
REMARK 922        TOTAL FREE ENERGY PREDICTED BY IDOCK:   -6.14 KCAL/MOL
REMARK 923 INTER-LIGAND FREE ENERGY PREDICTED BY IDOCK:   -5.94 KCAL/MOL
REMARK 924 INTRA-LIGAND FREE ENERGY PREDICTED BY IDOCK:   -0.20 KCAL/MOL
REMARK 927      BINDING AFFINITY PREDICTED BY RF-SCORE:    0.00 PKD
ROOT
HETATM    1  C   UNL     1     -10.131  19.933  67.812  1.00  0.00    -0.565 C  
HETATM    2  C   UNL     1     -10.447  18.533  67.311  1.00  0.00    -0.455 C  
ENDROOT
BRANCH   2   3
HETATM    3  C   UNL     1     -10.307  17.498  68.423  1.00  0.00    -0.378 C  
BRANCH   3   4
HETATM    4  C   UNL     1     -11.128  16.247  68.130  1.00  0.00    -0.329 C  
BRANCH   4   5
HETATM    5  O   UNL     1     -10.500  15.139  68.772  1.00  0.00    -0.221 OA 
BRANCH   5   6
HETATM    6  C   UNL     1     -10.880  13.904  68.168  1.00  0.00    -0.249 C  
BRANCH   6   7
HETATM    7  C   UNL     1     -11.580  13.043  69.189  1.00  0.00    -0.368 A  
HETATM    8  C   UNL     1     -12.231  13.637  70.287  1.00  0.00    -0.423 A  
HETATM    9  C   UNL     1     -12.830  12.846  71.268  1.00  0.00    -0.270 A  
HETATM   10  C   UNL     1     -12.779  11.454  71.135  1.00  0.00    -0.377 A  
HETATM   11  H   UNL     1     -13.311   9.705  71.997  1.00  0.00     0.000 HD 
HETATM   12  C   UNL     1     -12.155  10.848  70.052  1.00  0.00    -0.433 A  
HETATM   13  C   UNL     1     -11.552  11.644  69.079  1.00  0.00    -0.379 A  
HETATM   14  O   UNL     1     -13.345  10.650  72.088  1.00  0.00    -0.444 OA 
BRANCH   9  15
HETATM   15  O   UNL     1     -13.473  13.298  72.392  1.00  0.00    -0.549 OA 
HETATM   16  C   UNL     1     -13.224  14.648  72.765  1.00  0.00    -0.497 C  
ENDBRANCH   9  15
ENDBRANCH   6   7
ENDBRANCH   5   6
ENDBRANCH   4   5
ENDBRANCH   3   4
ENDBRANCH   2   3
TORSDOF 6
ENDMDL
MODEL       48
REMARK 921   NORMALIZED FREE ENERGY PREDICTED BY IDOCK:   -4.31 KCAL/MOL
REMARK 922        TOTAL FREE ENERGY PREDICTED BY IDOCK:   -6.14 KCAL/MOL
REMARK 923 INTER-LIGAND FREE ENERGY PREDICTED BY IDOCK:   -5.98 KCAL/MOL
REMARK 924 INTRA-LIGAND FREE ENERGY PREDICTED BY IDOCK:   -0.16 KCAL/MOL
REMARK 927      BINDING AFFINITY PREDICTED BY RF-SCORE:    0.00 PKD
ROOT
HETATM    1  C   UNL     1     -12.455  15.555  74.212  1.00  0.00    -0.792 C  
HETATM    2  C   UNL     1     -12.902  15.519  72.759  1.00  0.00    -0.539 C  
ENDROOT
BRANCH   2   3
HETATM    3  C   UNL     1     -11.862  16.153  71.840  1.00  0.00    -0.605 C  
BRANCH   3   4
HETATM    4  C   UNL     1     -11.441  15.199  70.728  1.00  0.00    -0.309 C  
BRANCH   4   5
HETATM    5  O   UNL     1     -10.455  15.851  69.928  1.00  0.00    -0.290 OA 
BRANCH   5   6
HETATM    6  C   UNL     1     -11.033  16.430  68.760  1.00  0.00    -0.344 C  
BRANCH   6   7
HETATM    7  C   UNL     1     -10.199  17.608  68.322  1.00  0.00    -0.374 A  
HETATM    8  C   UNL     1      -8.863  17.726  68.751  1.00  0.00    -0.205 A  
HETATM    9  C   UNL     1      -8.102  18.842  68.401  1.00  0.00    -0.341 A  
HETATM   10  C   UNL     1      -8.690  19.836  67.609  1.00  0.00    -0.326 A  
HETATM   11  H   UNL     1      -8.373  21.624  66.721  1.00  0.00     0.000 HD 
HETATM   12  C   UNL     1     -10.001  19.731  67.163  1.00  0.00    -0.536 A  
HETATM   13  C   UNL     1     -10.758  18.617  67.523  1.00  0.00    -0.447 A  
HETATM   14  O   UNL     1      -7.975  20.950  67.259  1.00  0.00    -0.303 OA 
BRANCH   9  15
HETATM   15  O   UNL     1      -6.804  19.087  68.769  1.00  0.00    -0.275 OA 
HETATM   16  C   UNL     1      -6.616  19.888  69.930  1.00  0.00    -0.294 C  
ENDBRANCH   9  15
ENDBRANCH   6   7
ENDBRANCH   5   6
ENDBRANCH   4   5
ENDBRANCH   3   4
ENDBRANCH   2   3
TORSDOF 6
ENDMDL
MODEL       49
REMARK 921   NORMALIZED FREE ENERGY PREDICTED BY IDOCK:   -4.28 KCAL/MOL
REMARK 922        TOTAL FREE ENERGY PREDICTED BY IDOCK:   -6.09 KCAL/MOL
REMARK 923 INTER-LIGAND FREE ENERGY PREDICTED BY IDOCK:   -5.84 KCAL/MOL
REMARK 924 INTRA-LIGAND FREE ENERGY PREDICTED BY IDOCK:   -0.25 KCAL/MOL
REMARK 927      BINDING AFFINITY PREDICTED BY RF-SCORE:    0.00 PKD
ROOT
HETATM    1  C   UNL     1     -12.173  12.405  63.433  1.00  0.00    -0.623 C  
HETATM    2  C   UNL     1     -12.425  12.922  64.841  1.00  0.00    -0.540 C  
ENDROOT
BRANCH   2   3
HETATM    3  C   UNL     1     -12.175  14.424  64.937  1.00  0.00    -0.440 C  
BRANCH   3   4
HETATM    4  C   UNL     1     -10.689  14.752  64.838  1.00  0.00    -0.417 C  
BRANCH   4   5
HETATM    5  O   UNL     1     -10.532  16.163  64.975  1.00  0.00    -0.595 OA 
BRANCH   5   6
HETATM    6  C   UNL     1     -10.656  16.571  66.336  1.00  0.00    -0.221 C  
BRANCH   6   7
HETATM    7  C   UNL     1      -9.854  17.829  66.557  1.00  0.00    -0.331 A  
HETATM    8  C   UNL     1      -8.453  17.761  66.675  1.00  0.00    -0.283 A  
HETATM    9  C   UNL     1      -7.707  18.911  66.939  1.00  0.00    -0.239 A  
HETATM   10  C   UNL     1      -8.378  20.131  67.075  1.00  0.00    -0.328 A  
HETATM   11  H   UNL     1      -8.133  22.105  67.439  1.00  0.00     0.000 HD 
HETATM   12  C   UNL     1      -9.758  20.223  66.946  1.00  0.00    -0.584 A  
HETATM   13  C   UNL     1     -10.498  19.069  66.690  1.00  0.00    -0.517 A  
HETATM   14  O   UNL     1      -7.677  21.276  67.347  1.00  0.00    -0.361 OA 
BRANCH   9  15
HETATM   15  O   UNL     1      -6.347  18.976  67.098  1.00  0.00    -0.186 OA 
HETATM   16  C   UNL     1      -5.817  18.372  68.273  1.00  0.00    -0.178 C  
ENDBRANCH   9  15
ENDBRANCH   6   7
ENDBRANCH   5   6
ENDBRANCH   4   5
ENDBRANCH   3   4
ENDBRANCH   2   3
TORSDOF 6
ENDMDL
MODEL       50
REMARK 921   NORMALIZED FREE ENERGY PREDICTED BY IDOCK:   -4.22 KCAL/MOL
REMARK 922        TOTAL FREE ENERGY PREDICTED BY IDOCK:   -6.02 KCAL/MOL
REMARK 923 INTER-LIGAND FREE ENERGY PREDICTED BY IDOCK:   -5.77 KCAL/MOL
REMARK 924 INTRA-LIGAND FREE ENERGY PREDICTED BY IDOCK:   -0.26 KCAL/MOL
REMARK 927      BINDING AFFINITY PREDICTED BY RF-SCORE:    0.00 PKD
ROOT
HETATM    1  C   UNL     1     -13.142  15.568  73.325  1.00  0.00    -0.658 C  
HETATM    2  C   UNL     1     -14.017  15.391  72.094  1.00  0.00    -0.649 C  
ENDROOT
BRANCH   2   3
HETATM    3  C   UNL     1     -13.285  14.625  70.996  1.00  0.00    -0.431 C  
BRANCH   3   4
HETATM    4  C   UNL     1     -12.186  15.469  70.361  1.00  0.00    -0.406 C  
BRANCH   4   5
HETATM    5  O   UNL     1     -12.101  15.129  68.979  1.00  0.00    -0.285 OA 
BRANCH   5   6
HETATM    6  C   UNL     1     -10.864  14.488  68.674  1.00  0.00    -0.251 C  
BRANCH   6   7
HETATM    7  C   UNL     1      -9.991  15.434  67.890  1.00  0.00    -0.221 A  
HETATM    8  C   UNL     1     -10.567  16.506  67.183  1.00  0.00    -0.270 A  
HETATM    9  C   UNL     1      -9.774  17.351  66.406  1.00  0.00    -0.290 A  
HETATM   10  C   UNL     1      -8.396  17.117  66.350  1.00  0.00    -0.280 A  
HETATM   11  H   UNL     1      -6.655  17.762  65.549  1.00  0.00     0.000 HD 
HETATM   12  C   UNL     1      -7.805  16.075  67.052  1.00  0.00    -0.263 A  
HETATM   13  C   UNL     1      -8.604  15.230  67.821  1.00  0.00    -0.163 A  
HETATM   14  O   UNL     1      -7.591  17.920  65.586  1.00  0.00    -0.546 OA 
BRANCH   9  15
HETATM   15  O   UNL     1     -10.213  18.412  65.656  1.00  0.00    -0.565 OA 
HETATM   16  C   UNL     1     -10.561  19.592  66.372  1.00  0.00    -0.486 C  
ENDBRANCH   9  15
ENDBRANCH   6   7
ENDBRANCH   5   6
ENDBRANCH   4   5
ENDBRANCH   3   4
ENDBRANCH   2   3
TORSDOF 6
ENDMDL
MODEL       51
REMARK 921   NORMALIZED FREE ENERGY PREDICTED BY IDOCK:   -4.22 KCAL/MOL
REMARK 922        TOTAL FREE ENERGY PREDICTED BY IDOCK:   -6.01 KCAL/MOL
REMARK 923 INTER-LIGAND FREE ENERGY PREDICTED BY IDOCK:   -5.51 KCAL/MOL
REMARK 924 INTRA-LIGAND FREE ENERGY PREDICTED BY IDOCK:   -0.50 KCAL/MOL
REMARK 927      BINDING AFFINITY PREDICTED BY RF-SCORE:    0.00 PKD
ROOT
HETATM    1  C   UNL     1     -11.489   9.942  70.943  1.00  0.00    -0.456 C  
HETATM    2  C   UNL     1     -11.429  10.787  69.681  1.00  0.00    -0.376 C  
ENDROOT
BRANCH   2   3
HETATM    3  C   UNL     1     -10.703  10.057  68.554  1.00  0.00    -0.264 C  
BRANCH   3   4
HETATM    4  C   UNL     1     -10.796  10.822  67.239  1.00  0.00    -0.288 C  
BRANCH   4   5
HETATM    5  O   UNL     1     -11.920  11.698  67.310  1.00  0.00    -0.627 OA 
BRANCH   5   6
HETATM    6  C   UNL     1     -11.896  12.661  66.258  1.00  0.00    -0.410 C  
BRANCH   6   7
HETATM    7  C   UNL     1     -11.461  13.995  66.812  1.00  0.00    -0.379 A  
HETATM    8  C   UNL     1     -11.815  14.364  68.124  1.00  0.00    -0.362 A  
HETATM    9  C   UNL     1     -11.469  15.620  68.625  1.00  0.00    -0.375 A  
HETATM   10  C   UNL     1     -10.757  16.500  67.802  1.00  0.00    -0.329 A  
HETATM   11  H   UNL     1      -9.930  18.342  67.699  1.00  0.00     0.000 HD 
HETATM   12  C   UNL     1     -10.384  16.149  66.510  1.00  0.00    -0.311 A  
HETATM   13  C   UNL     1     -10.740  14.896  66.014  1.00  0.00    -0.326 A  
HETATM   14  O   UNL     1     -10.413  17.744  68.258  1.00  0.00    -0.369 OA 
BRANCH   9  15
HETATM   15  O   UNL     1     -11.771  16.108  69.870  1.00  0.00    -0.300 OA 
HETATM   16  C   UNL     1     -11.105  15.495  70.968  1.00  0.00    -0.340 C  
ENDBRANCH   9  15
ENDBRANCH   6   7
ENDBRANCH   5   6
ENDBRANCH   4   5
ENDBRANCH   3   4
ENDBRANCH   2   3
TORSDOF 6
ENDMDL
MODEL       52
REMARK 921   NORMALIZED FREE ENERGY PREDICTED BY IDOCK:   -4.21 KCAL/MOL
REMARK 922        TOTAL FREE ENERGY PREDICTED BY IDOCK:   -6.00 KCAL/MOL
REMARK 923 INTER-LIGAND FREE ENERGY PREDICTED BY IDOCK:   -5.71 KCAL/MOL
REMARK 924 INTRA-LIGAND FREE ENERGY PREDICTED BY IDOCK:   -0.30 KCAL/MOL
REMARK 927      BINDING AFFINITY PREDICTED BY RF-SCORE:    0.00 PKD
ROOT
HETATM    1  C   UNL     1     -12.533  11.968  63.229  1.00  0.00    -0.544 C  
HETATM    2  C   UNL     1     -11.258  12.604  63.760  1.00  0.00    -0.519 C  
ENDROOT
BRANCH   2   3
HETATM    3  C   UNL     1     -10.895  12.061  65.139  1.00  0.00    -0.347 C  
BRANCH   3   4
HETATM    4  C   UNL     1     -10.000  13.028  65.904  1.00  0.00    -0.267 C  
BRANCH   4   5
HETATM    5  O   UNL     1     -10.316  12.929  67.292  1.00  0.00    -0.232 OA 
BRANCH   5   6
HETATM    6  C   UNL     1     -11.646  13.371  67.556  1.00  0.00    -0.344 C  
BRANCH   6   7
HETATM    7  C   UNL     1     -11.657  14.195  68.819  1.00  0.00    -0.362 A  
HETATM    8  C   UNL     1     -12.231  13.675  69.995  1.00  0.00    -0.395 A  
HETATM    9  C   UNL     1     -12.300  14.452  71.153  1.00  0.00    -0.358 A  
HETATM   10  C   UNL     1     -11.781  15.751  71.124  1.00  0.00    -0.428 A  
HETATM   11  H   UNL     1     -11.493  17.426  72.219  1.00  0.00     0.000 HD 
HETATM   12  C   UNL     1     -11.197  16.277  69.978  1.00  0.00    -0.324 A  
HETATM   13  C   UNL     1     -11.138  15.498  68.823  1.00  0.00    -0.291 A  
HETATM   14  O   UNL     1     -11.846  16.544  72.238  1.00  0.00    -0.519 OA 
BRANCH   9  15
HETATM   15  O   UNL     1     -12.850  14.074  72.351  1.00  0.00    -0.351 OA 
HETATM   16  C   UNL     1     -14.201  13.628  72.315  1.00  0.00    -0.426 C  
ENDBRANCH   9  15
ENDBRANCH   6   7
ENDBRANCH   5   6
ENDBRANCH   4   5
ENDBRANCH   3   4
ENDBRANCH   2   3
TORSDOF 6
ENDMDL
MODEL       53
REMARK 921   NORMALIZED FREE ENERGY PREDICTED BY IDOCK:   -4.18 KCAL/MOL
REMARK 922        TOTAL FREE ENERGY PREDICTED BY IDOCK:   -5.97 KCAL/MOL
REMARK 923 INTER-LIGAND FREE ENERGY PREDICTED BY IDOCK:   -5.57 KCAL/MOL
REMARK 924 INTRA-LIGAND FREE ENERGY PREDICTED BY IDOCK:   -0.39 KCAL/MOL
REMARK 927      BINDING AFFINITY PREDICTED BY RF-SCORE:    0.00 PKD
ROOT
HETATM    1  C   UNL     1     -11.711  13.680  64.236  1.00  0.00    -0.438 C  
HETATM    2  C   UNL     1     -12.692  13.402  65.364  1.00  0.00    -0.484 C  
ENDROOT
BRANCH   2   3
HETATM    3  C   UNL     1     -11.975  12.907  66.617  1.00  0.00    -0.436 C  
BRANCH   3   4
HETATM    4  C   UNL     1     -11.878  14.000  67.675  1.00  0.00    -0.395 C  
BRANCH   4   5
HETATM    5  O   UNL     1     -11.548  13.389  68.921  1.00  0.00    -0.269 OA 
BRANCH   5   6
HETATM    6  C   UNL     1     -11.111  12.043  68.741  1.00  0.00    -0.249 C  
BRANCH   6   7
HETATM    7  C   UNL     1     -11.610  11.198  69.886  1.00  0.00    -0.416 A  
HETATM    8  C   UNL     1     -11.146   9.878  70.044  1.00  0.00    -0.335 A  
HETATM    9  C   UNL     1     -11.647   9.068  71.065  1.00  0.00    -0.300 A  
HETATM   10  C   UNL     1     -12.610   9.597  71.931  1.00  0.00    -0.396 A  
HETATM   11  H   UNL     1     -13.785   9.183  73.524  1.00  0.00     0.000 HD 
HETATM   12  C   UNL     1     -13.070  10.901  71.802  1.00  0.00    -0.564 A  
HETATM   13  C   UNL     1     -12.571  11.702  70.775  1.00  0.00    -0.365 A  
HETATM   14  O   UNL     1     -13.131   8.824  72.935  1.00  0.00    -0.312 OA 
BRANCH   9  15
HETATM   15  O   UNL     1     -11.296   7.766  71.312  1.00  0.00    -0.255 OA 
HETATM   16  C   UNL     1     -11.630   6.818  70.305  1.00  0.00    -0.362 C  
ENDBRANCH   9  15
ENDBRANCH   6   7
ENDBRANCH   5   6
ENDBRANCH   4   5
ENDBRANCH   3   4
ENDBRANCH   2   3
TORSDOF 6
ENDMDL
MODEL       54
REMARK 921   NORMALIZED FREE ENERGY PREDICTED BY IDOCK:   -4.18 KCAL/MOL
REMARK 922        TOTAL FREE ENERGY PREDICTED BY IDOCK:   -5.97 KCAL/MOL
REMARK 923 INTER-LIGAND FREE ENERGY PREDICTED BY IDOCK:   -5.68 KCAL/MOL
REMARK 924 INTRA-LIGAND FREE ENERGY PREDICTED BY IDOCK:   -0.29 KCAL/MOL
REMARK 927      BINDING AFFINITY PREDICTED BY RF-SCORE:    0.00 PKD
ROOT
HETATM    1  C   UNL     1     -10.967   7.620  72.675  1.00  0.00    -0.405 C  
HETATM    2  C   UNL     1     -10.531   8.881  71.948  1.00  0.00    -0.415 C  
ENDROOT
BRANCH   2   3
HETATM    3  C   UNL     1     -11.550   9.297  70.891  1.00  0.00    -0.364 C  
BRANCH   3   4
HETATM    4  C   UNL     1     -12.431  10.440  71.381  1.00  0.00    -0.415 C  
BRANCH   4   5
HETATM    5  O   UNL     1     -12.275  11.540  70.487  1.00  0.00    -0.358 OA 
BRANCH   5   6
HETATM    6  C   UNL     1     -11.338  11.243  69.453  1.00  0.00    -0.292 C  
BRANCH   6   7
HETATM    7  C   UNL     1     -11.618  12.118  68.258  1.00  0.00    -0.382 A  
HETATM    8  C   UNL     1     -11.499  11.594  66.956  1.00  0.00    -0.336 A  
HETATM    9  C   UNL     1     -11.696  12.412  65.842  1.00  0.00    -0.419 A  
HETATM   10  C   UNL     1     -12.023  13.757  66.045  1.00  0.00    -0.414 A  
HETATM   11  H   UNL     1     -12.433  15.503  65.110  1.00  0.00     0.000 HD 
HETATM   12  C   UNL     1     -12.161  14.290  67.320  1.00  0.00    -0.390 A  
HETATM   13  C   UNL     1     -11.954  13.469  68.428  1.00  0.00    -0.378 A  
HETATM   14  O   UNL     1     -12.211  14.589  64.973  1.00  0.00    -0.399 OA 
BRANCH   9  15
HETATM   15  O   UNL     1     -11.590  12.032  64.529  1.00  0.00    -0.339 OA 
HETATM   16  C   UNL     1     -10.439  11.272  64.181  1.00  0.00    -0.369 C  
ENDBRANCH   9  15
ENDBRANCH   6   7
ENDBRANCH   5   6
ENDBRANCH   4   5
ENDBRANCH   3   4
ENDBRANCH   2   3
TORSDOF 6
ENDMDL
MODEL       55
REMARK 921   NORMALIZED FREE ENERGY PREDICTED BY IDOCK:   -4.17 KCAL/MOL
REMARK 922        TOTAL FREE ENERGY PREDICTED BY IDOCK:   -5.96 KCAL/MOL
REMARK 923 INTER-LIGAND FREE ENERGY PREDICTED BY IDOCK:   -5.67 KCAL/MOL
REMARK 924 INTRA-LIGAND FREE ENERGY PREDICTED BY IDOCK:   -0.28 KCAL/MOL
REMARK 927      BINDING AFFINITY PREDICTED BY RF-SCORE:    0.00 PKD
ROOT
HETATM    1  C   UNL     1     -14.331   7.275  71.618  1.00  0.00    -0.583 C  
HETATM    2  C   UNL     1     -12.811   7.239  71.610  1.00  0.00    -0.415 C  
ENDROOT
BRANCH   2   3
HETATM    3  C   UNL     1     -12.219   8.613  71.911  1.00  0.00    -0.419 C  
BRANCH   3   4
HETATM    4  C   UNL     1     -13.219   9.728  71.630  1.00  0.00    -0.420 C  
BRANCH   4   5
HETATM    5  O   UNL     1     -12.731  10.502  70.536  1.00  0.00    -0.338 OA 
BRANCH   5   6
HETATM    6  C   UNL     1     -12.435  11.839  70.935  1.00  0.00    -0.318 C  
BRANCH   6   7
HETATM    7  C   UNL     1     -12.057  12.651  69.722  1.00  0.00    -0.301 A  
HETATM    8  C   UNL     1     -12.017  14.056  69.797  1.00  0.00    -0.393 A  
HETATM    9  C   UNL     1     -11.728  14.819  68.665  1.00  0.00    -0.325 A  
HETATM   10  C   UNL     1     -11.469  14.160  67.458  1.00  0.00    -0.340 A  
HETATM   11  H   UNL     1     -11.019  14.432  65.506  1.00  0.00     0.000 HD 
HETATM   12  C   UNL     1     -11.488  12.774  67.366  1.00  0.00    -0.396 A  
HETATM   13  C   UNL     1     -11.786  12.019  68.499  1.00  0.00    -0.387 A  
HETATM   14  O   UNL     1     -11.195  14.879  66.325  1.00  0.00    -0.340 OA 
BRANCH   9  15
HETATM   15  O   UNL     1     -11.679  16.188  68.600  1.00  0.00    -0.362 OA 
HETATM   16  C   UNL     1     -10.634  16.820  69.330  1.00  0.00    -0.336 C  
ENDBRANCH   9  15
ENDBRANCH   6   7
ENDBRANCH   5   6
ENDBRANCH   4   5
ENDBRANCH   3   4
ENDBRANCH   2   3
TORSDOF 6
ENDMDL
MODEL       56
REMARK 921   NORMALIZED FREE ENERGY PREDICTED BY IDOCK:   -4.17 KCAL/MOL
REMARK 922        TOTAL FREE ENERGY PREDICTED BY IDOCK:   -5.96 KCAL/MOL
REMARK 923 INTER-LIGAND FREE ENERGY PREDICTED BY IDOCK:   -5.15 KCAL/MOL
REMARK 924 INTRA-LIGAND FREE ENERGY PREDICTED BY IDOCK:   -0.81 KCAL/MOL
REMARK 927      BINDING AFFINITY PREDICTED BY RF-SCORE:    0.00 PKD
ROOT
HETATM    1  C   UNL     1     -11.728  14.277  68.478  1.00  0.00    -0.376 C  
HETATM    2  C   UNL     1     -11.869  13.246  67.369  1.00  0.00    -0.413 C  
ENDROOT
BRANCH   2   3
HETATM    3  C   UNL     1     -12.649  13.805  66.183  1.00  0.00    -0.423 C  
BRANCH   3   4
HETATM    4  C   UNL     1     -11.928  13.545  64.865  1.00  0.00    -0.379 C  
BRANCH   4   5
HETATM    5  O   UNL     1     -10.720  14.304  64.858  1.00  0.00    -0.389 OA 
BRANCH   5   6
HETATM    6  C   UNL     1     -10.986  15.705  64.889  1.00  0.00    -0.431 C  
BRANCH   6   7
HETATM    7  C   UNL     1     -10.065  16.367  65.884  1.00  0.00    -0.370 A  
HETATM    8  C   UNL     1     -10.407  17.613  66.441  1.00  0.00    -0.345 A  
HETATM    9  C   UNL     1      -9.534  18.262  67.316  1.00  0.00    -0.264 A  
HETATM   10  C   UNL     1      -8.318  17.646  67.634  1.00  0.00    -0.226 A  
HETATM   11  H   UNL     1      -6.609  17.843  68.694  1.00  0.00     0.000 HD 
HETATM   12  C   UNL     1      -7.969  16.409  67.107  1.00  0.00    -0.215 A  
HETATM   13  C   UNL     1      -8.842  15.770  66.227  1.00  0.00    -0.378 A  
HETATM   14  O   UNL     1      -7.434  18.261  68.478  1.00  0.00    -0.271 OA 
BRANCH   9  15
HETATM   15  O   UNL     1      -9.737  19.482  67.908  1.00  0.00    -0.321 OA 
HETATM   16  C   UNL     1      -9.743  20.612  67.043  1.00  0.00    -0.345 C  
ENDBRANCH   9  15
ENDBRANCH   6   7
ENDBRANCH   5   6
ENDBRANCH   4   5
ENDBRANCH   3   4
ENDBRANCH   2   3
TORSDOF 6
ENDMDL
MODEL       57
REMARK 921   NORMALIZED FREE ENERGY PREDICTED BY IDOCK:   -4.17 KCAL/MOL
REMARK 922        TOTAL FREE ENERGY PREDICTED BY IDOCK:   -5.95 KCAL/MOL
REMARK 923 INTER-LIGAND FREE ENERGY PREDICTED BY IDOCK:   -5.66 KCAL/MOL
REMARK 924 INTRA-LIGAND FREE ENERGY PREDICTED BY IDOCK:   -0.29 KCAL/MOL
REMARK 927      BINDING AFFINITY PREDICTED BY RF-SCORE:    0.00 PKD
ROOT
HETATM    1  C   UNL     1     -12.240  13.218  63.770  1.00  0.00    -0.508 C  
HETATM    2  C   UNL     1     -12.131  14.366  64.761  1.00  0.00    -0.462 C  
ENDROOT
BRANCH   2   3
HETATM    3  C   UNL     1     -12.464  13.913  66.179  1.00  0.00    -0.478 C  
BRANCH   3   4
HETATM    4  C   UNL     1     -11.226  13.408  66.911  1.00  0.00    -0.308 C  
BRANCH   4   5
HETATM    5  O   UNL     1     -11.441  12.043  67.267  1.00  0.00    -0.311 OA 
BRANCH   5   6
HETATM    6  C   UNL     1     -10.455  11.583  68.189  1.00  0.00    -0.193 C  
BRANCH   6   7
HETATM    7  C   UNL     1     -11.132  10.870  69.331  1.00  0.00    -0.317 A  
HETATM    8  C   UNL     1     -12.017  11.568  70.175  1.00  0.00    -0.452 A  
HETATM    9  C   UNL     1     -12.602  10.932  71.271  1.00  0.00    -0.421 A  
HETATM   10  C   UNL     1     -12.299   9.587  71.509  1.00  0.00    -0.380 A  
HETATM   11  H   UNL     1     -12.641   8.023  72.744  1.00  0.00     0.000 HD 
HETATM   12  C   UNL     1     -11.441   8.875  70.680  1.00  0.00    -0.280 A  
HETATM   13  C   UNL     1     -10.854   9.519  69.591  1.00  0.00    -0.255 A  
HETATM   14  O   UNL     1     -12.846   8.937  72.583  1.00  0.00    -0.393 OA 
BRANCH   9  15
HETATM   15  O   UNL     1     -13.459  11.502  72.177  1.00  0.00    -0.410 OA 
HETATM   16  C   UNL     1     -13.547  12.922  72.158  1.00  0.00    -0.495 C  
ENDBRANCH   9  15
ENDBRANCH   6   7
ENDBRANCH   5   6
ENDBRANCH   4   5
ENDBRANCH   3   4
ENDBRANCH   2   3
TORSDOF 6
ENDMDL
MODEL       58
REMARK 921   NORMALIZED FREE ENERGY PREDICTED BY IDOCK:   -4.16 KCAL/MOL
REMARK 922        TOTAL FREE ENERGY PREDICTED BY IDOCK:   -5.94 KCAL/MOL
REMARK 923 INTER-LIGAND FREE ENERGY PREDICTED BY IDOCK:   -5.64 KCAL/MOL
REMARK 924 INTRA-LIGAND FREE ENERGY PREDICTED BY IDOCK:   -0.30 KCAL/MOL
REMARK 927      BINDING AFFINITY PREDICTED BY RF-SCORE:    0.00 PKD
ROOT
HETATM    1  C   UNL     1     -10.381   4.512  65.964  1.00  0.00    -0.276 C  
HETATM    2  C   UNL     1      -9.772   5.827  66.422  1.00  0.00    -0.175 C  
ENDROOT
BRANCH   2   3
HETATM    3  C   UNL     1     -10.834   6.770  66.981  1.00  0.00    -0.453 C  
BRANCH   3   4
HETATM    4  C   UNL     1     -10.206   7.975  67.672  1.00  0.00    -0.228 C  
BRANCH   4   5
HETATM    5  O   UNL     1     -10.745   9.158  67.087  1.00  0.00    -0.255 OA 
BRANCH   5   6
HETATM    6  C   UNL     1      -9.936   9.621  66.008  1.00  0.00    -0.274 C  
BRANCH   6   7
HETATM    7  C   UNL     1     -10.563  10.853  65.405  1.00  0.00    -0.243 A  
HETATM    8  C   UNL     1     -11.231  11.780  66.228  1.00  0.00    -0.370 A  
HETATM    9  C   UNL     1     -11.867  12.891  65.672  1.00  0.00    -0.417 A  
HETATM   10  C   UNL     1     -11.819  13.070  64.285  1.00  0.00    -0.396 A  
HETATM   11  H   UNL     1     -12.412  14.265  62.766  1.00  0.00     0.000 HD 
HETATM   12  C   UNL     1     -11.153  12.176  63.457  1.00  0.00    -0.525 A  
HETATM   13  C   UNL     1     -10.527  11.064  64.018  1.00  0.00    -0.433 A  
HETATM   14  O   UNL     1     -12.444  14.143  63.707  1.00  0.00    -0.791 OA 
BRANCH   9  15
HETATM   15  O   UNL     1     -12.566  13.852  66.357  1.00  0.00    -0.413 OA 
HETATM   16  C   UNL     1     -11.875  14.502  67.418  1.00  0.00    -0.388 C  
ENDBRANCH   9  15
ENDBRANCH   6   7
ENDBRANCH   5   6
ENDBRANCH   4   5
ENDBRANCH   3   4
ENDBRANCH   2   3
TORSDOF 6
ENDMDL
MODEL       59
REMARK 921   NORMALIZED FREE ENERGY PREDICTED BY IDOCK:   -4.16 KCAL/MOL
REMARK 922        TOTAL FREE ENERGY PREDICTED BY IDOCK:   -5.93 KCAL/MOL
REMARK 923 INTER-LIGAND FREE ENERGY PREDICTED BY IDOCK:   -5.64 KCAL/MOL
REMARK 924 INTRA-LIGAND FREE ENERGY PREDICTED BY IDOCK:   -0.29 KCAL/MOL
REMARK 927      BINDING AFFINITY PREDICTED BY RF-SCORE:    0.00 PKD
ROOT
HETATM    1  C   UNL     1     -10.852   7.886  71.721  1.00  0.00    -0.286 C  
HETATM    2  C   UNL     1     -10.894   9.345  71.297  1.00  0.00    -0.431 C  
ENDROOT
BRANCH   2   3
HETATM    3  C   UNL     1     -12.315   9.899  71.342  1.00  0.00    -0.498 C  
BRANCH   3   4
HETATM    4  C   UNL     1     -12.379  11.323  70.804  1.00  0.00    -0.398 C  
BRANCH   4   5
HETATM    5  O   UNL     1     -12.209  11.275  69.388  1.00  0.00    -0.317 OA 
BRANCH   5   6
HETATM    6  C   UNL     1     -11.521  12.428  68.907  1.00  0.00    -0.307 C  
BRANCH   6   7
HETATM    7  C   UNL     1     -11.481  12.393  67.400  1.00  0.00    -0.418 A  
HETATM    8  C   UNL     1     -12.024  13.456  66.654  1.00  0.00    -0.452 A  
HETATM    9  C   UNL     1     -12.046  13.405  65.259  1.00  0.00    -0.413 A  
HETATM   10  C   UNL     1     -11.509  12.283  64.618  1.00  0.00    -0.336 A  
HETATM   11  H   UNL     1     -11.162  11.434  62.817  1.00  0.00     0.000 HD 
HETATM   12  C   UNL     1     -10.954  11.231  65.335  1.00  0.00    -0.201 A  
HETATM   13  C   UNL     1     -10.943  11.284  66.728  1.00  0.00    -0.339 A  
HETATM   14  O   UNL     1     -11.527  12.196  63.252  1.00  0.00    -0.398 OA 
BRANCH   9  15
HETATM   15  O   UNL     1     -12.563  14.360  64.421  1.00  0.00    -0.668 OA 
HETATM   16  C   UNL     1     -11.901  15.619  64.411  1.00  0.00    -0.182 C  
ENDBRANCH   9  15
ENDBRANCH   6   7
ENDBRANCH   5   6
ENDBRANCH   4   5
ENDBRANCH   3   4
ENDBRANCH   2   3
TORSDOF 6
ENDMDL
MODEL       60
REMARK 921   NORMALIZED FREE ENERGY PREDICTED BY IDOCK:   -4.16 KCAL/MOL
REMARK 922        TOTAL FREE ENERGY PREDICTED BY IDOCK:   -5.93 KCAL/MOL
REMARK 923 INTER-LIGAND FREE ENERGY PREDICTED BY IDOCK:   -5.33 KCAL/MOL
REMARK 924 INTRA-LIGAND FREE ENERGY PREDICTED BY IDOCK:   -0.60 KCAL/MOL
REMARK 927      BINDING AFFINITY PREDICTED BY RF-SCORE:    0.00 PKD
ROOT
HETATM    1  C   UNL     1      -8.424  16.723  66.368  1.00  0.00    -0.338 C  
HETATM    2  C   UNL     1      -9.165  17.949  66.876  1.00  0.00    -0.267 C  
ENDROOT
BRANCH   2   3
HETATM    3  C   UNL     1     -10.346  17.561  67.761  1.00  0.00    -0.367 C  
BRANCH   3   4
HETATM    4  C   UNL     1      -9.970  16.460  68.746  1.00  0.00    -0.246 C  
BRANCH   4   5
HETATM    5  O   UNL     1     -10.915  15.400  68.615  1.00  0.00    -0.249 OA 
BRANCH   5   6
HETATM    6  C   UNL     1     -10.282  14.183  68.225  1.00  0.00    -0.243 C  
BRANCH   6   7
HETATM    7  C   UNL     1     -11.009  13.598  67.041  1.00  0.00    -0.298 A  
HETATM    8  C   UNL     1     -10.527  12.428  66.424  1.00  0.00    -0.267 A  
HETATM    9  C   UNL     1     -11.158  11.913  65.291  1.00  0.00    -0.299 A  
HETATM   10  C   UNL     1     -12.282  12.576  64.786  1.00  0.00    -0.465 A  
HETATM   11  H   UNL     1     -13.680  12.554  63.326  1.00  0.00     0.000 HD 
HETATM   12  C   UNL     1     -12.783  13.723  65.389  1.00  0.00    -0.513 A  
HETATM   13  C   UNL     1     -12.143  14.237  66.516  1.00  0.00    -0.454 A  
HETATM   14  O   UNL     1     -12.917  12.104  63.668  1.00  0.00    -0.780 OA 
BRANCH   9  15
HETATM   15  O   UNL     1     -10.778  10.799  64.587  1.00  0.00    -0.284 OA 
HETATM   16  C   UNL     1      -9.378  10.582  64.453  1.00  0.00    -0.262 C  
ENDBRANCH   9  15
ENDBRANCH   6   7
ENDBRANCH   5   6
ENDBRANCH   4   5
ENDBRANCH   3   4
ENDBRANCH   2   3
TORSDOF 6
ENDMDL
MODEL       61
REMARK 921   NORMALIZED FREE ENERGY PREDICTED BY IDOCK:   -4.14 KCAL/MOL
REMARK 922        TOTAL FREE ENERGY PREDICTED BY IDOCK:   -5.91 KCAL/MOL
REMARK 923 INTER-LIGAND FREE ENERGY PREDICTED BY IDOCK:   -5.47 KCAL/MOL
REMARK 924 INTRA-LIGAND FREE ENERGY PREDICTED BY IDOCK:   -0.45 KCAL/MOL
REMARK 927      BINDING AFFINITY PREDICTED BY RF-SCORE:    0.00 PKD
ROOT
HETATM    1  C   UNL     1     -11.657  11.916  63.625  1.00  0.00    -0.559 C  
HETATM    2  C   UNL     1     -12.217  13.308  63.875  1.00  0.00    -0.491 C  
ENDROOT
BRANCH   2   3
HETATM    3  C   UNL     1     -12.586  13.505  65.342  1.00  0.00    -0.531 C  
BRANCH   3   4
HETATM    4  C   UNL     1     -11.847  12.523  66.243  1.00  0.00    -0.390 C  
BRANCH   4   5
HETATM    5  O   UNL     1     -10.961  13.264  67.081  1.00  0.00    -0.265 OA 
BRANCH   5   6
HETATM    6  C   UNL     1     -11.528  14.517  67.458  1.00  0.00    -0.356 C  
BRANCH   6   7
HETATM    7  C   UNL     1     -10.545  15.621  67.157  1.00  0.00    -0.308 A  
HETATM    8  C   UNL     1     -10.888  16.962  67.416  1.00  0.00    -0.166 A  
HETATM    9  C   UNL     1     -10.010  17.994  67.084  1.00  0.00    -0.325 A  
HETATM   10  C   UNL     1      -8.780  17.671  66.499  1.00  0.00    -0.263 A  
HETATM   11  H   UNL     1      -7.067  18.442  65.753  1.00  0.00     0.000 HD 
HETATM   12  C   UNL     1      -8.416  16.354  66.249  1.00  0.00    -0.372 A  
HETATM   13  C   UNL     1      -9.302  15.327  66.576  1.00  0.00    -0.309 A  
HETATM   14  O   UNL     1      -7.901  18.661  66.150  1.00  0.00    -0.335 OA 
BRANCH   9  15
HETATM   15  O   UNL     1     -10.231  19.336  67.264  1.00  0.00    -0.359 OA 
HETATM   16  C   UNL     1     -10.042  19.838  68.582  1.00  0.00    -0.440 C  
ENDBRANCH   9  15
ENDBRANCH   6   7
ENDBRANCH   5   6
ENDBRANCH   4   5
ENDBRANCH   3   4
ENDBRANCH   2   3
TORSDOF 6
ENDMDL
MODEL       62
REMARK 921   NORMALIZED FREE ENERGY PREDICTED BY IDOCK:   -4.13 KCAL/MOL
REMARK 922        TOTAL FREE ENERGY PREDICTED BY IDOCK:   -5.90 KCAL/MOL
REMARK 923 INTER-LIGAND FREE ENERGY PREDICTED BY IDOCK:   -5.50 KCAL/MOL
REMARK 924 INTRA-LIGAND FREE ENERGY PREDICTED BY IDOCK:   -0.40 KCAL/MOL
REMARK 927      BINDING AFFINITY PREDICTED BY RF-SCORE:    0.00 PKD
ROOT
HETATM    1  C   UNL     1     -12.714  15.885  73.982  1.00  0.00    -0.703 C  
HETATM    2  C   UNL     1     -13.260  14.928  72.934  1.00  0.00    -0.590 C  
ENDROOT
BRANCH   2   3
HETATM    3  C   UNL     1     -13.052  15.469  71.523  1.00  0.00    -0.573 C  
BRANCH   3   4
HETATM    4  C   UNL     1     -11.575  15.702  71.225  1.00  0.00    -0.428 C  
BRANCH   4   5
HETATM    5  O   UNL     1     -11.122  14.661  70.361  1.00  0.00    -0.183 OA 
BRANCH   5   6
HETATM    6  C   UNL     1     -12.000  14.486  69.251  1.00  0.00    -0.319 C  
BRANCH   6   7
HETATM    7  C   UNL     1     -11.665  13.195  68.547  1.00  0.00    -0.387 A  
HETATM    8  C   UNL     1     -11.458  12.018  69.291  1.00  0.00    -0.361 A  
HETATM    9  C   UNL     1     -11.088  10.833  68.653  1.00  0.00    -0.259 A  
HETATM   10  C   UNL     1     -10.937  10.836  67.262  1.00  0.00    -0.297 A  
HETATM   11  H   UNL     1     -10.460   9.694  65.663  1.00  0.00     0.000 HD 
HETATM   12  C   UNL     1     -11.152  11.982  66.508  1.00  0.00    -0.362 A  
HETATM   13  C   UNL     1     -11.513  13.165  67.152  1.00  0.00    -0.378 A  
HETATM   14  O   UNL     1     -10.562   9.693  66.608  1.00  0.00    -0.189 OA 
BRANCH   9  15
HETATM   15  O   UNL     1     -10.837   9.630  69.262  1.00  0.00    -0.224 OA 
HETATM   16  C   UNL     1      -9.730   9.591  70.155  1.00  0.00    -0.246 C  
ENDBRANCH   9  15
ENDBRANCH   6   7
ENDBRANCH   5   6
ENDBRANCH   4   5
ENDBRANCH   3   4
ENDBRANCH   2   3
TORSDOF 6
ENDMDL
MODEL       63
REMARK 921   NORMALIZED FREE ENERGY PREDICTED BY IDOCK:   -4.13 KCAL/MOL
REMARK 922        TOTAL FREE ENERGY PREDICTED BY IDOCK:   -5.90 KCAL/MOL
REMARK 923 INTER-LIGAND FREE ENERGY PREDICTED BY IDOCK:   -5.37 KCAL/MOL
REMARK 924 INTRA-LIGAND FREE ENERGY PREDICTED BY IDOCK:   -0.53 KCAL/MOL
REMARK 927      BINDING AFFINITY PREDICTED BY RF-SCORE:    0.00 PKD
ROOT
HETATM    1  C   UNL     1     -12.046  12.960  63.424  1.00  0.00    -0.610 C  
HETATM    2  C   UNL     1     -12.095  14.190  64.316  1.00  0.00    -0.471 C  
ENDROOT
BRANCH   2   3
HETATM    3  C   UNL     1     -12.547  13.835  65.730  1.00  0.00    -0.525 C  
BRANCH   3   4
HETATM    4  C   UNL     1     -11.605  12.830  66.383  1.00  0.00    -0.378 C  
BRANCH   4   5
HETATM    5  O   UNL     1     -10.329  13.448  66.540  1.00  0.00    -0.274 OA 
BRANCH   5   6
HETATM    6  C   UNL     1     -10.269  14.221  67.737  1.00  0.00    -0.235 C  
BRANCH   6   7
HETATM    7  C   UNL     1      -9.909  15.645  67.396  1.00  0.00    -0.225 A  
HETATM    8  C   UNL     1      -8.773  15.917  66.611  1.00  0.00    -0.324 A  
HETATM    9  C   UNL     1      -8.397  17.234  66.340  1.00  0.00    -0.280 A  
HETATM   10  C   UNL     1      -9.177  18.276  66.856  1.00  0.00    -0.282 A  
HETATM   11  H   UNL     1      -9.357  20.286  66.969  1.00  0.00     0.000 HD 
HETATM   12  C   UNL     1     -10.310  18.028  67.619  1.00  0.00    -0.397 A  
HETATM   13  C   UNL     1     -10.675  16.711  67.893  1.00  0.00    -0.344 A  
HETATM   14  O   UNL     1      -8.828  19.579  66.619  1.00  0.00    -0.312 OA 
BRANCH   9  15
HETATM   15  O   UNL     1      -7.306  17.632  65.611  1.00  0.00    -0.487 OA 
HETATM   16  C   UNL     1      -6.063  17.673  66.302  1.00  0.00    -0.226 C  
ENDBRANCH   9  15
ENDBRANCH   6   7
ENDBRANCH   5   6
ENDBRANCH   4   5
ENDBRANCH   3   4
ENDBRANCH   2   3
TORSDOF 6
ENDMDL
MODEL       64
REMARK 921   NORMALIZED FREE ENERGY PREDICTED BY IDOCK:   -4.13 KCAL/MOL
REMARK 922        TOTAL FREE ENERGY PREDICTED BY IDOCK:   -5.90 KCAL/MOL
REMARK 923 INTER-LIGAND FREE ENERGY PREDICTED BY IDOCK:   -5.34 KCAL/MOL
REMARK 924 INTRA-LIGAND FREE ENERGY PREDICTED BY IDOCK:   -0.56 KCAL/MOL
REMARK 927      BINDING AFFINITY PREDICTED BY RF-SCORE:    0.00 PKD
ROOT
HETATM    1  C   UNL     1     -11.055   9.573  70.274  1.00  0.00    -0.317 C  
HETATM    2  C   UNL     1     -11.504  10.330  69.034  1.00  0.00    -0.200 C  
ENDROOT
BRANCH   2   3
HETATM    3  C   UNL     1     -10.332  10.618  68.101  1.00  0.00    -0.203 C  
BRANCH   3   4
HETATM    4  C   UNL     1     -10.726  11.581  66.988  1.00  0.00    -0.259 C  
BRANCH   4   5
HETATM    5  O   UNL     1     -11.973  12.181  67.335  1.00  0.00    -0.563 OA 
BRANCH   5   6
HETATM    6  C   UNL     1     -11.952  13.590  67.115  1.00  0.00    -0.381 C  
BRANCH   6   7
HETATM    7  C   UNL     1     -11.839  14.301  68.440  1.00  0.00    -0.373 A  
HETATM    8  C   UNL     1     -12.410  13.736  69.596  1.00  0.00    -0.284 A  
HETATM    9  C   UNL     1     -12.363  14.416  70.814  1.00  0.00    -0.347 A  
HETATM   10  C   UNL     1     -11.730  15.663  70.866  1.00  0.00    -0.387 A  
HETATM   11  H   UNL     1     -11.248  17.207  72.078  1.00  0.00     0.000 HD 
HETATM   12  C   UNL     1     -11.146  16.230  69.741  1.00  0.00    -0.337 A  
HETATM   13  C   UNL     1     -11.204  15.550  68.525  1.00  0.00    -0.334 A  
HETATM   14  O   UNL     1     -11.678  16.361  72.043  1.00  0.00    -0.499 OA 
BRANCH   9  15
HETATM   15  O   UNL     1     -12.897  13.987  72.002  1.00  0.00    -0.335 OA 
HETATM   16  C   UNL     1     -14.309  14.099  72.139  1.00  0.00    -0.518 C  
ENDBRANCH   9  15
ENDBRANCH   6   7
ENDBRANCH   5   6
ENDBRANCH   4   5
ENDBRANCH   3   4
ENDBRANCH   2   3
TORSDOF 6
ENDMDL
MODEL       65
REMARK 921   NORMALIZED FREE ENERGY PREDICTED BY IDOCK:   -4.13 KCAL/MOL
REMARK 922        TOTAL FREE ENERGY PREDICTED BY IDOCK:   -5.89 KCAL/MOL
REMARK 923 INTER-LIGAND FREE ENERGY PREDICTED BY IDOCK:   -5.58 KCAL/MOL
REMARK 924 INTRA-LIGAND FREE ENERGY PREDICTED BY IDOCK:   -0.31 KCAL/MOL
REMARK 927      BINDING AFFINITY PREDICTED BY RF-SCORE:    0.00 PKD
ROOT
HETATM    1  C   UNL     1     -11.943  13.387  64.187  1.00  0.00    -0.505 C  
HETATM    2  C   UNL     1     -12.609  13.968  65.424  1.00  0.00    -0.529 C  
ENDROOT
BRANCH   2   3
HETATM    3  C   UNL     1     -11.900  13.524  66.700  1.00  0.00    -0.450 C  
BRANCH   3   4
HETATM    4  C   UNL     1     -10.675  14.384  66.988  1.00  0.00    -0.285 C  
BRANCH   4   5
HETATM    5  O   UNL     1     -11.020  15.748  66.753  1.00  0.00    -0.293 OA 
BRANCH   5   6
HETATM    6  C   UNL     1     -10.971  16.512  67.956  1.00  0.00    -0.320 C  
BRANCH   6   7
HETATM    7  C   UNL     1     -10.108  17.730  67.741  1.00  0.00    -0.345 A  
HETATM    8  C   UNL     1      -9.061  18.021  68.636  1.00  0.00    -0.276 A  
HETATM    9  C   UNL     1      -8.296  19.178  68.480  1.00  0.00    -0.364 A  
HETATM   10  C   UNL     1      -8.584  20.036  67.412  1.00  0.00    -0.341 A  
HETATM   11  H   UNL     1      -8.055  21.768  66.513  1.00  0.00     0.000 HD 
HETATM   12  C   UNL     1      -9.602  19.759  66.509  1.00  0.00    -0.509 A  
HETATM   13  C   UNL     1     -10.368  18.606  66.676  1.00  0.00    -0.456 A  
HETATM   14  O   UNL     1      -7.860  21.185  67.238  1.00  0.00    -0.299 OA 
BRANCH   9  15
HETATM   15  O   UNL     1      -7.268  19.585  69.290  1.00  0.00    -0.356 OA 
HETATM   16  C   UNL     1      -6.087  18.792  69.263  1.00  0.00    -0.253 C  
ENDBRANCH   9  15
ENDBRANCH   6   7
ENDBRANCH   5   6
ENDBRANCH   4   5
ENDBRANCH   3   4
ENDBRANCH   2   3
TORSDOF 6
ENDMDL
MODEL       66
REMARK 921   NORMALIZED FREE ENERGY PREDICTED BY IDOCK:   -4.12 KCAL/MOL
REMARK 922        TOTAL FREE ENERGY PREDICTED BY IDOCK:   -5.89 KCAL/MOL
REMARK 923 INTER-LIGAND FREE ENERGY PREDICTED BY IDOCK:   -5.53 KCAL/MOL
REMARK 924 INTRA-LIGAND FREE ENERGY PREDICTED BY IDOCK:   -0.35 KCAL/MOL
REMARK 927      BINDING AFFINITY PREDICTED BY RF-SCORE:    0.00 PKD
ROOT
HETATM    1  C   UNL     1      -9.865  19.835  68.329  1.00  0.00    -0.537 C  
HETATM    2  C   UNL     1     -10.712  18.682  67.815  1.00  0.00    -0.394 C  
ENDROOT
BRANCH   2   3
HETATM    3  C   UNL     1     -10.397  17.385  68.554  1.00  0.00    -0.378 C  
BRANCH   3   4
HETATM    4  C   UNL     1     -10.168  16.230  67.586  1.00  0.00    -0.272 C  
BRANCH   4   5
HETATM    5  O   UNL     1     -10.796  15.066  68.121  1.00  0.00    -0.249 OA 
BRANCH   5   6
HETATM    6  C   UNL     1     -11.851  15.409  69.018  1.00  0.00    -0.335 C  
BRANCH   6   7
HETATM    7  C   UNL     1     -12.184  14.216  69.878  1.00  0.00    -0.416 A  
HETATM    8  C   UNL     1     -11.828  12.920  69.457  1.00  0.00    -0.383 A  
HETATM    9  C   UNL     1     -12.185  11.805  70.216  1.00  0.00    -0.299 A  
HETATM   10  C   UNL     1     -12.895  12.001  71.406  1.00  0.00    -0.288 A  
HETATM   11  H   UNL     1     -13.753  11.060  72.976  1.00  0.00     0.000 HD 
HETATM   12  C   UNL     1     -13.242  13.272  71.847  1.00  0.00    -0.523 A  
HETATM   13  C   UNL     1     -12.889  14.381  71.080  1.00  0.00    -0.423 A  
HETATM   14  O   UNL     1     -13.272  10.927  72.168  1.00  0.00    -0.474 OA 
BRANCH   9  15
HETATM   15  O   UNL     1     -11.919  10.496  69.908  1.00  0.00    -0.276 OA 
HETATM   16  C   UNL     1     -10.550  10.110  69.913  1.00  0.00    -0.285 C  
ENDBRANCH   9  15
ENDBRANCH   6   7
ENDBRANCH   5   6
ENDBRANCH   4   5
ENDBRANCH   3   4
ENDBRANCH   2   3
TORSDOF 6
ENDMDL
MODEL       67
REMARK 921   NORMALIZED FREE ENERGY PREDICTED BY IDOCK:   -4.12 KCAL/MOL
REMARK 922        TOTAL FREE ENERGY PREDICTED BY IDOCK:   -5.88 KCAL/MOL
REMARK 923 INTER-LIGAND FREE ENERGY PREDICTED BY IDOCK:   -5.16 KCAL/MOL
REMARK 924 INTRA-LIGAND FREE ENERGY PREDICTED BY IDOCK:   -0.71 KCAL/MOL
REMARK 927      BINDING AFFINITY PREDICTED BY RF-SCORE:    0.00 PKD
ROOT
HETATM    1  C   UNL     1     -11.978  13.777  68.042  1.00  0.00    -0.390 C  
HETATM    2  C   UNL     1     -11.700  12.895  66.835  1.00  0.00    -0.445 C  
ENDROOT
BRANCH   2   3
HETATM    3  C   UNL     1     -12.239  13.520  65.552  1.00  0.00    -0.490 C  
BRANCH   3   4
HETATM    4  C   UNL     1     -11.157  13.626  64.483  1.00  0.00    -0.386 C  
BRANCH   4   5
HETATM    5  O   UNL     1     -10.286  14.700  64.833  1.00  0.00    -0.411 OA 
BRANCH   5   6
HETATM    6  C   UNL     1     -10.970  15.952  64.816  1.00  0.00    -0.375 C  
BRANCH   6   7
HETATM    7  C   UNL     1     -10.371  16.863  65.857  1.00  0.00    -0.327 A  
HETATM    8  C   UNL     1      -9.560  16.333  66.878  1.00  0.00    -0.244 A  
HETATM    9  C   UNL     1      -9.050  17.159  67.881  1.00  0.00    -0.230 A  
HETATM   10  C   UNL     1      -9.355  18.525  67.846  1.00  0.00    -0.294 A  
HETATM   11  H   UNL     1      -9.087  20.288  68.799  1.00  0.00     0.000 HD 
HETATM   12  C   UNL     1     -10.140  19.071  66.839  1.00  0.00    -0.437 A  
HETATM   13  C   UNL     1     -10.652  18.238  65.845  1.00  0.00    -0.274 A  
HETATM   14  O   UNL     1      -8.881  19.360  68.822  1.00  0.00    -0.366 OA 
BRANCH   9  15
HETATM   15  O   UNL     1      -8.270  16.765  68.937  1.00  0.00    -0.244 OA 
HETATM   16  C   UNL     1      -8.345  15.392  69.303  1.00  0.00    -0.254 C  
ENDBRANCH   9  15
ENDBRANCH   6   7
ENDBRANCH   5   6
ENDBRANCH   4   5
ENDBRANCH   3   4
ENDBRANCH   2   3
TORSDOF 6
ENDMDL
MODEL       68
REMARK 921   NORMALIZED FREE ENERGY PREDICTED BY IDOCK:   -4.11 KCAL/MOL
REMARK 922        TOTAL FREE ENERGY PREDICTED BY IDOCK:   -5.87 KCAL/MOL
REMARK 923 INTER-LIGAND FREE ENERGY PREDICTED BY IDOCK:   -5.59 KCAL/MOL
REMARK 924 INTRA-LIGAND FREE ENERGY PREDICTED BY IDOCK:   -0.29 KCAL/MOL
REMARK 927      BINDING AFFINITY PREDICTED BY RF-SCORE:    0.00 PKD
ROOT
HETATM    1  C   UNL     1     -14.152  14.561  72.197  1.00  0.00    -0.616 C  
HETATM    2  C   UNL     1     -13.514  13.197  71.986  1.00  0.00    -0.598 C  
ENDROOT
BRANCH   2   3
HETATM    3  C   UNL     1     -12.651  13.173  70.729  1.00  0.00    -0.338 C  
BRANCH   3   4
HETATM    4  C   UNL     1     -12.130  11.771  70.433  1.00  0.00    -0.352 C  
BRANCH   4   5
HETATM    5  O   UNL     1     -11.244  11.849  69.318  1.00  0.00    -0.245 OA 
BRANCH   5   6
HETATM    6  C   UNL     1     -11.283  10.655  68.539  1.00  0.00    -0.282 C  
BRANCH   6   7
HETATM    7  C   UNL     1     -10.855  10.965  67.126  1.00  0.00    -0.337 A  
HETATM    8  C   UNL     1     -11.076  12.247  66.587  1.00  0.00    -0.344 A  
HETATM    9  C   UNL     1     -10.738  12.526  65.262  1.00  0.00    -0.286 A  
HETATM   10  C   UNL     1     -10.169  11.512  64.484  1.00  0.00    -0.288 A  
HETATM   11  H   UNL     1      -9.451  11.061  62.649  1.00  0.00     0.000 HD 
HETATM   12  C   UNL     1      -9.928  10.246  65.002  1.00  0.00    -0.393 A  
HETATM   13  C   UNL     1     -10.275   9.971  66.324  1.00  0.00    -0.285 A  
HETATM   14  O   UNL     1      -9.838  11.750  63.177  1.00  0.00    -0.409 OA 
BRANCH   9  15
HETATM   15  O   UNL     1     -10.921  13.721  64.614  1.00  0.00    -0.367 OA 
HETATM   16  C   UNL     1     -12.260  14.193  64.522  1.00  0.00    -0.445 C  
ENDBRANCH   9  15
ENDBRANCH   6   7
ENDBRANCH   5   6
ENDBRANCH   4   5
ENDBRANCH   3   4
ENDBRANCH   2   3
TORSDOF 6
ENDMDL
MODEL       69
REMARK 921   NORMALIZED FREE ENERGY PREDICTED BY IDOCK:   -4.11 KCAL/MOL
REMARK 922        TOTAL FREE ENERGY PREDICTED BY IDOCK:   -5.87 KCAL/MOL
REMARK 923 INTER-LIGAND FREE ENERGY PREDICTED BY IDOCK:   -5.37 KCAL/MOL
REMARK 924 INTRA-LIGAND FREE ENERGY PREDICTED BY IDOCK:   -0.50 KCAL/MOL
REMARK 927      BINDING AFFINITY PREDICTED BY RF-SCORE:    0.00 PKD
ROOT
HETATM    1  C   UNL     1     -11.562  10.828  70.324  1.00  0.00    -0.427 C  
HETATM    2  C   UNL     1     -11.911  11.070  68.864  1.00  0.00    -0.378 C  
ENDROOT
BRANCH   2   3
HETATM    3  C   UNL     1     -10.700  10.859  67.959  1.00  0.00    -0.263 C  
BRANCH   3   4
HETATM    4  C   UNL     1     -10.995  11.275  66.523  1.00  0.00    -0.245 C  
BRANCH   4   5
HETATM    5  O   UNL     1     -12.114  12.160  66.533  1.00  0.00    -0.627 OA 
BRANCH   5   6
HETATM    6  C   UNL     1     -11.880  13.305  65.717  1.00  0.00    -0.387 C  
BRANCH   6   7
HETATM    7  C   UNL     1     -11.564  14.490  66.595  1.00  0.00    -0.385 A  
HETATM    8  C   UNL     1     -10.818  15.569  66.084  1.00  0.00    -0.295 A  
HETATM    9  C   UNL     1     -10.469  16.641  66.906  1.00  0.00    -0.271 A  
HETATM   10  C   UNL     1     -10.883  16.627  68.243  1.00  0.00    -0.356 A  
HETATM   11  H   UNL     1     -10.828  17.649  69.986  1.00  0.00     0.000 HD 
HETATM   12  C   UNL     1     -11.634  15.580  68.762  1.00  0.00    -0.390 A  
HETATM   13  C   UNL     1     -11.972  14.508  67.937  1.00  0.00    -0.322 A  
HETATM   14  O   UNL     1     -10.547  17.658  69.079  1.00  0.00    -0.281 OA 
BRANCH   9  15
HETATM   15  O   UNL     1      -9.731  17.737  66.539  1.00  0.00    -0.295 OA 
HETATM   16  C   UNL     1     -10.457  18.842  66.014  1.00  0.00    -0.446 C  
ENDBRANCH   9  15
ENDBRANCH   6   7
ENDBRANCH   5   6
ENDBRANCH   4   5
ENDBRANCH   3   4
ENDBRANCH   2   3
TORSDOF 6
ENDMDL
MODEL       70
REMARK 921   NORMALIZED FREE ENERGY PREDICTED BY IDOCK:   -4.10 KCAL/MOL
REMARK 922        TOTAL FREE ENERGY PREDICTED BY IDOCK:   -5.86 KCAL/MOL
REMARK 923 INTER-LIGAND FREE ENERGY PREDICTED BY IDOCK:   -5.22 KCAL/MOL
REMARK 924 INTRA-LIGAND FREE ENERGY PREDICTED BY IDOCK:   -0.64 KCAL/MOL
REMARK 927      BINDING AFFINITY PREDICTED BY RF-SCORE:    0.00 PKD
ROOT
HETATM    1  C   UNL     1     -12.763  12.348  64.229  1.00  0.00    -0.437 C  
HETATM    2  C   UNL     1     -11.417  12.192  63.538  1.00  0.00    -0.544 C  
ENDROOT
BRANCH   2   3
HETATM    3  C   UNL     1     -10.299  12.855  64.337  1.00  0.00    -0.393 C  
BRANCH   3   4
HETATM    4  C   UNL     1     -10.694  14.253  64.798  1.00  0.00    -0.416 C  
BRANCH   4   5
HETATM    5  O   UNL     1     -10.439  14.352  66.198  1.00  0.00    -0.278 OA 
BRANCH   5   6
HETATM    6  C   UNL     1     -11.634  14.628  66.927  1.00  0.00    -0.362 C  
BRANCH   6   7
HETATM    7  C   UNL     1     -11.758  13.652  68.070  1.00  0.00    -0.387 A  
HETATM    8  C   UNL     1     -11.648  12.269  67.834  1.00  0.00    -0.416 A  
HETATM    9  C   UNL     1     -11.822  11.356  68.875  1.00  0.00    -0.347 A  
HETATM   10  C   UNL     1     -12.098  11.843  70.158  1.00  0.00    -0.302 A  
HETATM   11  H   UNL     1     -12.473  11.303  72.070  1.00  0.00     0.000 HD 
HETATM   12  C   UNL     1     -12.194  13.204  70.415  1.00  0.00    -0.389 A  
HETATM   13  C   UNL     1     -12.028  14.110  69.369  1.00  0.00    -0.382 A  
HETATM   14  O   UNL     1     -12.286  10.973  71.199  1.00  0.00    -0.361 OA 
BRANCH   9  15
HETATM   15  O   UNL     1     -11.763   9.990  68.774  1.00  0.00     0.016 OA 
HETATM   16  C   UNL     1     -10.502   9.436  68.416  1.00  0.00    -0.218 C  
ENDBRANCH   9  15
ENDBRANCH   6   7
ENDBRANCH   5   6
ENDBRANCH   4   5
ENDBRANCH   3   4
ENDBRANCH   2   3
TORSDOF 6
ENDMDL
MODEL       71
REMARK 921   NORMALIZED FREE ENERGY PREDICTED BY IDOCK:   -4.10 KCAL/MOL
REMARK 922        TOTAL FREE ENERGY PREDICTED BY IDOCK:   -5.86 KCAL/MOL
REMARK 923 INTER-LIGAND FREE ENERGY PREDICTED BY IDOCK:   -5.48 KCAL/MOL
REMARK 924 INTRA-LIGAND FREE ENERGY PREDICTED BY IDOCK:   -0.38 KCAL/MOL
REMARK 927      BINDING AFFINITY PREDICTED BY RF-SCORE:    0.00 PKD
ROOT
HETATM    1  C   UNL     1      -6.651  17.259  67.312  1.00  0.00    -0.188 C  
HETATM    2  C   UNL     1      -7.722  16.348  66.733  1.00  0.00    -0.298 C  
ENDROOT
BRANCH   2   3
HETATM    3  C   UNL     1      -9.101  16.682  67.293  1.00  0.00    -0.225 C  
BRANCH   3   4
HETATM    4  C   UNL     1     -10.208  15.997  66.501  1.00  0.00    -0.293 C  
BRANCH   4   5
HETATM    5  O   UNL     1     -11.225  15.588  67.414  1.00  0.00    -0.315 OA 
BRANCH   5   6
HETATM    6  C   UNL     1     -10.952  16.046  68.737  1.00  0.00    -0.320 C  
BRANCH   6   7
HETATM    7  C   UNL     1     -11.695  15.186  69.728  1.00  0.00    -0.347 A  
HETATM    8  C   UNL     1     -12.265  15.765  70.877  1.00  0.00    -0.458 A  
HETATM    9  C   UNL     1     -12.902  14.968  71.830  1.00  0.00    -0.337 A  
HETATM   10  C   UNL     1     -12.971  13.587  71.616  1.00  0.00    -0.359 A  
HETATM   11  H   UNL     1     -13.624  11.839  72.392  1.00  0.00     0.000 HD 
HETATM   12  C   UNL     1     -12.428  12.998  70.481  1.00  0.00    -0.306 A  
HETATM   13  C   UNL     1     -11.786  13.799  69.537  1.00  0.00    -0.394 A  
HETATM   14  O   UNL     1     -13.577  12.776  72.538  1.00  0.00    -0.538 OA 
BRANCH   9  15
HETATM   15  O   UNL     1     -13.476  15.403  72.997  1.00  0.00    -0.488 OA 
HETATM   16  C   UNL     1     -12.598  15.974  73.961  1.00  0.00    -0.608 C  
ENDBRANCH   9  15
ENDBRANCH   6   7
ENDBRANCH   5   6
ENDBRANCH   4   5
ENDBRANCH   3   4
ENDBRANCH   2   3
TORSDOF 6
ENDMDL
MODEL       72
REMARK 921   NORMALIZED FREE ENERGY PREDICTED BY IDOCK:   -4.09 KCAL/MOL
REMARK 922        TOTAL FREE ENERGY PREDICTED BY IDOCK:   -5.85 KCAL/MOL
REMARK 923 INTER-LIGAND FREE ENERGY PREDICTED BY IDOCK:   -5.36 KCAL/MOL
REMARK 924 INTRA-LIGAND FREE ENERGY PREDICTED BY IDOCK:   -0.49 KCAL/MOL
REMARK 927      BINDING AFFINITY PREDICTED BY RF-SCORE:    0.00 PKD
ROOT
HETATM    1  C   UNL     1     -12.687   9.376  71.924  1.00  0.00    -0.484 C  
HETATM    2  C   UNL     1     -11.284   8.997  71.477  1.00  0.00    -0.418 C  
ENDROOT
BRANCH   2   3
HETATM    3  C   UNL     1     -10.739   9.987  70.451  1.00  0.00    -0.369 C  
BRANCH   3   4
HETATM    4  C   UNL     1     -11.495   9.897  69.130  1.00  0.00     0.036 C  
BRANCH   4   5
HETATM    5  O   UNL     1     -12.307  11.062  68.998  1.00  0.00    -0.481 OA 
BRANCH   5   6
HETATM    6  C   UNL     1     -11.553  12.169  68.509  1.00  0.00    -0.315 C  
BRANCH   6   7
HETATM    7  C   UNL     1     -11.710  13.337  69.450  1.00  0.00    -0.383 A  
HETATM    8  C   UNL     1     -11.165  14.591  69.116  1.00  0.00    -0.294 A  
HETATM    9  C   UNL     1     -11.253  15.662  70.007  1.00  0.00    -0.325 A  
HETATM   10  C   UNL     1     -11.900  15.466  71.233  1.00  0.00    -0.380 A  
HETATM   11  H   UNL     1     -12.431  16.360  72.967  1.00  0.00     0.000 HD 
HETATM   12  C   UNL     1     -12.458  14.241  71.574  1.00  0.00    -0.435 A  
HETATM   13  C   UNL     1     -12.360  13.174  70.683  1.00  0.00    -0.405 A  
HETATM   14  O   UNL     1     -11.992  16.493  72.135  1.00  0.00    -0.471 OA 
BRANCH   9  15
HETATM   15  O   UNL     1     -10.748  16.922  69.813  1.00  0.00    -0.291 OA 
HETATM   16  C   UNL     1     -10.244  17.209  68.514  1.00  0.00    -0.346 C  
ENDBRANCH   9  15
ENDBRANCH   6   7
ENDBRANCH   5   6
ENDBRANCH   4   5
ENDBRANCH   3   4
ENDBRANCH   2   3
TORSDOF 6
ENDMDL
MODEL       73
REMARK 921   NORMALIZED FREE ENERGY PREDICTED BY IDOCK:   -4.09 KCAL/MOL
REMARK 922        TOTAL FREE ENERGY PREDICTED BY IDOCK:   -5.84 KCAL/MOL
REMARK 923 INTER-LIGAND FREE ENERGY PREDICTED BY IDOCK:   -5.53 KCAL/MOL
REMARK 924 INTRA-LIGAND FREE ENERGY PREDICTED BY IDOCK:   -0.31 KCAL/MOL
REMARK 927      BINDING AFFINITY PREDICTED BY RF-SCORE:    0.00 PKD
ROOT
HETATM    1  C   UNL     1     -12.431  12.121  63.389  1.00  0.00    -0.625 C  
HETATM    2  C   UNL     1     -10.987  11.916  63.819  1.00  0.00    -0.494 C  
ENDROOT
BRANCH   2   3
HETATM    3  C   UNL     1     -10.490  13.077  64.675  1.00  0.00    -0.400 C  
BRANCH   3   4
HETATM    4  C   UNL     1     -11.500  14.218  64.712  1.00  0.00    -0.393 C  
BRANCH   4   5
HETATM    5  O   UNL     1     -10.783  15.451  64.728  1.00  0.00    -0.415 OA 
BRANCH   5   6
HETATM    6  C   UNL     1      -9.912  15.532  65.854  1.00  0.00    -0.349 C  
BRANCH   6   7
HETATM    7  C   UNL     1      -9.816  16.967  66.310  1.00  0.00    -0.320 A  
HETATM    8  C   UNL     1      -8.910  17.326  67.326  1.00  0.00    -0.230 A  
HETATM    9  C   UNL     1      -8.857  18.639  67.796  1.00  0.00    -0.275 A  
HETATM   10  C   UNL     1      -9.714  19.591  67.233  1.00  0.00    -0.343 A  
HETATM   11  H   UNL     1     -10.277  21.532  67.298  1.00  0.00     0.000 HD 
HETATM   12  C   UNL     1     -10.604  19.261  66.219  1.00  0.00    -0.545 A  
HETATM   13  C   UNL     1     -10.657  17.945  65.759  1.00  0.00    -0.175 A  
HETATM   14  O   UNL     1      -9.695  20.885  67.680  1.00  0.00    -0.360 OA 
BRANCH   9  15
HETATM   15  O   UNL     1      -8.039  19.111  68.791  1.00  0.00    -0.353 OA 
HETATM   16  C   UNL     1      -6.640  19.063  68.536  1.00  0.00    -0.251 C  
ENDBRANCH   9  15
ENDBRANCH   6   7
ENDBRANCH   5   6
ENDBRANCH   4   5
ENDBRANCH   3   4
ENDBRANCH   2   3
TORSDOF 6
ENDMDL
MODEL       74
REMARK 921   NORMALIZED FREE ENERGY PREDICTED BY IDOCK:   -4.09 KCAL/MOL
REMARK 922        TOTAL FREE ENERGY PREDICTED BY IDOCK:   -5.84 KCAL/MOL
REMARK 923 INTER-LIGAND FREE ENERGY PREDICTED BY IDOCK:   -5.15 KCAL/MOL
REMARK 924 INTRA-LIGAND FREE ENERGY PREDICTED BY IDOCK:   -0.69 KCAL/MOL
REMARK 927      BINDING AFFINITY PREDICTED BY RF-SCORE:    0.00 PKD
ROOT
HETATM    1  C   UNL     1      -7.773  15.591  69.365  1.00  0.00    -0.227 C  
HETATM    2  C   UNL     1      -7.657  16.984  68.767  1.00  0.00    -0.243 C  
ENDROOT
BRANCH   2   3
HETATM    3  C   UNL     1      -8.746  17.236  67.727  1.00  0.00    -0.226 C  
BRANCH   3   4
HETATM    4  C   UNL     1      -9.960  17.921  68.343  1.00  0.00    -0.367 C  
BRANCH   4   5
HETATM    5  O   UNL     1     -11.089  17.064  68.179  1.00  0.00    -0.334 OA 
BRANCH   5   6
HETATM    6  C   UNL     1     -11.403  16.379  69.389  1.00  0.00    -0.213 C  
BRANCH   6   7
HETATM    7  C   UNL     1     -11.556  14.906  69.105  1.00  0.00    -0.331 A  
HETATM    8  C   UNL     1     -11.690  14.453  67.779  1.00  0.00    -0.407 A  
HETATM    9  C   UNL     1     -11.893  13.098  67.510  1.00  0.00    -0.360 A  
HETATM   10  C   UNL     1     -11.950  12.201  68.582  1.00  0.00    -0.237 A  
HETATM   11  H   UNL     1     -12.198  10.257  69.080  1.00  0.00     0.000 HD 
HETATM   12  C   UNL     1     -11.803  12.625  69.896  1.00  0.00    -0.364 A  
HETATM   13  C   UNL     1     -11.610  13.981  70.158  1.00  0.00    -0.273 A  
HETATM   14  O   UNL     1     -12.160  10.867  68.353  1.00  0.00    -0.559 OA 
BRANCH   9  15
HETATM   15  O   UNL     1     -12.060  12.534  66.271  1.00  0.00    -0.574 OA 
HETATM   16  C   UNL     1     -12.194  13.435  65.178  1.00  0.00    -0.434 C  
ENDBRANCH   9  15
ENDBRANCH   6   7
ENDBRANCH   5   6
ENDBRANCH   4   5
ENDBRANCH   3   4
ENDBRANCH   2   3
TORSDOF 6
ENDMDL
MODEL       75
REMARK 921   NORMALIZED FREE ENERGY PREDICTED BY IDOCK:   -4.07 KCAL/MOL
REMARK 922        TOTAL FREE ENERGY PREDICTED BY IDOCK:   -5.82 KCAL/MOL
REMARK 923 INTER-LIGAND FREE ENERGY PREDICTED BY IDOCK:   -5.27 KCAL/MOL
REMARK 924 INTRA-LIGAND FREE ENERGY PREDICTED BY IDOCK:   -0.54 KCAL/MOL
REMARK 927      BINDING AFFINITY PREDICTED BY RF-SCORE:    0.00 PKD
ROOT
HETATM    1  C   UNL     1      -8.188  15.509  69.000  1.00  0.00    -0.227 C  
HETATM    2  C   UNL     1      -8.779  15.693  67.611  1.00  0.00    -0.182 C  
ENDROOT
BRANCH   2   3
HETATM    3  C   UNL     1      -9.092  14.350  66.956  1.00  0.00    -0.250 C  
BRANCH   3   4
HETATM    4  C   UNL     1     -10.418  14.389  66.205  1.00  0.00    -0.290 C  
BRANCH   4   5
HETATM    5  O   UNL     1     -11.349  13.561  66.899  1.00  0.00    -0.306 OA 
BRANCH   5   6
HETATM    6  C   UNL     1     -10.723  12.855  67.968  1.00  0.00    -0.228 C  
BRANCH   6   7
HETATM    7  C   UNL     1     -11.571  12.971  69.210  1.00  0.00    -0.367 A  
HETATM    8  C   UNL     1     -11.922  14.240  69.709  1.00  0.00    -0.394 A  
HETATM    9  C   UNL     1     -12.655  14.359  70.890  1.00  0.00    -0.352 A  
HETATM   10  C   UNL     1     -13.042  13.194  71.562  1.00  0.00    -0.315 A  
HETATM   11  H   UNL     1     -14.014  12.486  73.187  1.00  0.00     0.000 HD 
HETATM   12  C   UNL     1     -12.720  11.933  71.078  1.00  0.00    -0.354 A  
HETATM   13  C   UNL     1     -11.980  11.821  69.902  1.00  0.00    -0.405 A  
HETATM   14  O   UNL     1     -13.751  13.276  72.731  1.00  0.00    -0.669 OA 
BRANCH   9  15
HETATM   15  O   UNL     1     -13.040  15.530  71.491  1.00  0.00    -0.439 OA 
HETATM   16  C   UNL     1     -12.025  16.254  72.176  1.00  0.00    -0.494 C  
ENDBRANCH   9  15
ENDBRANCH   6   7
ENDBRANCH   5   6
ENDBRANCH   4   5
ENDBRANCH   3   4
ENDBRANCH   2   3
TORSDOF 6
ENDMDL
MODEL       76
REMARK 921   NORMALIZED FREE ENERGY PREDICTED BY IDOCK:   -4.07 KCAL/MOL
REMARK 922        TOTAL FREE ENERGY PREDICTED BY IDOCK:   -5.81 KCAL/MOL
REMARK 923 INTER-LIGAND FREE ENERGY PREDICTED BY IDOCK:   -5.19 KCAL/MOL
REMARK 924 INTRA-LIGAND FREE ENERGY PREDICTED BY IDOCK:   -0.62 KCAL/MOL
REMARK 927      BINDING AFFINITY PREDICTED BY RF-SCORE:    0.00 PKD
ROOT
HETATM    1  C   UNL     1      -9.552  10.843  67.940  1.00  0.00    -0.175 C  
HETATM    2  C   UNL     1     -10.275   9.520  67.741  1.00  0.00    -0.265 C  
ENDROOT
BRANCH   2   3
HETATM    3  C   UNL     1     -10.714   8.918  69.072  1.00  0.00    -0.148 C  
BRANCH   3   4
HETATM    4  C   UNL     1     -10.041   9.613  70.250  1.00  0.00    -0.275 C  
BRANCH   4   5
HETATM    5  O   UNL     1     -11.041   9.914  71.222  1.00  0.00    -0.351 OA 
BRANCH   5   6
HETATM    6  C   UNL     1     -12.284  10.245  70.606  1.00  0.00    -0.329 C  
BRANCH   6   7
HETATM    7  C   UNL     1     -12.592  11.701  70.852  1.00  0.00    -0.409 A  
HETATM    8  C   UNL     1     -12.067  12.688  69.996  1.00  0.00    -0.339 A  
HETATM    9  C   UNL     1     -12.296  14.041  70.250  1.00  0.00    -0.358 A  
HETATM   10  C   UNL     1     -13.064  14.396  71.365  1.00  0.00    -0.346 A  
HETATM   11  H   UNL     1     -13.819  15.956  72.406  1.00  0.00     0.000 HD 
HETATM   12  C   UNL     1     -13.604  13.437  72.212  1.00  0.00    -0.703 A  
HETATM   13  C   UNL     1     -13.364  12.087  71.957  1.00  0.00    -0.447 A  
HETATM   14  O   UNL     1     -13.297  15.715  71.649  1.00  0.00    -0.485 OA 
BRANCH   9  15
HETATM   15  O   UNL     1     -11.826  15.095  69.511  1.00  0.00    -0.300 OA 
HETATM   16  C   UNL     1     -10.414  15.274  69.489  1.00  0.00    -0.260 C  
ENDBRANCH   9  15
ENDBRANCH   6   7
ENDBRANCH   5   6
ENDBRANCH   4   5
ENDBRANCH   3   4
ENDBRANCH   2   3
TORSDOF 6
ENDMDL
MODEL       77
REMARK 921   NORMALIZED FREE ENERGY PREDICTED BY IDOCK:   -4.06 KCAL/MOL
REMARK 922        TOTAL FREE ENERGY PREDICTED BY IDOCK:   -5.80 KCAL/MOL
REMARK 923 INTER-LIGAND FREE ENERGY PREDICTED BY IDOCK:   -5.30 KCAL/MOL
REMARK 924 INTRA-LIGAND FREE ENERGY PREDICTED BY IDOCK:   -0.50 KCAL/MOL
REMARK 927      BINDING AFFINITY PREDICTED BY RF-SCORE:    0.00 PKD
ROOT
HETATM    1  C   UNL     1     -11.130   7.062  72.797  1.00  0.00    -0.320 C  
HETATM    2  C   UNL     1     -11.443   8.441  72.238  1.00  0.00    -0.454 C  
ENDROOT
BRANCH   2   3
HETATM    3  C   UNL     1     -12.935   8.751  72.323  1.00  0.00    -0.462 C  
BRANCH   3   4
HETATM    4  C   UNL     1     -13.251  10.137  71.772  1.00  0.00    -0.438 C  
BRANCH   4   5
HETATM    5  O   UNL     1     -12.036  10.722  71.308  1.00  0.00    -0.330 OA 
BRANCH   5   6
HETATM    6  C   UNL     1     -12.285  11.749  70.350  1.00  0.00    -0.330 C  
BRANCH   6   7
HETATM    7  C   UNL     1     -11.672  11.360  69.029  1.00  0.00    -0.409 A  
HETATM    8  C   UNL     1     -11.752  12.234  67.928  1.00  0.00    -0.410 A  
HETATM    9  C   UNL     1     -11.242  11.857  66.685  1.00  0.00    -0.328 A  
HETATM   10  C   UNL     1     -10.642  10.599  66.557  1.00  0.00    -0.193 A  
HETATM   11  H   UNL     1      -9.735   9.341  65.261  1.00  0.00     0.000 HD 
HETATM   12  C   UNL     1     -10.539   9.728  67.634  1.00  0.00    -0.333 A  
HETATM   13  C   UNL     1     -11.058  10.108  68.871  1.00  0.00    -0.251 A  
HETATM   14  O   UNL     1     -10.142  10.194  65.348  1.00  0.00    -0.303 OA 
BRANCH   9  15
HETATM   15  O   UNL     1     -11.275  12.603  65.535  1.00  0.00    -0.286 OA 
HETATM   16  C   UNL     1     -12.562  12.992  65.070  1.00  0.00    -0.454 C  
ENDBRANCH   9  15
ENDBRANCH   6   7
ENDBRANCH   5   6
ENDBRANCH   4   5
ENDBRANCH   3   4
ENDBRANCH   2   3
TORSDOF 6
ENDMDL
MODEL       78
REMARK 921   NORMALIZED FREE ENERGY PREDICTED BY IDOCK:   -4.06 KCAL/MOL
REMARK 922        TOTAL FREE ENERGY PREDICTED BY IDOCK:   -5.80 KCAL/MOL
REMARK 923 INTER-LIGAND FREE ENERGY PREDICTED BY IDOCK:   -5.46 KCAL/MOL
REMARK 924 INTRA-LIGAND FREE ENERGY PREDICTED BY IDOCK:   -0.34 KCAL/MOL
REMARK 927      BINDING AFFINITY PREDICTED BY RF-SCORE:    0.00 PKD
ROOT
HETATM    1  C   UNL     1     -13.773   8.661  72.325  1.00  0.00    -0.445 C  
HETATM    2  C   UNL     1     -12.370   8.173  71.998  1.00  0.00    -0.380 C  
ENDROOT
BRANCH   2   3
HETATM    3  C   UNL     1     -11.436   9.336  71.674  1.00  0.00    -0.468 C  
BRANCH   3   4
HETATM    4  C   UNL     1     -10.746   9.142  70.329  1.00  0.00    -0.231 C  
BRANCH   4   5
HETATM    5  O   UNL     1     -11.154  10.198  69.460  1.00  0.00    -0.230 OA 
BRANCH   5   6
HETATM    6  C   UNL     1     -12.129  11.034  70.079  1.00  0.00    -0.364 C  
BRANCH   6   7
HETATM    7  C   UNL     1     -11.865  12.471  69.707  1.00  0.00    -0.380 A  
HETATM    8  C   UNL     1     -12.318  13.511  70.540  1.00  0.00    -0.412 A  
HETATM    9  C   UNL     1     -12.131  14.845  70.174  1.00  0.00    -0.327 A  
HETATM   10  C   UNL     1     -11.477  15.127  68.970  1.00  0.00    -0.309 A  
HETATM   11  H   UNL     1     -10.845  16.617  67.758  1.00  0.00     0.000 HD 
HETATM   12  C   UNL     1     -11.008  14.116  68.141  1.00  0.00    -0.264 A  
HETATM   13  C   UNL     1     -11.206  12.785  68.509  1.00  0.00    -0.314 A  
HETATM   14  O   UNL     1     -11.290  16.425  68.575  1.00  0.00    -0.371 OA 
BRANCH   9  15
HETATM   15  O   UNL     1     -12.542  15.945  70.882  1.00  0.00    -0.427 OA 
HETATM   16  C   UNL     1     -12.008  16.090  72.193  1.00  0.00    -0.538 C  
ENDBRANCH   9  15
ENDBRANCH   6   7
ENDBRANCH   5   6
ENDBRANCH   4   5
ENDBRANCH   3   4
ENDBRANCH   2   3
TORSDOF 6
ENDMDL
MODEL       79
REMARK 921   NORMALIZED FREE ENERGY PREDICTED BY IDOCK:   -4.05 KCAL/MOL
REMARK 922        TOTAL FREE ENERGY PREDICTED BY IDOCK:   -5.79 KCAL/MOL
REMARK 923 INTER-LIGAND FREE ENERGY PREDICTED BY IDOCK:   -5.16 KCAL/MOL
REMARK 924 INTRA-LIGAND FREE ENERGY PREDICTED BY IDOCK:   -0.63 KCAL/MOL
REMARK 927      BINDING AFFINITY PREDICTED BY RF-SCORE:    0.00 PKD
ROOT
HETATM    1  C   UNL     1      -9.105   9.000  65.797  1.00  0.00    -0.272 C  
HETATM    2  C   UNL     1      -9.965  10.064  65.133  1.00  0.00    -0.350 C  
ENDROOT
BRANCH   2   3
HETATM    3  C   UNL     1      -9.361  10.524  63.809  1.00  0.00    -0.319 C  
BRANCH   3   4
HETATM    4  C   UNL     1     -10.207  11.610  63.155  1.00  0.00    -0.354 C  
BRANCH   4   5
HETATM    5  O   UNL     1     -11.536  11.508  63.662  1.00  0.00    -0.412 OA 
BRANCH   5   6
HETATM    6  C   UNL     1     -12.134  12.794  63.816  1.00  0.00    -0.517 C  
BRANCH   6   7
HETATM    7  C   UNL     1     -11.745  13.369  65.154  1.00  0.00    -0.345 A  
HETATM    8  C   UNL     1     -11.053  14.593  65.223  1.00  0.00    -0.363 A  
HETATM    9  C   UNL     1     -10.636  15.103  66.453  1.00  0.00    -0.305 A  
HETATM   10  C   UNL     1     -10.927  14.381  67.615  1.00  0.00    -0.286 A  
HETATM   11  H   UNL     1     -10.718  14.357  69.626  1.00  0.00     0.000 HD 
HETATM   12  C   UNL     1     -11.623  13.179  67.571  1.00  0.00    -0.398 A  
HETATM   13  C   UNL     1     -12.029  12.671  66.338  1.00  0.00    -0.425 A  
HETATM   14  O   UNL     1     -10.520  14.847  68.837  1.00  0.00    -0.228 OA 
BRANCH   9  15
HETATM   15  O   UNL     1      -9.938  16.267  66.653  1.00  0.00    -0.243 OA 
HETATM   16  C   UNL     1      -8.587  16.280  66.209  1.00  0.00    -0.339 C  
ENDBRANCH   9  15
ENDBRANCH   6   7
ENDBRANCH   5   6
ENDBRANCH   4   5
ENDBRANCH   3   4
ENDBRANCH   2   3
TORSDOF 6
ENDMDL
MODEL       80
REMARK 921   NORMALIZED FREE ENERGY PREDICTED BY IDOCK:   -4.03 KCAL/MOL
REMARK 922        TOTAL FREE ENERGY PREDICTED BY IDOCK:   -5.76 KCAL/MOL
REMARK 923 INTER-LIGAND FREE ENERGY PREDICTED BY IDOCK:   -5.48 KCAL/MOL
REMARK 924 INTRA-LIGAND FREE ENERGY PREDICTED BY IDOCK:   -0.29 KCAL/MOL
REMARK 927      BINDING AFFINITY PREDICTED BY RF-SCORE:    0.00 PKD
ROOT
HETATM    1  C   UNL     1     -10.564   9.862  70.327  1.00  0.00    -0.359 C  
HETATM    2  C   UNL     1      -9.065   9.637  70.204  1.00  0.00    -0.280 C  
ENDROOT
BRANCH   2   3
HETATM    3  C   UNL     1      -8.486  10.384  69.006  1.00  0.00    -0.155 C  
BRANCH   3   4
HETATM    4  C   UNL     1      -9.539  11.249  68.323  1.00  0.00    -0.193 C  
BRANCH   4   5
HETATM    5  O   UNL     1      -8.953  12.514  68.021  1.00  0.00    -0.179 OA 
BRANCH   5   6
HETATM    6  C   UNL     1      -9.769  13.590  68.479  1.00  0.00    -0.168 C  
BRANCH   6   7
HETATM    7  C   UNL     1     -10.267  14.380  67.295  1.00  0.00    -0.252 A  
HETATM    8  C   UNL     1     -11.263  13.843  66.457  1.00  0.00    -0.327 A  
HETATM    9  C   UNL     1     -11.687  14.540  65.324  1.00  0.00    -0.361 A  
HETATM   10  C   UNL     1     -11.110  15.784  65.045  1.00  0.00    -0.370 A  
HETATM   11  H   UNL     1     -11.103  17.333  63.745  1.00  0.00     0.000 HD 
HETATM   12  C   UNL     1     -10.138  16.338  65.868  1.00  0.00    -0.381 A  
HETATM   13  C   UNL     1      -9.713  15.633  66.993  1.00  0.00    -0.234 A  
HETATM   14  O   UNL     1     -11.494  16.488  63.935  1.00  0.00    -1.145 OA 
BRANCH   9  15
HETATM   15  O   UNL     1     -12.628  14.121  64.420  1.00  0.00    -0.658 OA 
HETATM   16  C   UNL     1     -12.385  12.869  63.788  1.00  0.00    -0.417 C  
ENDBRANCH   9  15
ENDBRANCH   6   7
ENDBRANCH   5   6
ENDBRANCH   4   5
ENDBRANCH   3   4
ENDBRANCH   2   3
TORSDOF 6
ENDMDL
MODEL       81
REMARK 921   NORMALIZED FREE ENERGY PREDICTED BY IDOCK:   -4.02 KCAL/MOL
REMARK 922        TOTAL FREE ENERGY PREDICTED BY IDOCK:   -5.75 KCAL/MOL
REMARK 923 INTER-LIGAND FREE ENERGY PREDICTED BY IDOCK:   -5.33 KCAL/MOL
REMARK 924 INTRA-LIGAND FREE ENERGY PREDICTED BY IDOCK:   -0.42 KCAL/MOL
REMARK 927      BINDING AFFINITY PREDICTED BY RF-SCORE:    0.00 PKD
ROOT
HETATM    1  C   UNL     1     -10.855  19.245  67.220  1.00  0.00    -0.554 C  
HETATM    2  C   UNL     1      -9.988  18.099  67.717  1.00  0.00    -0.334 C  
ENDROOT
BRANCH   2   3
HETATM    3  C   UNL     1     -10.061  16.897  66.780  1.00  0.00    -0.294 C  
BRANCH   3   4
HETATM    4  C   UNL     1     -10.806  17.234  65.493  1.00  0.00    -0.023 C  
BRANCH   4   5
HETATM    5  O   UNL     1     -10.663  16.138  64.592  1.00  0.00    -0.637 OA 
BRANCH   5   6
HETATM    6  C   UNL     1     -11.852  15.353  64.534  1.00  0.00    -0.256 C  
BRANCH   6   7
HETATM    7  C   UNL     1     -11.546  13.947  64.983  1.00  0.00    -0.350 A  
HETATM    8  C   UNL     1     -11.925  13.518  66.269  1.00  0.00    -0.457 A  
HETATM    9  C   UNL     1     -11.593  12.238  66.716  1.00  0.00    -0.369 A  
HETATM   10  C   UNL     1     -10.885  11.389  65.858  1.00  0.00    -0.234 A  
HETATM   11  H   UNL     1     -10.053   9.554  65.689  1.00  0.00     0.000 HD 
HETATM   12  C   UNL     1     -10.516  11.787  64.580  1.00  0.00    -0.352 A  
HETATM   13  C   UNL     1     -10.844  13.069  64.143  1.00  0.00    -0.433 A  
HETATM   14  O   UNL     1     -10.533  10.131  66.271  1.00  0.00    -0.201 OA 
BRANCH   9  15
HETATM   15  O   UNL     1     -11.882  11.709  67.948  1.00  0.00    -0.543 OA 
HETATM   16  C   UNL     1     -11.890  12.619  69.042  1.00  0.00    -0.294 C  
ENDBRANCH   9  15
ENDBRANCH   6   7
ENDBRANCH   5   6
ENDBRANCH   4   5
ENDBRANCH   3   4
ENDBRANCH   2   3
TORSDOF 6
ENDMDL
MODEL       82
REMARK 921   NORMALIZED FREE ENERGY PREDICTED BY IDOCK:   -4.02 KCAL/MOL
REMARK 922        TOTAL FREE ENERGY PREDICTED BY IDOCK:   -5.75 KCAL/MOL
REMARK 923 INTER-LIGAND FREE ENERGY PREDICTED BY IDOCK:   -5.22 KCAL/MOL
REMARK 924 INTRA-LIGAND FREE ENERGY PREDICTED BY IDOCK:   -0.53 KCAL/MOL
REMARK 927      BINDING AFFINITY PREDICTED BY RF-SCORE:    0.00 PKD
ROOT
HETATM    1  C   UNL     1     -11.439   6.497  70.132  1.00  0.00    -0.477 C  
HETATM    2  C   UNL     1     -11.765   7.668  71.045  1.00  0.00    -0.306 C  
ENDROOT
BRANCH   2   3
HETATM    3  C   UNL     1     -13.226   7.642  71.485  1.00  0.00    -0.380 C  
BRANCH   3   4
HETATM    4  C   UNL     1     -13.641   8.961  72.127  1.00  0.00    -0.453 C  
BRANCH   4   5
HETATM    5  O   UNL     1     -12.599   9.911  71.912  1.00  0.00    -0.388 OA 
BRANCH   5   6
HETATM    6  C   UNL     1     -13.116  11.236  71.809  1.00  0.00    -0.422 C  
BRANCH   6   7
HETATM    7  C   UNL     1     -12.462  11.939  70.646  1.00  0.00    -0.347 A  
HETATM    8  C   UNL     1     -11.937  11.193  69.574  1.00  0.00    -0.425 A  
HETATM    9  C   UNL     1     -11.276  11.830  68.523  1.00  0.00    -0.252 A  
HETATM   10  C   UNL     1     -11.154  13.224  68.552  1.00  0.00    -0.265 A  
HETATM   11  H   UNL     1     -10.417  14.825  67.561  1.00  0.00     0.000 HD 
HETATM   12  C   UNL     1     -11.678  13.980  69.592  1.00  0.00    -0.368 A  
HETATM   13  C   UNL     1     -12.330  13.336  70.643  1.00  0.00    -0.416 A  
HETATM   14  O   UNL     1     -10.500  13.878  67.542  1.00  0.00    -0.246 OA 
BRANCH   9  15
HETATM   15  O   UNL     1     -10.704  11.220  67.436  1.00  0.00    -0.214 OA 
HETATM   16  C   UNL     1     -10.665   9.797  67.457  1.00  0.00    -0.264 C  
ENDBRANCH   9  15
ENDBRANCH   6   7
ENDBRANCH   5   6
ENDBRANCH   4   5
ENDBRANCH   3   4
ENDBRANCH   2   3
TORSDOF 6
ENDMDL
MODEL       83
REMARK 921   NORMALIZED FREE ENERGY PREDICTED BY IDOCK:   -4.02 KCAL/MOL
REMARK 922        TOTAL FREE ENERGY PREDICTED BY IDOCK:   -5.74 KCAL/MOL
REMARK 923 INTER-LIGAND FREE ENERGY PREDICTED BY IDOCK:   -5.44 KCAL/MOL
REMARK 924 INTRA-LIGAND FREE ENERGY PREDICTED BY IDOCK:   -0.31 KCAL/MOL
REMARK 927      BINDING AFFINITY PREDICTED BY RF-SCORE:    0.00 PKD
ROOT
HETATM    1  C   UNL     1     -12.510  12.515  63.711  1.00  0.00    -0.552 C  
HETATM    2  C   UNL     1     -11.020  12.337  63.958  1.00  0.00    -0.438 C  
ENDROOT
BRANCH   2   3
HETATM    3  C   UNL     1     -10.751  11.742  65.337  1.00  0.00    -0.333 C  
BRANCH   3   4
HETATM    4  C   UNL     1     -11.472  12.518  66.433  1.00  0.00    -0.365 C  
BRANCH   4   5
HETATM    5  O   UNL     1     -12.053  11.581  67.337  1.00  0.00    -0.593 OA 
BRANCH   5   6
HETATM    6  C   UNL     1     -12.065  12.083  68.672  1.00  0.00    -0.088 C  
BRANCH   6   7
HETATM    7  C   UNL     1     -11.652  10.988  69.622  1.00  0.00    -0.390 A  
HETATM    8  C   UNL     1     -12.555  10.519  70.595  1.00  0.00    -0.457 A  
HETATM    9  C   UNL     1     -12.163   9.549  71.518  1.00  0.00    -0.386 A  
HETATM   10  C   UNL     1     -10.859   9.045  71.451  1.00  0.00    -0.330 A  
HETATM   11  H   UNL     1      -9.553   7.758  72.304  1.00  0.00     0.000 HD 
HETATM   12  C   UNL     1      -9.957   9.482  70.489  1.00  0.00    -0.335 A  
HETATM   13  C   UNL     1     -10.354  10.458  69.575  1.00  0.00    -0.264 A  
HETATM   14  O   UNL     1     -10.438   8.101  72.350  1.00  0.00    -0.268 OA 
BRANCH   9  15
HETATM   15  O   UNL     1     -12.935   9.027  72.524  1.00  0.00    -0.418 OA 
HETATM   16  C   UNL     1     -13.917   8.072  72.137  1.00  0.00    -0.222 C  
ENDBRANCH   9  15
ENDBRANCH   6   7
ENDBRANCH   5   6
ENDBRANCH   4   5
ENDBRANCH   3   4
ENDBRANCH   2   3
TORSDOF 6
ENDMDL
MODEL       84
REMARK 921   NORMALIZED FREE ENERGY PREDICTED BY IDOCK:   -4.01 KCAL/MOL
REMARK 922        TOTAL FREE ENERGY PREDICTED BY IDOCK:   -5.74 KCAL/MOL
REMARK 923 INTER-LIGAND FREE ENERGY PREDICTED BY IDOCK:   -5.43 KCAL/MOL
REMARK 924 INTRA-LIGAND FREE ENERGY PREDICTED BY IDOCK:   -0.30 KCAL/MOL
REMARK 927      BINDING AFFINITY PREDICTED BY RF-SCORE:    0.00 PKD
ROOT
HETATM    1  C   UNL     1     -10.946   7.048  67.158  1.00  0.00    -0.393 C  
HETATM    2  C   UNL     1     -10.175   8.324  66.857  1.00  0.00    -0.388 C  
ENDROOT
BRANCH   2   3
HETATM    3  C   UNL     1     -10.694   9.498  67.682  1.00  0.00    -0.314 C  
BRANCH   3   4
HETATM    4  C   UNL     1     -10.726  10.785  66.866  1.00  0.00    -0.252 C  
BRANCH   4   5
HETATM    5  O   UNL     1     -11.910  11.503  67.208  1.00  0.00    -0.609 OA 
BRANCH   5   6
HETATM    6  C   UNL     1     -11.857  12.849  66.740  1.00  0.00    -0.385 C  
BRANCH   6   7
HETATM    7  C   UNL     1     -11.838  13.788  67.919  1.00  0.00    -0.413 A  
HETATM    8  C   UNL     1     -11.372  15.107  67.764  1.00  0.00    -0.335 A  
HETATM    9  C   UNL     1     -11.294  15.965  68.862  1.00  0.00    -0.377 A  
HETATM   10  C   UNL     1     -11.697  15.492  70.116  1.00  0.00    -0.347 A  
HETATM   11  H   UNL     1     -11.895  15.983  72.067  1.00  0.00     0.000 HD 
HETATM   12  C   UNL     1     -12.175  14.199  70.287  1.00  0.00    -0.416 A  
HETATM   13  C   UNL     1     -12.242  13.344  69.188  1.00  0.00    -0.207 A  
HETATM   14  O   UNL     1     -11.621  16.304  71.216  1.00  0.00    -0.437 OA 
BRANCH   9  15
HETATM   15  O   UNL     1     -10.840  17.259  68.850  1.00  0.00    -0.261 OA 
HETATM   16  C   UNL     1      -9.572  17.479  68.242  1.00  0.00    -0.299 C  
ENDBRANCH   9  15
ENDBRANCH   6   7
ENDBRANCH   5   6
ENDBRANCH   4   5
ENDBRANCH   3   4
ENDBRANCH   2   3
TORSDOF 6
ENDMDL
MODEL       85
REMARK 921   NORMALIZED FREE ENERGY PREDICTED BY IDOCK:   -4.00 KCAL/MOL
REMARK 922        TOTAL FREE ENERGY PREDICTED BY IDOCK:   -5.72 KCAL/MOL
REMARK 923 INTER-LIGAND FREE ENERGY PREDICTED BY IDOCK:   -5.00 KCAL/MOL
REMARK 924 INTRA-LIGAND FREE ENERGY PREDICTED BY IDOCK:   -0.72 KCAL/MOL
REMARK 927      BINDING AFFINITY PREDICTED BY RF-SCORE:    0.00 PKD
ROOT
HETATM    1  C   UNL     1     -12.443  13.912  64.986  1.00  0.00    -0.447 C  
HETATM    2  C   UNL     1     -11.079  13.581  64.401  1.00  0.00    -0.397 C  
ENDROOT
BRANCH   2   3
HETATM    3  C   UNL     1     -11.136  12.336  63.522  1.00  0.00    -0.533 C  
BRANCH   3   4
HETATM    4  C   UNL     1     -10.658  11.098  64.272  1.00  0.00    -0.357 C  
BRANCH   4   5
HETATM    5  O   UNL     1      -9.750  11.514  65.290  1.00  0.00    -0.232 OA 
BRANCH   5   6
HETATM    6  C   UNL     1      -9.808  10.651  66.424  1.00  0.00    -0.211 C  
BRANCH   6   7
HETATM    7  C   UNL     1     -10.483  11.370  67.565  1.00  0.00    -0.233 A  
HETATM    8  C   UNL     1     -11.337  10.666  68.435  1.00  0.00    -0.348 A  
HETATM    9  C   UNL     1     -12.014  11.334  69.457  1.00  0.00    -0.351 A  
HETATM   10  C   UNL     1     -11.819  12.712  69.605  1.00  0.00    -0.311 A  
HETATM   11  H   UNL     1     -12.345  14.334  70.690  1.00  0.00     0.000 HD 
HETATM   12  C   UNL     1     -10.968  13.421  68.767  1.00  0.00    -0.290 A  
HETATM   13  C   UNL     1     -10.302  12.749  67.743  1.00  0.00    -0.222 A  
HETATM   14  O   UNL     1     -12.477  13.399  70.590  1.00  0.00    -0.339 OA 
BRANCH   9  15
HETATM   15  O   UNL     1     -12.886  10.772  70.354  1.00  0.00    -0.313 OA 
HETATM   16  C   UNL     1     -12.307  10.037  71.426  1.00  0.00    -0.415 C  
ENDBRANCH   9  15
ENDBRANCH   6   7
ENDBRANCH   5   6
ENDBRANCH   4   5
ENDBRANCH   3   4
ENDBRANCH   2   3
TORSDOF 6
ENDMDL
MODEL       86
REMARK 921   NORMALIZED FREE ENERGY PREDICTED BY IDOCK:   -3.99 KCAL/MOL
REMARK 922        TOTAL FREE ENERGY PREDICTED BY IDOCK:   -5.71 KCAL/MOL
REMARK 923 INTER-LIGAND FREE ENERGY PREDICTED BY IDOCK:   -5.35 KCAL/MOL
REMARK 924 INTRA-LIGAND FREE ENERGY PREDICTED BY IDOCK:   -0.36 KCAL/MOL
REMARK 927      BINDING AFFINITY PREDICTED BY RF-SCORE:    0.00 PKD
ROOT
HETATM    1  C   UNL     1     -11.830  17.067  74.054  1.00  0.00     0.028 C  
HETATM    2  C   UNL     1     -12.868  15.964  73.931  1.00  0.00    -0.669 C  
ENDROOT
BRANCH   2   3
HETATM    3  C   UNL     1     -12.754  15.237  72.594  1.00  0.00    -0.474 C  
BRANCH   3   4
HETATM    4  C   UNL     1     -14.005  15.430  71.743  1.00  0.00    -0.525 C  
BRANCH   4   5
HETATM    5  O   UNL     1     -13.605  15.546  70.379  1.00  0.00    -0.228 OA 
BRANCH   5   6
HETATM    6  C   UNL     1     -12.473  14.726  70.097  1.00  0.00    -0.309 C  
BRANCH   6   7
HETATM    7  C   UNL     1     -11.796  15.221  68.843  1.00  0.00    -0.344 A  
HETATM    8  C   UNL     1     -11.792  14.426  67.682  1.00  0.00    -0.412 A  
HETATM    9  C   UNL     1     -11.117  14.849  66.536  1.00  0.00    -0.341 A  
HETATM   10  C   UNL     1     -10.454  16.081  66.562  1.00  0.00    -0.302 A  
HETATM   11  H   UNL     1      -9.321  17.355  65.475  1.00  0.00     0.000 HD 
HETATM   12  C   UNL     1     -10.459  16.887  67.692  1.00  0.00    -0.332 A  
HETATM   13  C   UNL     1     -11.128  16.455  68.836  1.00  0.00    -0.328 A  
HETATM   14  O   UNL     1      -9.771  16.519  65.458  1.00  0.00    -0.524 OA 
BRANCH   9  15
HETATM   15  O   UNL     1     -11.019  14.162  65.353  1.00  0.00    -0.304 OA 
HETATM   16  C   UNL     1     -10.938  12.745  65.449  1.00  0.00    -0.283 C  
ENDBRANCH   9  15
ENDBRANCH   6   7
ENDBRANCH   5   6
ENDBRANCH   4   5
ENDBRANCH   3   4
ENDBRANCH   2   3
TORSDOF 6
ENDMDL
MODEL       87
REMARK 921   NORMALIZED FREE ENERGY PREDICTED BY IDOCK:   -3.97 KCAL/MOL
REMARK 922        TOTAL FREE ENERGY PREDICTED BY IDOCK:   -5.69 KCAL/MOL
REMARK 923 INTER-LIGAND FREE ENERGY PREDICTED BY IDOCK:   -5.26 KCAL/MOL
REMARK 924 INTRA-LIGAND FREE ENERGY PREDICTED BY IDOCK:   -0.42 KCAL/MOL
REMARK 927      BINDING AFFINITY PREDICTED BY RF-SCORE:    0.00 PKD
ROOT
HETATM    1  C   UNL     1      -8.794   9.429  70.273  1.00  0.00    -0.269 C  
HETATM    2  C   UNL     1      -9.868   8.852  69.365  1.00  0.00    -0.183 C  
ENDROOT
BRANCH   2   3
HETATM    3  C   UNL     1     -10.856   7.990  70.146  1.00  0.00    -0.242 C  
BRANCH   3   4
HETATM    4  C   UNL     1     -11.394   8.724  71.369  1.00  0.00    -0.294 C  
BRANCH   4   5
HETATM    5  O   UNL     1     -12.606   9.379  70.999  1.00  0.00    -0.294 OA 
BRANCH   5   6
HETATM    6  C   UNL     1     -13.058  10.259  72.027  1.00  0.00    -0.425 C  
BRANCH   6   7
HETATM    7  C   UNL     1     -12.928  11.686  71.558  1.00  0.00    -0.463 A  
HETATM    8  C   UNL     1     -12.224  11.978  70.374  1.00  0.00    -0.379 A  
HETATM    9  C   UNL     1     -12.046  13.300  69.963  1.00  0.00    -0.315 A  
HETATM   10  C   UNL     1     -12.588  14.327  70.745  1.00  0.00    -0.356 A  
HETATM   11  H   UNL     1     -12.789  16.332  70.908  1.00  0.00     0.000 HD 
HETATM   12  C   UNL     1     -13.299  14.058  71.908  1.00  0.00    -0.489 A  
HETATM   13  C   UNL     1     -13.466  12.736  72.317  1.00  0.00    -0.591 A  
HETATM   14  O   UNL     1     -12.421  15.635  70.377  1.00  0.00    -0.414 OA 
BRANCH   9  15
HETATM   15  O   UNL     1     -11.367  13.718  68.848  1.00  0.00    -0.254 OA 
HETATM   16  C   UNL     1     -11.310  12.803  67.761  1.00  0.00    -0.294 C  
ENDBRANCH   9  15
ENDBRANCH   6   7
ENDBRANCH   5   6
ENDBRANCH   4   5
ENDBRANCH   3   4
ENDBRANCH   2   3
TORSDOF 6
ENDMDL
MODEL       88
REMARK 921   NORMALIZED FREE ENERGY PREDICTED BY IDOCK:   -3.94 KCAL/MOL
REMARK 922        TOTAL FREE ENERGY PREDICTED BY IDOCK:   -5.64 KCAL/MOL
REMARK 923 INTER-LIGAND FREE ENERGY PREDICTED BY IDOCK:   -5.20 KCAL/MOL
REMARK 924 INTRA-LIGAND FREE ENERGY PREDICTED BY IDOCK:   -0.44 KCAL/MOL
REMARK 927      BINDING AFFINITY PREDICTED BY RF-SCORE:    0.00 PKD
ROOT
HETATM    1  C   UNL     1      -6.052  17.341  68.477  1.00  0.00    -0.155 C  
HETATM    2  C   UNL     1      -6.836  18.636  68.618  1.00  0.00    -0.294 C  
ENDROOT
BRANCH   2   3
HETATM    3  C   UNL     1      -8.049  18.657  67.692  1.00  0.00    -0.262 C  
BRANCH   3   4
HETATM    4  C   UNL     1      -7.729  18.039  66.336  1.00  0.00    -0.269 C  
BRANCH   4   5
HETATM    5  O   UNL     1      -8.954  17.641  65.724  1.00  0.00    -0.509 OA 
BRANCH   5   6
HETATM    6  C   UNL     1      -9.993  17.491  66.690  1.00  0.00    -0.314 C  
BRANCH   6   7
HETATM    7  C   UNL     1     -10.643  16.141  66.519  1.00  0.00    -0.268 A  
HETATM    8  C   UNL     1     -11.145  15.452  67.639  1.00  0.00    -0.316 A  
HETATM    9  C   UNL     1     -11.693  14.176  67.500  1.00  0.00    -0.386 A  
HETATM   10  C   UNL     1     -11.742  13.600  66.226  1.00  0.00    -0.367 A  
HETATM   11  H   UNL     1     -12.295  11.954  65.191  1.00  0.00     0.000 HD 
HETATM   12  C   UNL     1     -11.266  14.269  65.105  1.00  0.00    -0.345 A  
HETATM   13  C   UNL     1     -10.713  15.540  65.253  1.00  0.00    -0.440 A  
HETATM   14  O   UNL     1     -12.261  12.345  66.057  1.00  0.00    -0.636 OA 
BRANCH   9  15
HETATM   15  O   UNL     1     -12.194  13.394  68.509  1.00  0.00    -0.295 OA 
HETATM   16  C   UNL     1     -12.245  13.986  69.803  1.00  0.00    -0.341 C  
ENDBRANCH   9  15
ENDBRANCH   6   7
ENDBRANCH   5   6
ENDBRANCH   4   5
ENDBRANCH   3   4
ENDBRANCH   2   3
TORSDOF 6
ENDMDL
MODEL       89
REMARK 921   NORMALIZED FREE ENERGY PREDICTED BY IDOCK:   -3.94 KCAL/MOL
REMARK 922        TOTAL FREE ENERGY PREDICTED BY IDOCK:   -5.63 KCAL/MOL
REMARK 923 INTER-LIGAND FREE ENERGY PREDICTED BY IDOCK:   -5.31 KCAL/MOL
REMARK 924 INTRA-LIGAND FREE ENERGY PREDICTED BY IDOCK:   -0.32 KCAL/MOL
REMARK 927      BINDING AFFINITY PREDICTED BY RF-SCORE:    0.00 PKD
ROOT
HETATM    1  C   UNL     1     -11.731  16.063  71.525  1.00  0.00    -0.554 C  
HETATM    2  C   UNL     1     -13.029  15.274  71.599  1.00  0.00    -0.486 C  
ENDROOT
BRANCH   2   3
HETATM    3  C   UNL     1     -12.802  13.796  71.295  1.00  0.00    -0.434 C  
BRANCH   3   4
HETATM    4  C   UNL     1     -13.426  12.903  72.361  1.00  0.00    -0.471 C  
BRANCH   4   5
HETATM    5  O   UNL     1     -13.202  11.544  71.994  1.00  0.00    -0.509 OA 
BRANCH   5   6
HETATM    6  C   UNL     1     -12.583  11.446  70.712  1.00  0.00    -0.316 C  
BRANCH   6   7
HETATM    7  C   UNL     1     -11.601  10.301  70.717  1.00  0.00    -0.446 A  
HETATM    8  C   UNL     1     -11.777   9.224  71.605  1.00  0.00    -0.462 A  
HETATM    9  C   UNL     1     -10.841   8.190  71.660  1.00  0.00    -0.249 A  
HETATM   10  C   UNL     1      -9.731   8.241  70.808  1.00  0.00    -0.172 A  
HETATM   11  H   UNL     1      -8.035   7.284  70.268  1.00  0.00     0.000 HD 
HETATM   12  C   UNL     1      -9.547   9.288  69.914  1.00  0.00    -0.217 A  
HETATM   13  C   UNL     1     -10.482  10.321  69.871  1.00  0.00    -0.304 A  
HETATM   14  O   UNL     1      -8.788   7.249  70.846  1.00  0.00    -0.147 OA 
BRANCH   9  15
HETATM   15  O   UNL     1     -10.884   7.100  72.491  1.00  0.00    -0.235 OA 
HETATM   16  C   UNL     1     -10.341   7.276  73.794  1.00  0.00    -0.313 C  
ENDBRANCH   9  15
ENDBRANCH   6   7
ENDBRANCH   5   6
ENDBRANCH   4   5
ENDBRANCH   3   4
ENDBRANCH   2   3
TORSDOF 6
ENDMDL
MODEL       90
REMARK 921   NORMALIZED FREE ENERGY PREDICTED BY IDOCK:   -3.89 KCAL/MOL
REMARK 922        TOTAL FREE ENERGY PREDICTED BY IDOCK:   -5.57 KCAL/MOL
REMARK 923 INTER-LIGAND FREE ENERGY PREDICTED BY IDOCK:   -5.05 KCAL/MOL
REMARK 924 INTRA-LIGAND FREE ENERGY PREDICTED BY IDOCK:   -0.52 KCAL/MOL
REMARK 927      BINDING AFFINITY PREDICTED BY RF-SCORE:    0.00 PKD
ROOT
HETATM    1  C   UNL     1     -13.234  13.385  71.639  1.00  0.00    -0.449 C  
HETATM    2  C   UNL     1     -13.009  11.898  71.865  1.00  0.00    -0.434 C  
ENDROOT
BRANCH   2   3
HETATM    3  C   UNL     1     -12.707  11.174  70.556  1.00  0.00    -0.302 C  
BRANCH   3   4
HETATM    4  C   UNL     1     -11.300  10.588  70.551  1.00  0.00    -0.314 C  
BRANCH   4   5
HETATM    5  O   UNL     1     -10.600  11.114  69.425  1.00  0.00    -0.208 OA 
BRANCH   5   6
HETATM    6  C   UNL     1     -11.295  10.846  68.209  1.00  0.00    -0.308 C  
BRANCH   6   7
HETATM    7  C   UNL     1     -11.266  12.075  67.335  1.00  0.00    -0.368 A  
HETATM    8  C   UNL     1     -11.186  13.354  67.918  1.00  0.00    -0.303 A  
HETATM    9  C   UNL     1     -11.220  14.500  67.122  1.00  0.00    -0.333 A  
HETATM   10  C   UNL     1     -11.325  14.352  65.734  1.00  0.00    -0.330 A  
HETATM   11  H   UNL     1     -11.444  15.355  63.983  1.00  0.00     0.000 HD 
HETATM   12  C   UNL     1     -11.389  13.099  65.138  1.00  0.00    -0.322 A  
HETATM   13  C   UNL     1     -11.363  11.959  65.940  1.00  0.00    -0.365 A  
HETATM   14  O   UNL     1     -11.373  15.456  64.925  1.00  0.00    -0.390 OA 
BRANCH   9  15
HETATM   15  O   UNL     1     -11.172  15.797  67.564  1.00  0.00    -0.308 OA 
HETATM   16  C   UNL     1     -11.732  16.049  68.848  1.00  0.00    -0.319 C  
ENDBRANCH   9  15
ENDBRANCH   6   7
ENDBRANCH   5   6
ENDBRANCH   4   5
ENDBRANCH   3   4
ENDBRANCH   2   3
TORSDOF 6
ENDMDL
MODEL       91
REMARK 921   NORMALIZED FREE ENERGY PREDICTED BY IDOCK:   -3.89 KCAL/MOL
REMARK 922        TOTAL FREE ENERGY PREDICTED BY IDOCK:   -5.57 KCAL/MOL
REMARK 923 INTER-LIGAND FREE ENERGY PREDICTED BY IDOCK:   -4.95 KCAL/MOL
REMARK 924 INTRA-LIGAND FREE ENERGY PREDICTED BY IDOCK:   -0.62 KCAL/MOL
REMARK 927      BINDING AFFINITY PREDICTED BY RF-SCORE:    0.00 PKD
ROOT
HETATM    1  C   UNL     1      -8.309  19.189  67.201  1.00  0.00    -0.300 C  
HETATM    2  C   UNL     1      -7.851  18.824  68.605  1.00  0.00    -0.361 C  
ENDROOT
BRANCH   2   3
HETATM    3  C   UNL     1      -7.439  17.358  68.693  1.00  0.00    -0.263 C  
BRANCH   3   4
HETATM    4  C   UNL     1      -8.633  16.457  68.987  1.00  0.00    -0.230 C  
BRANCH   4   5
HETATM    5  O   UNL     1      -8.410  15.198  68.356  1.00  0.00    -0.144 OA 
BRANCH   5   6
HETATM    6  C   UNL     1      -8.097  15.356  66.974  1.00  0.00    -0.230 C  
BRANCH   6   7
HETATM    7  C   UNL     1      -9.340  15.135  66.150  1.00  0.00    -0.346 A  
HETATM    8  C   UNL     1      -9.846  13.834  65.970  1.00  0.00    -0.298 A  
HETATM    9  C   UNL     1     -10.961  13.612  65.160  1.00  0.00    -0.330 A  
HETATM   10  C   UNL     1     -11.571  14.708  64.540  1.00  0.00    -0.370 A  
HETATM   11  H   UNL     1     -13.073  15.268  63.309  1.00  0.00     0.000 HD 
HETATM   12  C   UNL     1     -11.098  16.002  64.718  1.00  0.00    -0.378 A  
HETATM   13  C   UNL     1      -9.978  16.215  65.522  1.00  0.00    -0.251 A  
HETATM   14  O   UNL     1     -12.659  14.524  63.729  1.00  0.00    -0.825 OA 
BRANCH   9  15
HETATM   15  O   UNL     1     -11.536  12.398  64.887  1.00  0.00    -0.313 OA 
HETATM   16  C   UNL     1     -10.646  11.302  64.707  1.00  0.00    -0.312 C  
ENDBRANCH   9  15
ENDBRANCH   6   7
ENDBRANCH   5   6
ENDBRANCH   4   5
ENDBRANCH   3   4
ENDBRANCH   2   3
TORSDOF 6
ENDMDL
MODEL       92
REMARK 921   NORMALIZED FREE ENERGY PREDICTED BY IDOCK:   -3.87 KCAL/MOL
REMARK 922        TOTAL FREE ENERGY PREDICTED BY IDOCK:   -5.54 KCAL/MOL
REMARK 923 INTER-LIGAND FREE ENERGY PREDICTED BY IDOCK:   -4.89 KCAL/MOL
REMARK 924 INTRA-LIGAND FREE ENERGY PREDICTED BY IDOCK:   -0.65 KCAL/MOL
REMARK 927      BINDING AFFINITY PREDICTED BY RF-SCORE:    0.00 PKD
ROOT
HETATM    1  C   UNL     1      -7.800  15.616  69.403  1.00  0.00    -0.222 C  
HETATM    2  C   UNL     1      -7.771  16.875  68.551  1.00  0.00    -0.227 C  
ENDROOT
BRANCH   2   3
HETATM    3  C   UNL     1      -8.875  16.862  67.498  1.00  0.00    -0.213 C  
BRANCH   3   4
HETATM    4  C   UNL     1     -10.138  17.549  68.004  1.00  0.00    -0.332 C  
BRANCH   4   5
HETATM    5  O   UNL     1     -11.248  16.688  67.752  1.00  0.00    -0.222 OA 
BRANCH   5   6
HETATM    6  C   UNL     1     -11.615  15.958  68.920  1.00  0.00    -0.388 C  
BRANCH   6   7
HETATM    7  C   UNL     1     -11.668  14.487  68.594  1.00  0.00    -0.364 A  
HETATM    8  C   UNL     1     -11.684  13.534  69.631  1.00  0.00    -0.378 A  
HETATM    9  C   UNL     1     -11.671  12.169  69.339  1.00  0.00    -0.329 A  
HETATM   10  C   UNL     1     -11.652  11.767  67.999  1.00  0.00    -0.316 A  
HETATM   11  H   UNL     1     -11.613  10.163  66.769  1.00  0.00     0.000 HD 
HETATM   12  C   UNL     1     -11.651  12.691  66.961  1.00  0.00    -0.431 A  
HETATM   13  C   UNL     1     -11.656  14.053  67.260  1.00  0.00    -0.396 A  
HETATM   14  O   UNL     1     -11.626  10.436  67.679  1.00  0.00    -0.383 OA 
BRANCH   9  15
HETATM   15  O   UNL     1     -11.664  11.145  70.251  1.00  0.00    -0.311 OA 
HETATM   16  C   UNL     1     -12.867  10.938  70.981  1.00  0.00    -0.376 C  
ENDBRANCH   9  15
ENDBRANCH   6   7
ENDBRANCH   5   6
ENDBRANCH   4   5
ENDBRANCH   3   4
ENDBRANCH   2   3
TORSDOF 6
ENDMDL
MODEL       93
REMARK 921   NORMALIZED FREE ENERGY PREDICTED BY IDOCK:   -3.87 KCAL/MOL
REMARK 922        TOTAL FREE ENERGY PREDICTED BY IDOCK:   -5.54 KCAL/MOL
REMARK 923 INTER-LIGAND FREE ENERGY PREDICTED BY IDOCK:   -5.23 KCAL/MOL
REMARK 924 INTRA-LIGAND FREE ENERGY PREDICTED BY IDOCK:   -0.31 KCAL/MOL
REMARK 927      BINDING AFFINITY PREDICTED BY RF-SCORE:    0.00 PKD
ROOT
HETATM    1  C   UNL     1      -6.501  15.194  67.866  1.00  0.00    -0.176 C  
HETATM    2  C   UNL     1      -7.604  16.237  67.790  1.00  0.00    -0.151 C  
ENDROOT
BRANCH   2   3
HETATM    3  C   UNL     1      -8.425  16.089  66.512  1.00  0.00    -0.348 C  
BRANCH   3   4
HETATM    4  C   UNL     1      -9.901  15.864  66.817  1.00  0.00    -0.244 C  
BRANCH   4   5
HETATM    5  O   UNL     1     -10.001  15.176  68.063  1.00  0.00    -0.219 OA 
BRANCH   5   6
HETATM    6  C   UNL     1     -11.021  14.180  68.027  1.00  0.00    -0.255 C  
BRANCH   6   7
HETATM    7  C   UNL     1     -11.726  14.138  69.359  1.00  0.00    -0.361 A  
HETATM    8  C   UNL     1     -12.006  12.902  69.972  1.00  0.00    -0.380 A  
HETATM    9  C   UNL     1     -12.711  12.851  71.175  1.00  0.00    -0.276 A  
HETATM   10  C   UNL     1     -13.127  14.050  71.763  1.00  0.00    -0.370 A  
HETATM   11  H   UNL     1     -14.114  14.849  73.336  1.00  0.00     0.000 HD 
HETATM   12  C   UNL     1     -12.847  15.281  71.183  1.00  0.00    -0.494 A  
HETATM   13  C   UNL     1     -12.149  15.325  69.977  1.00  0.00    -0.386 A  
HETATM   14  O   UNL     1     -13.832  14.034  72.937  1.00  0.00    -0.657 OA 
BRANCH   9  15
HETATM   15  O   UNL     1     -13.065  11.716  71.859  1.00  0.00    -0.478 OA 
HETATM   16  C   UNL     1     -12.564  10.486  71.349  1.00  0.00    -0.434 C  
ENDBRANCH   9  15
ENDBRANCH   6   7
ENDBRANCH   5   6
ENDBRANCH   4   5
ENDBRANCH   3   4
ENDBRANCH   2   3
TORSDOF 6
ENDMDL
MODEL       94
REMARK 921   NORMALIZED FREE ENERGY PREDICTED BY IDOCK:   -3.86 KCAL/MOL
REMARK 922        TOTAL FREE ENERGY PREDICTED BY IDOCK:   -5.53 KCAL/MOL
REMARK 923 INTER-LIGAND FREE ENERGY PREDICTED BY IDOCK:   -5.21 KCAL/MOL
REMARK 924 INTRA-LIGAND FREE ENERGY PREDICTED BY IDOCK:   -0.32 KCAL/MOL
REMARK 927      BINDING AFFINITY PREDICTED BY RF-SCORE:    0.00 PKD
ROOT
HETATM    1  C   UNL     1      -9.537  19.407  68.237  1.00  0.00    -0.454 C  
HETATM    2  C   UNL     1      -9.605  19.044  66.762  1.00  0.00    -0.374 C  
ENDROOT
BRANCH   2   3
HETATM    3  C   UNL     1      -9.265  17.575  66.532  1.00  0.00    -0.286 C  
BRANCH   3   4
HETATM    4  C   UNL     1     -10.475  16.791  66.037  1.00  0.00    -0.293 C  
BRANCH   4   5
HETATM    5  O   UNL     1     -10.610  15.621  66.841  1.00  0.00    -0.303 OA 
BRANCH   5   6
HETATM    6  C   UNL     1     -11.506  15.837  67.929  1.00  0.00    -0.221 C  
BRANCH   6   7
HETATM    7  C   UNL     1     -11.671  14.554  68.704  1.00  0.00    -0.364 A  
HETATM    8  C   UNL     1     -11.683  13.319  68.030  1.00  0.00    -0.394 A  
HETATM    9  C   UNL     1     -11.896  12.131  68.731  1.00  0.00    -0.303 A  
HETATM   10  C   UNL     1     -12.086  12.192  70.116  1.00  0.00    -0.290 A  
HETATM   11  H   UNL     1     -12.439  11.087  71.772  1.00  0.00     0.000 HD 
HETATM   12  C   UNL     1     -12.061  13.399  70.803  1.00  0.00    -0.333 A  
HETATM   13  C   UNL     1     -11.857  14.583  70.095  1.00  0.00    -0.371 A  
HETATM   14  O   UNL     1     -12.310  11.046  70.832  1.00  0.00    -0.350 OA 
BRANCH   9  15
HETATM   15  O   UNL     1     -11.952  10.871  68.193  1.00  0.00    -0.581 OA 
HETATM   16  C   UNL     1     -10.840  10.470  67.401  1.00  0.00    -0.291 C  
ENDBRANCH   9  15
ENDBRANCH   6   7
ENDBRANCH   5   6
ENDBRANCH   4   5
ENDBRANCH   3   4
ENDBRANCH   2   3
TORSDOF 6
ENDMDL
MODEL       95
REMARK 921   NORMALIZED FREE ENERGY PREDICTED BY IDOCK:   -3.86 KCAL/MOL
REMARK 922        TOTAL FREE ENERGY PREDICTED BY IDOCK:   -5.53 KCAL/MOL
REMARK 923 INTER-LIGAND FREE ENERGY PREDICTED BY IDOCK:   -5.25 KCAL/MOL
REMARK 924 INTRA-LIGAND FREE ENERGY PREDICTED BY IDOCK:   -0.28 KCAL/MOL
REMARK 927      BINDING AFFINITY PREDICTED BY RF-SCORE:    0.00 PKD
ROOT
HETATM    1  C   UNL     1      -8.177  20.123  66.754  1.00  0.00    -0.351 C  
HETATM    2  C   UNL     1      -9.655  20.469  66.840  1.00  0.00    -0.496 C  
ENDROOT
BRANCH   2   3
HETATM    3  C   UNL     1     -10.509  19.459  66.080  1.00  0.00    -0.600 C  
BRANCH   3   4
HETATM    4  C   UNL     1     -10.325  18.047  66.625  1.00  0.00    -0.371 C  
BRANCH   4   5
HETATM    5  O   UNL     1     -10.301  17.142  65.523  1.00  0.00    -0.599 OA 
BRANCH   5   6
HETATM    6  C   UNL     1      -9.398  16.063  65.755  1.00  0.00    -0.215 C  
BRANCH   6   7
HETATM    7  C   UNL     1     -10.123  14.947  66.465  1.00  0.00    -0.279 A  
HETATM    8  C   UNL     1      -9.426  14.103  67.350  1.00  0.00    -0.220 A  
HETATM    9  C   UNL     1     -10.074  13.031  67.965  1.00  0.00    -0.235 A  
HETATM   10  C   UNL     1     -11.430  12.818  67.691  1.00  0.00    -0.334 A  
HETATM   11  H   UNL     1     -13.013  11.622  68.083  1.00  0.00     0.000 HD 
HETATM   12  C   UNL     1     -12.139  13.648  66.833  1.00  0.00    -0.431 A  
HETATM   13  C   UNL     1     -11.483  14.712  66.216  1.00  0.00    -0.351 A  
HETATM   14  O   UNL     1     -12.092  11.767  68.268  1.00  0.00    -0.525 OA 
BRANCH   9  15
HETATM   15  O   UNL     1      -9.507  12.127  68.827  1.00  0.00    -0.090 OA 
HETATM   16  C   UNL     1      -8.434  11.348  68.311  1.00  0.00    -0.154 C  
ENDBRANCH   9  15
ENDBRANCH   6   7
ENDBRANCH   5   6
ENDBRANCH   4   5
ENDBRANCH   3   4
ENDBRANCH   2   3
TORSDOF 6
ENDMDL
MODEL       96
REMARK 921   NORMALIZED FREE ENERGY PREDICTED BY IDOCK:   -3.85 KCAL/MOL
REMARK 922        TOTAL FREE ENERGY PREDICTED BY IDOCK:   -5.52 KCAL/MOL
REMARK 923 INTER-LIGAND FREE ENERGY PREDICTED BY IDOCK:   -5.17 KCAL/MOL
REMARK 924 INTRA-LIGAND FREE ENERGY PREDICTED BY IDOCK:   -0.35 KCAL/MOL
REMARK 927      BINDING AFFINITY PREDICTED BY RF-SCORE:    0.00 PKD
ROOT
HETATM    1  C   UNL     1     -10.061   7.469  69.645  1.00  0.00    -0.189 C  
HETATM    2  C   UNL     1     -10.633   8.825  69.265  1.00  0.00    -0.210 C  
ENDROOT
BRANCH   2   3
HETATM    3  C   UNL     1      -9.660   9.953  69.594  1.00  0.00    -0.249 C  
BRANCH   3   4
HETATM    4  C   UNL     1      -8.705  10.224  68.437  1.00  0.00    -0.129 C  
BRANCH   4   5
HETATM    5  O   UNL     1      -9.419  10.928  67.422  1.00  0.00    -0.155 OA 
BRANCH   5   6
HETATM    6  C   UNL     1      -9.713  12.264  67.825  1.00  0.00    -0.199 C  
BRANCH   6   7
HETATM    7  C   UNL     1     -10.477  12.960  66.727  1.00  0.00    -0.262 A  
HETATM    8  C   UNL     1     -10.096  14.250  66.310  1.00  0.00    -0.308 A  
HETATM    9  C   UNL     1     -10.834  14.927  65.337  1.00  0.00    -0.369 A  
HETATM   10  C   UNL     1     -11.951  14.296  64.780  1.00  0.00    -0.440 A  
HETATM   11  H   UNL     1     -13.463  14.510  63.454  1.00  0.00     0.000 HD 
HETATM   12  C   UNL     1     -12.335  13.018  65.167  1.00  0.00    -0.536 A  
HETATM   13  C   UNL     1     -11.599  12.351  66.145  1.00  0.00    -0.452 A  
HETATM   14  O   UNL     1     -12.704  14.938  63.833  1.00  0.00    -0.789 OA 
BRANCH   9  15
HETATM   15  O   UNL     1     -10.582  16.188  64.861  1.00  0.00    -0.622 OA 
HETATM   16  C   UNL     1     -10.498  17.226  65.831  1.00  0.00    -0.262 C  
ENDBRANCH   9  15
ENDBRANCH   6   7
ENDBRANCH   5   6
ENDBRANCH   4   5
ENDBRANCH   3   4
ENDBRANCH   2   3
TORSDOF 6
ENDMDL
MODEL       97
REMARK 921   NORMALIZED FREE ENERGY PREDICTED BY IDOCK:   -3.85 KCAL/MOL
REMARK 922        TOTAL FREE ENERGY PREDICTED BY IDOCK:   -5.51 KCAL/MOL
REMARK 923 INTER-LIGAND FREE ENERGY PREDICTED BY IDOCK:   -5.21 KCAL/MOL
REMARK 924 INTRA-LIGAND FREE ENERGY PREDICTED BY IDOCK:   -0.30 KCAL/MOL
REMARK 927      BINDING AFFINITY PREDICTED BY RF-SCORE:    0.00 PKD
ROOT
HETATM    1  C   UNL     1      -9.966  19.804  69.149  1.00  0.00    -0.391 C  
HETATM    2  C   UNL     1      -9.465  19.972  67.723  1.00  0.00    -0.486 C  
ENDROOT
BRANCH   2   3
HETATM    3  C   UNL     1      -9.169  18.623  67.074  1.00  0.00    -0.295 C  
BRANCH   3   4
HETATM    4  C   UNL     1     -10.179  18.294  65.981  1.00  0.00    -0.323 C  
BRANCH   4   5
HETATM    5  O   UNL     1     -10.835  17.076  66.330  1.00  0.00    -0.143 OA 
BRANCH   5   6
HETATM    6  C   UNL     1     -10.315  15.974  65.590  1.00  0.00    -0.392 C  
BRANCH   6   7
HETATM    7  C   UNL     1     -10.726  14.685  66.256  1.00  0.00    -0.316 A  
HETATM    8  C   UNL     1     -10.389  13.449  65.673  1.00  0.00    -0.295 A  
HETATM    9  C   UNL     1     -10.817  12.253  66.250  1.00  0.00    -0.278 A  
HETATM   10  C   UNL     1     -11.579  12.306  67.422  1.00  0.00    -0.355 A  
HETATM   11  H   UNL     1     -12.543  11.187  68.803  1.00  0.00     0.000 HD 
HETATM   12  C   UNL     1     -11.910  13.514  68.022  1.00  0.00    -0.400 A  
HETATM   13  C   UNL     1     -11.486  14.706  67.436  1.00  0.00    -0.384 A  
HETATM   14  O   UNL     1     -12.026  11.151  68.006  1.00  0.00    -0.625 OA 
BRANCH   9  15
HETATM   15  O   UNL     1     -10.575  10.990  65.772  1.00  0.00    -0.247 OA 
HETATM   16  C   UNL     1      -9.675  10.890  64.675  1.00  0.00    -0.280 C  
ENDBRANCH   9  15
ENDBRANCH   6   7
ENDBRANCH   5   6
ENDBRANCH   4   5
ENDBRANCH   3   4
ENDBRANCH   2   3
TORSDOF 6
ENDMDL
MODEL       98
REMARK 921   NORMALIZED FREE ENERGY PREDICTED BY IDOCK:   -3.84 KCAL/MOL
REMARK 922        TOTAL FREE ENERGY PREDICTED BY IDOCK:   -5.50 KCAL/MOL
REMARK 923 INTER-LIGAND FREE ENERGY PREDICTED BY IDOCK:   -4.92 KCAL/MOL
REMARK 924 INTRA-LIGAND FREE ENERGY PREDICTED BY IDOCK:   -0.58 KCAL/MOL
REMARK 927      BINDING AFFINITY PREDICTED BY RF-SCORE:    0.00 PKD
ROOT
HETATM    1  C   UNL     1     -11.579  12.692  69.214  1.00  0.00    -0.376 C  
HETATM    2  C   UNL     1     -11.989  13.095  67.806  1.00  0.00    -0.352 C  
ENDROOT
BRANCH   2   3
HETATM    3  C   UNL     1     -10.907  12.746  66.789  1.00  0.00    -0.289 C  
BRANCH   3   4
HETATM    4  C   UNL     1     -11.108  13.498  65.478  1.00  0.00    -0.294 C  
BRANCH   4   5
HETATM    5  O   UNL     1     -11.555  14.818  65.783  1.00  0.00    -0.347 OA 
BRANCH   5   6
HETATM    6  C   UNL     1     -10.584  15.795  65.413  1.00  0.00    -0.421 C  
BRANCH   6   7
HETATM    7  C   UNL     1     -10.472  16.827  66.507  1.00  0.00    -0.258 A  
HETATM    8  C   UNL     1     -10.002  18.121  66.211  1.00  0.00    -0.342 A  
HETATM    9  C   UNL     1      -9.837  19.064  67.226  1.00  0.00    -0.326 A  
HETATM   10  C   UNL     1     -10.157  18.702  68.539  1.00  0.00    -0.382 A  
HETATM   11  H   UNL     1     -10.212  19.355  70.452  1.00  0.00     0.000 HD 
HETATM   12  C   UNL     1     -10.637  17.436  68.850  1.00  0.00    -0.243 A  
HETATM   13  C   UNL     1     -10.791  16.496  67.832  1.00  0.00    -0.326 A  
HETATM   14  O   UNL     1      -9.994  19.600  69.560  1.00  0.00    -0.342 OA 
BRANCH   9  15
HETATM   15  O   UNL     1      -9.370  20.345  67.075  1.00  0.00    -0.381 OA 
HETATM   16  C   UNL     1      -7.961  20.493  66.943  1.00  0.00    -0.239 C  
ENDBRANCH   9  15
ENDBRANCH   6   7
ENDBRANCH   5   6
ENDBRANCH   4   5
ENDBRANCH   3   4
ENDBRANCH   2   3
TORSDOF 6
ENDMDL
MODEL       99
REMARK 921   NORMALIZED FREE ENERGY PREDICTED BY IDOCK:   -3.83 KCAL/MOL
REMARK 922        TOTAL FREE ENERGY PREDICTED BY IDOCK:   -5.49 KCAL/MOL
REMARK 923 INTER-LIGAND FREE ENERGY PREDICTED BY IDOCK:   -5.13 KCAL/MOL
REMARK 924 INTRA-LIGAND FREE ENERGY PREDICTED BY IDOCK:   -0.35 KCAL/MOL
REMARK 927      BINDING AFFINITY PREDICTED BY RF-SCORE:    0.00 PKD
ROOT
HETATM    1  C   UNL     1      -9.970   5.645  71.768  1.00  0.00    -0.222 C  
HETATM    2  C   UNL     1      -9.392   6.980  71.330  1.00  0.00    -0.160 C  
ENDROOT
BRANCH   2   3
HETATM    3  C   UNL     1     -10.476   7.907  70.787  1.00  0.00    -0.218 C  
BRANCH   3   4
HETATM    4  C   UNL     1      -9.974   8.721  69.600  1.00  0.00    -0.191 C  
BRANCH   4   5
HETATM    5  O   UNL     1     -10.118  10.105  69.914  1.00  0.00    -0.244 OA 
BRANCH   5   6
HETATM    6  C   UNL     1     -11.182  10.699  69.174  1.00  0.00    -0.265 C  
BRANCH   6   7
HETATM    7  C   UNL     1     -11.938  11.654  70.063  1.00  0.00    -0.429 A  
HETATM    8  C   UNL     1     -11.945  13.032  69.776  1.00  0.00    -0.377 A  
HETATM    9  C   UNL     1     -12.590  13.931  70.626  1.00  0.00    -0.335 A  
HETATM   10  C   UNL     1     -13.238  13.434  71.763  1.00  0.00    -0.407 A  
HETATM   11  H   UNL     1     -14.310  13.954  73.396  1.00  0.00     0.000 HD 
HETATM   12  C   UNL     1     -13.257  12.077  72.056  1.00  0.00    -0.481 A  
HETATM   13  C   UNL     1     -12.603  11.186  71.207  1.00  0.00    -0.503 A  
HETATM   14  O   UNL     1     -13.870  14.291  72.625  1.00  0.00    -0.558 OA 
BRANCH   9  15
HETATM   15  O   UNL     1     -12.652  15.292  70.471  1.00  0.00    -0.365 OA 
HETATM   16  C   UNL     1     -11.409  15.969  70.324  1.00  0.00    -0.382 C  
ENDBRANCH   9  15
ENDBRANCH   6   7
ENDBRANCH   5   6
ENDBRANCH   4   5
ENDBRANCH   3   4
ENDBRANCH   2   3
TORSDOF 6
ENDMDL
MODEL      100
REMARK 921   NORMALIZED FREE ENERGY PREDICTED BY IDOCK:   -3.83 KCAL/MOL
REMARK 922        TOTAL FREE ENERGY PREDICTED BY IDOCK:   -5.48 KCAL/MOL
REMARK 923 INTER-LIGAND FREE ENERGY PREDICTED BY IDOCK:   -5.13 KCAL/MOL
REMARK 924 INTRA-LIGAND FREE ENERGY PREDICTED BY IDOCK:   -0.35 KCAL/MOL
REMARK 927      BINDING AFFINITY PREDICTED BY RF-SCORE:    0.00 PKD
ROOT
HETATM    1  C   UNL     1     -11.423  16.074  69.713  1.00  0.00    -0.318 C  
HETATM    2  C   UNL     1     -12.534  15.443  70.538  1.00  0.00    -0.468 C  
ENDROOT
BRANCH   2   3
HETATM    3  C   UNL     1     -12.250  13.970  70.820  1.00  0.00    -0.438 C  
BRANCH   3   4
HETATM    4  C   UNL     1     -11.737  13.251  69.578  1.00  0.00    -0.322 C  
BRANCH   4   5
HETATM    5  O   UNL     1     -11.828  11.845  69.805  1.00  0.00    -0.309 OA 
BRANCH   5   6
HETATM    6  C   UNL     1     -12.598  11.555  70.969  1.00  0.00    -0.357 C  
BRANCH   6   7
HETATM    7  C   UNL     1     -12.456  10.093  71.311  1.00  0.00    -0.510 A  
HETATM    8  C   UNL     1     -11.180   9.501  71.366  1.00  0.00    -0.452 A  
HETATM    9  C   UNL     1     -11.042   8.136  71.621  1.00  0.00    -0.255 A  
HETATM   10  C   UNL     1     -12.194   7.371  71.831  1.00  0.00    -0.310 A  
HETATM   11  H   UNL     1     -12.876   5.506  72.214  1.00  0.00     0.000 HD 
HETATM   12  C   UNL     1     -13.462   7.938  71.796  1.00  0.00    -0.379 A  
HETATM   13  C   UNL     1     -13.593   9.301  71.532  1.00  0.00    -0.412 A  
HETATM   14  O   UNL     1     -12.094   6.026  72.071  1.00  0.00    -0.280 OA 
BRANCH   9  15
HETATM   15  O   UNL     1      -9.863   7.438  71.680  1.00  0.00    -0.166 OA 
HETATM   16  C   UNL     1      -9.161   7.276  70.452  1.00  0.00    -0.158 C  
ENDBRANCH   9  15
ENDBRANCH   6   7
ENDBRANCH   5   6
ENDBRANCH   4   5
ENDBRANCH   3   4
ENDBRANCH   2   3
TORSDOF 6
ENDMDL
MODEL      101
REMARK 921   NORMALIZED FREE ENERGY PREDICTED BY IDOCK:   -3.81 KCAL/MOL
REMARK 922        TOTAL FREE ENERGY PREDICTED BY IDOCK:   -5.46 KCAL/MOL
REMARK 923 INTER-LIGAND FREE ENERGY PREDICTED BY IDOCK:   -4.87 KCAL/MOL
REMARK 924 INTRA-LIGAND FREE ENERGY PREDICTED BY IDOCK:   -0.59 KCAL/MOL
REMARK 927      BINDING AFFINITY PREDICTED BY RF-SCORE:    0.00 PKD
ROOT
HETATM    1  C   UNL     1     -10.277   5.180  70.013  1.00  0.00    -0.354 C  
HETATM    2  C   UNL     1     -10.515   6.419  70.862  1.00  0.00    -0.275 C  
ENDROOT
BRANCH   2   3
HETATM    3  C   UNL     1     -11.989   6.815  70.868  1.00  0.00    -0.437 C  
BRANCH   3   4
HETATM    4  C   UNL     1     -12.309   7.763  72.018  1.00  0.00    -0.294 C  
BRANCH   4   5
HETATM    5  O   UNL     1     -11.427   8.881  71.936  1.00  0.00    -0.333 OA 
BRANCH   5   6
HETATM    6  C   UNL     1     -12.097  10.036  71.434  1.00  0.00    -0.407 C  
BRANCH   6   7
HETATM    7  C   UNL     1     -11.445  10.471  70.146  1.00  0.00    -0.405 A  
HETATM    8  C   UNL     1     -12.080  11.416  69.317  1.00  0.00    -0.356 A  
HETATM    9  C   UNL     1     -11.514  11.780  68.094  1.00  0.00    -0.316 A  
HETATM   10  C   UNL     1     -10.302  11.194  67.713  1.00  0.00    -0.187 A  
HETATM   11  H   UNL     1      -8.903  11.123  66.255  1.00  0.00     0.000 HD 
HETATM   12  C   UNL     1      -9.651  10.272  68.523  1.00  0.00    -0.165 A  
HETATM   13  C   UNL     1     -10.226   9.907  69.740  1.00  0.00    -0.278 A  
HETATM   14  O   UNL     1      -9.727  11.520  66.514  1.00  0.00    -0.195 OA 
BRANCH   9  15
HETATM   15  O   UNL     1     -12.039  12.667  67.190  1.00  0.00    -0.466 OA 
HETATM   16  C   UNL     1     -11.897  14.048  67.503  1.00  0.00    -0.407 C  
ENDBRANCH   9  15
ENDBRANCH   6   7
ENDBRANCH   5   6
ENDBRANCH   4   5
ENDBRANCH   3   4
ENDBRANCH   2   3
TORSDOF 6
ENDMDL
MODEL      102
REMARK 921   NORMALIZED FREE ENERGY PREDICTED BY IDOCK:   -3.80 KCAL/MOL
REMARK 922        TOTAL FREE ENERGY PREDICTED BY IDOCK:   -5.45 KCAL/MOL
REMARK 923 INTER-LIGAND FREE ENERGY PREDICTED BY IDOCK:   -4.75 KCAL/MOL
REMARK 924 INTRA-LIGAND FREE ENERGY PREDICTED BY IDOCK:   -0.70 KCAL/MOL
REMARK 927      BINDING AFFINITY PREDICTED BY RF-SCORE:    0.00 PKD
ROOT
HETATM    1  C   UNL     1     -10.173  11.007  64.701  1.00  0.00    -0.392 C  
HETATM    2  C   UNL     1     -10.393  12.076  63.643  1.00  0.00    -0.482 C  
ENDROOT
BRANCH   2   3
HETATM    3  C   UNL     1     -11.879  12.354  63.432  1.00  0.00    -0.571 C  
BRANCH   3   4
HETATM    4  C   UNL     1     -12.615  12.498  64.758  1.00  0.00    -0.413 C  
BRANCH   4   5
HETATM    5  O   UNL     1     -12.715  13.888  65.066  1.00  0.00    -0.635 OA 
BRANCH   5   6
HETATM    6  C   UNL     1     -12.386  14.144  66.430  1.00  0.00    -0.400 C  
BRANCH   6   7
HETATM    7  C   UNL     1     -10.945  14.580  66.522  1.00  0.00    -0.321 A  
HETATM    8  C   UNL     1     -10.176  14.241  67.652  1.00  0.00    -0.237 A  
HETATM    9  C   UNL     1      -8.861  14.691  67.775  1.00  0.00    -0.177 A  
HETATM   10  C   UNL     1      -8.319  15.476  66.751  1.00  0.00    -0.265 A  
HETATM   11  H   UNL     1      -6.668  16.476  66.151  1.00  0.00     0.000 HD 
HETATM   12  C   UNL     1      -9.056  15.808  65.621  1.00  0.00    -0.008 A  
HETATM   13  C   UNL     1     -10.372  15.362  65.508  1.00  0.00    -0.412 A  
HETATM   14  O   UNL     1      -7.036  15.944  66.847  1.00  0.00    -0.198 OA 
BRANCH   9  15
HETATM   15  O   UNL     1      -8.017  14.450  68.829  1.00  0.00    -0.138 OA 
HETATM   16  C   UNL     1      -7.160  13.321  68.709  1.00  0.00    -0.100 C  
ENDBRANCH   9  15
ENDBRANCH   6   7
ENDBRANCH   5   6
ENDBRANCH   4   5
ENDBRANCH   3   4
ENDBRANCH   2   3
TORSDOF 6
ENDMDL
MODEL      103
REMARK 921   NORMALIZED FREE ENERGY PREDICTED BY IDOCK:   -3.80 KCAL/MOL
REMARK 922        TOTAL FREE ENERGY PREDICTED BY IDOCK:   -5.45 KCAL/MOL
REMARK 923 INTER-LIGAND FREE ENERGY PREDICTED BY IDOCK:   -5.07 KCAL/MOL
REMARK 924 INTRA-LIGAND FREE ENERGY PREDICTED BY IDOCK:   -0.38 KCAL/MOL
REMARK 927      BINDING AFFINITY PREDICTED BY RF-SCORE:    0.00 PKD
ROOT
HETATM    1  C   UNL     1      -5.980  18.823  67.143  1.00  0.00    -0.167 C  
HETATM    2  C   UNL     1      -6.946  18.606  68.297  1.00  0.00    -0.262 C  
ENDROOT
BRANCH   2   3
HETATM    3  C   UNL     1      -8.098  17.688  67.895  1.00  0.00    -0.233 C  
BRANCH   3   4
HETATM    4  C   UNL     1      -8.573  17.975  66.475  1.00  0.00    -0.258 C  
BRANCH   4   5
HETATM    5  O   UNL     1      -8.995  16.746  65.888  1.00  0.00    -0.497 OA 
BRANCH   5   6
HETATM    6  C   UNL     1     -10.406  16.570  66.004  1.00  0.00    -0.345 C  
BRANCH   6   7
HETATM    7  C   UNL     1     -10.703  15.139  66.374  1.00  0.00    -0.317 A  
HETATM    8  C   UNL     1     -11.387  14.303  65.471  1.00  0.00    -0.325 A  
HETATM    9  C   UNL     1     -11.719  12.996  65.827  1.00  0.00    -0.382 A  
HETATM   10  C   UNL     1     -11.353  12.530  67.095  1.00  0.00    -0.324 A  
HETATM   11  H   UNL     1     -11.426  10.940  68.341  1.00  0.00     0.000 HD 
HETATM   12  C   UNL     1     -10.664  13.333  67.995  1.00  0.00    -0.254 A  
HETATM   13  C   UNL     1     -10.342  14.641  67.635  1.00  0.00    -0.233 A  
HETATM   14  O   UNL     1     -11.675  11.256  67.481  1.00  0.00    -0.574 OA 
BRANCH   9  15
HETATM   15  O   UNL     1     -12.399  12.092  65.052  1.00  0.00    -0.454 OA 
HETATM   16  C   UNL     1     -12.614  12.458  63.694  1.00  0.00    -0.443 C  
ENDBRANCH   9  15
ENDBRANCH   6   7
ENDBRANCH   5   6
ENDBRANCH   4   5
ENDBRANCH   3   4
ENDBRANCH   2   3
TORSDOF 6
ENDMDL
MODEL      104
REMARK 921   NORMALIZED FREE ENERGY PREDICTED BY IDOCK:   -3.80 KCAL/MOL
REMARK 922        TOTAL FREE ENERGY PREDICTED BY IDOCK:   -5.44 KCAL/MOL
REMARK 923 INTER-LIGAND FREE ENERGY PREDICTED BY IDOCK:   -4.55 KCAL/MOL
REMARK 924 INTRA-LIGAND FREE ENERGY PREDICTED BY IDOCK:   -0.90 KCAL/MOL
REMARK 927      BINDING AFFINITY PREDICTED BY RF-SCORE:    0.00 PKD
ROOT
HETATM    1  C   UNL     1      -6.924  17.370  66.313  1.00  0.00    -0.319 C  
HETATM    2  C   UNL     1      -6.636  18.613  67.141  1.00  0.00    -0.204 C  
ENDROOT
BRANCH   2   3
HETATM    3  C   UNL     1      -7.041  19.883  66.398  1.00  0.00    -0.260 C  
BRANCH   3   4
HETATM    4  C   UNL     1      -8.372  20.428  66.905  1.00  0.00    -0.246 C  
BRANCH   4   5
HETATM    5  O   UNL     1      -9.417  19.857  66.122  1.00  0.00    -0.394 OA 
BRANCH   5   6
HETATM    6  C   UNL     1     -10.544  19.514  66.926  1.00  0.00    -0.490 C  
BRANCH   6   7
HETATM    7  C   UNL     1     -10.428  18.075  67.363  1.00  0.00    -0.399 A  
HETATM    8  C   UNL     1     -10.775  17.038  66.476  1.00  0.00    -0.073 A  
HETATM    9  C   UNL     1     -10.729  15.706  66.891  1.00  0.00    -0.307 A  
HETATM   10  C   UNL     1     -10.323  15.423  68.199  1.00  0.00    -0.239 A  
HETATM   11  H   UNL     1     -10.003  13.934  69.530  1.00  0.00     0.000 HD 
HETATM   12  C   UNL     1      -9.961  16.430  69.085  1.00  0.00    -0.273 A  
HETATM   13  C   UNL     1     -10.017  17.759  68.667  1.00  0.00    -0.379 A  
HETATM   14  O   UNL     1     -10.279  14.127  68.641  1.00  0.00    -0.234 OA 
BRANCH   9  15
HETATM   15  O   UNL     1     -11.060  14.611  66.136  1.00  0.00    -0.323 OA 
HETATM   16  C   UNL     1     -10.455  14.521  64.851  1.00  0.00    -0.409 C  
ENDBRANCH   9  15
ENDBRANCH   6   7
ENDBRANCH   5   6
ENDBRANCH   4   5
ENDBRANCH   3   4
ENDBRANCH   2   3
TORSDOF 6
ENDMDL
MODEL      105
REMARK 921   NORMALIZED FREE ENERGY PREDICTED BY IDOCK:   -3.79 KCAL/MOL
REMARK 922        TOTAL FREE ENERGY PREDICTED BY IDOCK:   -5.43 KCAL/MOL
REMARK 923 INTER-LIGAND FREE ENERGY PREDICTED BY IDOCK:   -4.79 KCAL/MOL
REMARK 924 INTRA-LIGAND FREE ENERGY PREDICTED BY IDOCK:   -0.64 KCAL/MOL
REMARK 927      BINDING AFFINITY PREDICTED BY RF-SCORE:    0.00 PKD
ROOT
HETATM    1  C   UNL     1      -9.936   7.818  70.546  1.00  0.00    -0.187 C  
HETATM    2  C   UNL     1     -11.336   7.853  71.140  1.00  0.00    -0.289 C  
ENDROOT
BRANCH   2   3
HETATM    3  C   UNL     1     -11.604   9.173  71.857  1.00  0.00    -0.430 C  
BRANCH   3   4
HETATM    4  C   UNL     1     -13.050   9.621  71.683  1.00  0.00    -0.412 C  
BRANCH   4   5
HETATM    5  O   UNL     1     -13.136  10.406  70.495  1.00  0.00    -0.328 OA 
BRANCH   5   6
HETATM    6  C   UNL     1     -12.123  11.410  70.460  1.00  0.00    -0.394 C  
BRANCH   6   7
HETATM    7  C   UNL     1     -11.738  11.682  69.028  1.00  0.00    -0.388 A  
HETATM    8  C   UNL     1     -11.063  10.700  68.279  1.00  0.00    -0.334 A  
HETATM    9  C   UNL     1     -10.649  10.964  66.973  1.00  0.00    -0.257 A  
HETATM   10  C   UNL     1     -10.926  12.220  66.420  1.00  0.00    -0.287 A  
HETATM   11  H   UNL     1     -10.711  13.367  64.770  1.00  0.00     0.000 HD 
HETATM   12  C   UNL     1     -11.605  13.197  67.136  1.00  0.00    -0.410 A  
HETATM   13  C   UNL     1     -12.009  12.929  68.444  1.00  0.00    -0.289 A  
HETATM   14  O   UNL     1     -10.523  12.516  65.146  1.00  0.00    -0.280 OA 
BRANCH   9  15
HETATM   15  O   UNL     1      -9.967  10.106  66.149  1.00  0.00    -0.220 OA 
HETATM   16  C   UNL     1      -9.948   8.737  66.537  1.00  0.00    -0.290 C  
ENDBRANCH   9  15
ENDBRANCH   6   7
ENDBRANCH   5   6
ENDBRANCH   4   5
ENDBRANCH   3   4
ENDBRANCH   2   3
TORSDOF 6
ENDMDL
MODEL      106
REMARK 921   NORMALIZED FREE ENERGY PREDICTED BY IDOCK:   -3.78 KCAL/MOL
REMARK 922        TOTAL FREE ENERGY PREDICTED BY IDOCK:   -5.42 KCAL/MOL
REMARK 923 INTER-LIGAND FREE ENERGY PREDICTED BY IDOCK:   -5.02 KCAL/MOL
REMARK 924 INTRA-LIGAND FREE ENERGY PREDICTED BY IDOCK:   -0.40 KCAL/MOL
REMARK 927      BINDING AFFINITY PREDICTED BY RF-SCORE:    0.00 PKD
ROOT
HETATM    1  C   UNL     1      -9.130  18.417  68.055  1.00  0.00    -0.308 C  
HETATM    2  C   UNL     1     -10.106  17.977  66.976  1.00  0.00    -0.348 C  
ENDROOT
BRANCH   2   3
HETATM    3  C   UNL     1     -10.477  16.504  67.127  1.00  0.00    -0.300 C  
BRANCH   3   4
HETATM    4  C   UNL     1     -10.514  15.794  65.779  1.00  0.00    -0.367 C  
BRANCH   4   5
HETATM    5  O   UNL     1     -11.479  14.747  65.850  1.00  0.00    -0.351 OA 
BRANCH   5   6
HETATM    6  C   UNL     1     -11.930  14.544  67.188  1.00  0.00    -0.345 C  
BRANCH   6   7
HETATM    7  C   UNL     1     -11.671  13.114  67.592  1.00  0.00    -0.414 A  
HETATM    8  C   UNL     1     -11.813  12.724  68.937  1.00  0.00    -0.351 A  
HETATM    9  C   UNL     1     -11.517  11.418  69.331  1.00  0.00    -0.310 A  
HETATM   10  C   UNL     1     -11.086  10.504  68.362  1.00  0.00    -0.281 A  
HETATM   11  H   UNL     1     -10.483   8.598  68.061  1.00  0.00     0.000 HD 
HETATM   12  C   UNL     1     -10.954  10.865  67.028  1.00  0.00    -0.310 A  
HETATM   13  C   UNL     1     -11.243  12.174  66.642  1.00  0.00    -0.375 A  
HETATM   14  O   UNL     1     -10.775   9.219  68.718  1.00  0.00    -0.217 OA 
BRANCH   9  15
HETATM   15  O   UNL     1     -11.594  10.919  70.606  1.00  0.00    -0.328 OA 
HETATM   16  C   UNL     1     -12.899  10.779  71.154  1.00  0.00    -0.414 C  
ENDBRANCH   9  15
ENDBRANCH   6   7
ENDBRANCH   5   6
ENDBRANCH   4   5
ENDBRANCH   3   4
ENDBRANCH   2   3
TORSDOF 6
ENDMDL
MODEL      107
REMARK 921   NORMALIZED FREE ENERGY PREDICTED BY IDOCK:   -3.77 KCAL/MOL
REMARK 922        TOTAL FREE ENERGY PREDICTED BY IDOCK:   -5.40 KCAL/MOL
REMARK 923 INTER-LIGAND FREE ENERGY PREDICTED BY IDOCK:   -4.78 KCAL/MOL
REMARK 924 INTRA-LIGAND FREE ENERGY PREDICTED BY IDOCK:   -0.62 KCAL/MOL
REMARK 927      BINDING AFFINITY PREDICTED BY RF-SCORE:    0.00 PKD
ROOT
HETATM    1  C   UNL     1      -8.641  15.873  66.774  1.00  0.00    -0.301 C  
HETATM    2  C   UNL     1      -9.469  16.988  66.154  1.00  0.00    -0.253 C  
ENDROOT
BRANCH   2   3
HETATM    3  C   UNL     1     -10.685  16.436  65.416  1.00  0.00    -0.310 C  
BRANCH   3   4
HETATM    4  C   UNL     1     -10.488  14.975  65.027  1.00  0.00    -0.386 C  
BRANCH   4   5
HETATM    5  O   UNL     1     -11.537  14.209  65.617  1.00  0.00    -0.325 OA 
BRANCH   5   6
HETATM    6  C   UNL     1     -11.044  12.992  66.173  1.00  0.00    -0.287 C  
BRANCH   6   7
HETATM    7  C   UNL     1     -11.473  12.891  67.615  1.00  0.00    -0.383 A  
HETATM    8  C   UNL     1     -11.619  11.629  68.222  1.00  0.00    -0.378 A  
HETATM    9  C   UNL     1     -12.074  11.523  69.537  1.00  0.00    -0.284 A  
HETATM   10  C   UNL     1     -12.373  12.694  70.242  1.00  0.00    -0.195 A  
HETATM   11  H   UNL     1     -13.036  13.419  72.009  1.00  0.00     0.000 HD 
HETATM   12  C   UNL     1     -12.221  13.949  69.667  1.00  0.00    -0.374 A  
HETATM   13  C   UNL     1     -11.774  14.048  68.350  1.00  0.00    -0.389 A  
HETATM   14  O   UNL     1     -12.833  12.624  71.530  1.00  0.00    -0.357 OA 
BRANCH   9  15
HETATM   15  O   UNL     1     -12.278  10.359  70.233  1.00  0.00    -0.284 OA 
HETATM   16  C   UNL     1     -11.142   9.521  70.413  1.00  0.00    -0.277 C  
ENDBRANCH   9  15
ENDBRANCH   6   7
ENDBRANCH   5   6
ENDBRANCH   4   5
ENDBRANCH   3   4
ENDBRANCH   2   3
TORSDOF 6
ENDMDL
MODEL      108
REMARK 921   NORMALIZED FREE ENERGY PREDICTED BY IDOCK:   -3.76 KCAL/MOL
REMARK 922        TOTAL FREE ENERGY PREDICTED BY IDOCK:   -5.39 KCAL/MOL
REMARK 923 INTER-LIGAND FREE ENERGY PREDICTED BY IDOCK:   -5.10 KCAL/MOL
REMARK 924 INTRA-LIGAND FREE ENERGY PREDICTED BY IDOCK:   -0.30 KCAL/MOL
REMARK 927      BINDING AFFINITY PREDICTED BY RF-SCORE:    0.00 PKD
ROOT
HETATM    1  C   UNL     1     -10.915   8.246  71.964  1.00  0.00    -0.374 C  
HETATM    2  C   UNL     1     -10.804   9.347  70.922  1.00  0.00    -0.392 C  
ENDROOT
BRANCH   2   3
HETATM    3  C   UNL     1     -12.105  10.136  70.802  1.00  0.00    -0.438 C  
BRANCH   3   4
HETATM    4  C   UNL     1     -11.925  11.388  69.952  1.00  0.00    -0.359 C  
BRANCH   4   5
HETATM    5  O   UNL     1     -12.514  11.151  68.675  1.00  0.00    -0.463 OA 
BRANCH   5   6
HETATM    6  C   UNL     1     -11.520  10.934  67.675  1.00  0.00    -0.200 C  
BRANCH   6   7
HETATM    7  C   UNL     1     -11.248  12.229  66.951  1.00  0.00    -0.367 A  
HETATM    8  C   UNL     1     -10.095  12.979  67.254  1.00  0.00    -0.235 A  
HETATM    9  C   UNL     1      -9.865  14.207  66.634  1.00  0.00    -0.283 A  
HETATM   10  C   UNL     1     -10.797  14.674  65.700  1.00  0.00    -0.331 A  
HETATM   11  H   UNL     1     -11.239  16.198  64.448  1.00  0.00     0.000 HD 
HETATM   12  C   UNL     1     -11.932  13.942  65.375  1.00  0.00    -0.393 A  
HETATM   13  C   UNL     1     -12.159  12.720  66.004  1.00  0.00    -0.458 A  
HETATM   14  O   UNL     1     -10.607  15.882  65.082  1.00  0.00    -0.426 OA 
BRANCH   9  15
HETATM   15  O   UNL     1      -8.799  15.040  66.855  1.00  0.00    -0.226 OA 
HETATM   16  C   UNL     1      -8.460  15.288  68.215  1.00  0.00    -0.154 C  
ENDBRANCH   9  15
ENDBRANCH   6   7
ENDBRANCH   5   6
ENDBRANCH   4   5
ENDBRANCH   3   4
ENDBRANCH   2   3
TORSDOF 6
ENDMDL
MODEL      109
REMARK 921   NORMALIZED FREE ENERGY PREDICTED BY IDOCK:   -3.75 KCAL/MOL
REMARK 922        TOTAL FREE ENERGY PREDICTED BY IDOCK:   -5.38 KCAL/MOL
REMARK 923 INTER-LIGAND FREE ENERGY PREDICTED BY IDOCK:   -5.14 KCAL/MOL
REMARK 924 INTRA-LIGAND FREE ENERGY PREDICTED BY IDOCK:   -0.24 KCAL/MOL
REMARK 927      BINDING AFFINITY PREDICTED BY RF-SCORE:    0.00 PKD
ROOT
HETATM    1  C   UNL     1      -8.584  15.494  66.693  1.00  0.00    -0.325 C  
HETATM    2  C   UNL     1      -9.826  15.363  65.826  1.00  0.00    -0.399 C  
ENDROOT
BRANCH   2   3
HETATM    3  C   UNL     1     -10.947  14.635  66.563  1.00  0.00    -0.318 C  
BRANCH   3   4
HETATM    4  C   UNL     1     -10.434  13.946  67.822  1.00  0.00    -0.243 C  
BRANCH   4   5
HETATM    5  O   UNL     1     -10.485  12.536  67.614  1.00  0.00    -0.213 OA 
BRANCH   5   6
HETATM    6  C   UNL     1     -11.740  11.995  68.021  1.00  0.00    -0.331 C  
BRANCH   6   7
HETATM    7  C   UNL     1     -11.525  11.047  69.174  1.00  0.00    -0.370 A  
HETATM    8  C   UNL     1     -12.521  10.895  70.157  1.00  0.00    -0.356 A  
HETATM    9  C   UNL     1     -12.307  10.066  71.260  1.00  0.00    -0.398 A  
HETATM   10  C   UNL     1     -11.089   9.385  71.364  1.00  0.00    -0.380 A  
HETATM   11  H   UNL     1     -10.016   8.112  72.511  1.00  0.00     0.000 HD 
HETATM   12  C   UNL     1     -10.100   9.510  70.397  1.00  0.00    -0.329 A  
HETATM   13  C   UNL     1     -10.317  10.345  69.302  1.00  0.00    -0.250 A  
HETATM   14  O   UNL     1     -10.843   8.575  72.440  1.00  0.00    -0.346 OA 
BRANCH   9  15
HETATM   15  O   UNL     1     -13.183   9.849  72.293  1.00  0.00    -0.431 OA 
HETATM   16  C   UNL     1     -14.150   8.823  72.098  1.00  0.00    -0.450 C  
ENDBRANCH   9  15
ENDBRANCH   6   7
ENDBRANCH   5   6
ENDBRANCH   4   5
ENDBRANCH   3   4
ENDBRANCH   2   3
TORSDOF 6
ENDMDL
MODEL      110
REMARK 921   NORMALIZED FREE ENERGY PREDICTED BY IDOCK:   -3.75 KCAL/MOL
REMARK 922        TOTAL FREE ENERGY PREDICTED BY IDOCK:   -5.38 KCAL/MOL
REMARK 923 INTER-LIGAND FREE ENERGY PREDICTED BY IDOCK:   -5.09 KCAL/MOL
REMARK 924 INTRA-LIGAND FREE ENERGY PREDICTED BY IDOCK:   -0.29 KCAL/MOL
REMARK 927      BINDING AFFINITY PREDICTED BY RF-SCORE:    0.00 PKD
ROOT
HETATM    1  C   UNL     1     -12.262   7.016  71.133  1.00  0.00    -0.427 C  
HETATM    2  C   UNL     1     -11.661   7.938  72.182  1.00  0.00    -0.380 C  
ENDROOT
BRANCH   2   3
HETATM    3  C   UNL     1     -10.799   9.023  71.542  1.00  0.00    -0.416 C  
BRANCH   3   4
HETATM    4  C   UNL     1     -11.653  10.136  70.944  1.00  0.00    -0.372 C  
BRANCH   4   5
HETATM    5  O   UNL     1     -11.044  10.562  69.727  1.00  0.00    -0.254 OA 
BRANCH   5   6
HETATM    6  C   UNL     1     -11.619  11.779  69.256  1.00  0.00    -0.315 C  
BRANCH   6   7
HETATM    7  C   UNL     1     -11.412  11.885  67.766  1.00  0.00    -0.389 A  
HETATM    8  C   UNL     1     -10.681  10.896  67.082  1.00  0.00    -0.320 A  
HETATM    9  C   UNL     1     -10.433  11.017  65.714  1.00  0.00    -0.228 A  
HETATM   10  C   UNL     1     -10.933  12.133  65.035  1.00  0.00    -0.309 A  
HETATM   11  H   UNL     1     -11.037  13.046  63.234  1.00  0.00     0.000 HD 
HETATM   12  C   UNL     1     -11.671  13.113  65.688  1.00  0.00    -0.402 A  
HETATM   13  C   UNL     1     -11.908  12.990  67.056  1.00  0.00    -0.437 A  
HETATM   14  O   UNL     1     -10.697  12.288  63.695  1.00  0.00    -0.403 OA 
BRANCH   9  15
HETATM   15  O   UNL     1      -9.719  10.139  64.939  1.00  0.00    -0.287 OA 
HETATM   16  C   UNL     1      -8.323  10.055  65.198  1.00  0.00    -0.153 C  
ENDBRANCH   9  15
ENDBRANCH   6   7
ENDBRANCH   5   6
ENDBRANCH   4   5
ENDBRANCH   3   4
ENDBRANCH   2   3
TORSDOF 6
ENDMDL
MODEL      111
REMARK 921   NORMALIZED FREE ENERGY PREDICTED BY IDOCK:   -3.74 KCAL/MOL
REMARK 922        TOTAL FREE ENERGY PREDICTED BY IDOCK:   -5.37 KCAL/MOL
REMARK 923 INTER-LIGAND FREE ENERGY PREDICTED BY IDOCK:   -4.81 KCAL/MOL
REMARK 924 INTRA-LIGAND FREE ENERGY PREDICTED BY IDOCK:   -0.56 KCAL/MOL
REMARK 927      BINDING AFFINITY PREDICTED BY RF-SCORE:    0.00 PKD
ROOT
HETATM    1  C   UNL     1     -11.970  13.890  66.815  1.00  0.00    -0.472 C  
HETATM    2  C   UNL     1     -12.430  13.859  65.366  1.00  0.00    -0.528 C  
ENDROOT
BRANCH   2   3
HETATM    3  C   UNL     1     -11.938  12.605  64.651  1.00  0.00    -0.463 C  
BRANCH   3   4
HETATM    4  C   UNL     1     -10.478  12.736  64.230  1.00  0.00    -0.399 C  
BRANCH   4   5
HETATM    5  O   UNL     1      -9.701  11.845  65.027  1.00  0.00    -0.232 OA 
BRANCH   5   6
HETATM    6  C   UNL     1     -10.148  10.498  64.889  1.00  0.00    -0.333 C  
BRANCH   6   7
HETATM    7  C   UNL     1     -10.245   9.860  66.252  1.00  0.00    -0.282 A  
HETATM    8  C   UNL     1     -10.535  10.649  67.381  1.00  0.00    -0.280 A  
HETATM    9  C   UNL     1     -10.567  10.079  68.655  1.00  0.00    -0.212 A  
HETATM   10  C   UNL     1     -10.314   8.709  68.785  1.00  0.00    -0.208 A  
HETATM   11  H   UNL     1     -10.154   7.191  70.111  1.00  0.00     0.000 HD 
HETATM   12  C   UNL     1     -10.041   7.910  67.682  1.00  0.00    -0.262 A  
HETATM   13  C   UNL     1     -10.003   8.487  66.414  1.00  0.00    -0.314 A  
HETATM   14  O   UNL     1     -10.325   8.121  70.022  1.00  0.00    -0.206 OA 
BRANCH   9  15
HETATM   15  O   UNL     1     -10.815  10.737  69.832  1.00  0.00    -0.261 OA 
HETATM   16  C   UNL     1     -12.155  11.164  70.049  1.00  0.00    -0.359 C  
ENDBRANCH   9  15
ENDBRANCH   6   7
ENDBRANCH   5   6
ENDBRANCH   4   5
ENDBRANCH   3   4
ENDBRANCH   2   3
TORSDOF 6
ENDMDL
MODEL      112
REMARK 921   NORMALIZED FREE ENERGY PREDICTED BY IDOCK:   -3.74 KCAL/MOL
REMARK 922        TOTAL FREE ENERGY PREDICTED BY IDOCK:   -5.36 KCAL/MOL
REMARK 923 INTER-LIGAND FREE ENERGY PREDICTED BY IDOCK:   -4.93 KCAL/MOL
REMARK 924 INTRA-LIGAND FREE ENERGY PREDICTED BY IDOCK:   -0.44 KCAL/MOL
REMARK 927      BINDING AFFINITY PREDICTED BY RF-SCORE:    0.00 PKD
ROOT
HETATM    1  C   UNL     1      -7.431  17.281  66.563  1.00  0.00    -0.315 C  
HETATM    2  C   UNL     1      -7.883  18.566  67.239  1.00  0.00    -0.240 C  
ENDROOT
BRANCH   2   3
HETATM    3  C   UNL     1      -9.391  18.761  67.116  1.00  0.00    -0.315 C  
BRANCH   3   4
HETATM    4  C   UNL     1     -10.071  18.740  68.480  1.00  0.00    -0.392 C  
BRANCH   4   5
HETATM    5  O   UNL     1     -10.288  17.380  68.851  1.00  0.00    -0.335 OA 
BRANCH   5   6
HETATM    6  C   UNL     1     -10.920  16.648  67.803  1.00  0.00    -0.234 C  
BRANCH   6   7
HETATM    7  C   UNL     1     -11.214  15.248  68.278  1.00  0.00    -0.318 A  
HETATM    8  C   UNL     1     -11.256  14.184  67.356  1.00  0.00    -0.334 A  
HETATM    9  C   UNL     1     -11.587  12.895  67.776  1.00  0.00    -0.343 A  
HETATM   10  C   UNL     1     -11.867  12.680  69.131  1.00  0.00    -0.297 A  
HETATM   11  H   UNL     1     -12.397  11.283  70.493  1.00  0.00     0.000 HD 
HETATM   12  C   UNL     1     -11.816  13.712  70.058  1.00  0.00    -0.378 A  
HETATM   13  C   UNL     1     -11.492  14.999  69.630  1.00  0.00    -0.321 A  
HETATM   14  O   UNL     1     -12.208  11.429  69.573  1.00  0.00    -0.296 OA 
BRANCH   9  15
HETATM   15  O   UNL     1     -11.684  11.783  66.980  1.00  0.00    -0.555 OA 
HETATM   16  C   UNL     1     -10.457  11.200  66.555  1.00  0.00    -0.255 C  
ENDBRANCH   9  15
ENDBRANCH   6   7
ENDBRANCH   5   6
ENDBRANCH   4   5
ENDBRANCH   3   4
ENDBRANCH   2   3
TORSDOF 6
ENDMDL
MODEL      113
REMARK 921   NORMALIZED FREE ENERGY PREDICTED BY IDOCK:   -3.72 KCAL/MOL
REMARK 922        TOTAL FREE ENERGY PREDICTED BY IDOCK:   -5.34 KCAL/MOL
REMARK 923 INTER-LIGAND FREE ENERGY PREDICTED BY IDOCK:   -5.02 KCAL/MOL
REMARK 924 INTRA-LIGAND FREE ENERGY PREDICTED BY IDOCK:   -0.32 KCAL/MOL
REMARK 927      BINDING AFFINITY PREDICTED BY RF-SCORE:    0.00 PKD
ROOT
HETATM    1  C   UNL     1     -10.607   5.452  66.443  1.00  0.00    -0.322 C  
HETATM    2  C   UNL     1     -11.019   6.301  67.635  1.00  0.00    -0.438 C  
ENDROOT
BRANCH   2   3
HETATM    3  C   UNL     1     -10.385   7.688  67.577  1.00  0.00    -0.326 C  
BRANCH   3   4
HETATM    4  C   UNL     1     -10.402   8.369  68.940  1.00  0.00    -0.215 C  
BRANCH   4   5
HETATM    5  O   UNL     1     -10.216   9.770  68.744  1.00  0.00    -0.179 OA 
BRANCH   5   6
HETATM    6  C   UNL     1     -10.985  10.247  67.642  1.00  0.00    -0.294 C  
BRANCH   6   7
HETATM    7  C   UNL     1     -11.311  11.705  67.853  1.00  0.00    -0.369 A  
HETATM    8  C   UNL     1     -11.181  12.619  66.790  1.00  0.00    -0.347 A  
HETATM    9  C   UNL     1     -11.421  13.979  66.992  1.00  0.00    -0.351 A  
HETATM   10  C   UNL     1     -11.802  14.413  68.266  1.00  0.00    -0.326 A  
HETATM   11  H   UNL     1     -12.291  16.038  69.365  1.00  0.00     0.000 HD 
HETATM   12  C   UNL     1     -11.951  13.526  69.324  1.00  0.00    -0.378 A  
HETATM   13  C   UNL     1     -11.701  12.170  69.118  1.00  0.00    -0.384 A  
HETATM   14  O   UNL     1     -12.032  15.743  68.500  1.00  0.00    -0.314 OA 
BRANCH   9  15
HETATM   15  O   UNL     1     -11.310  14.970  66.050  1.00  0.00    -0.338 OA 
HETATM   16  C   UNL     1     -11.860  14.690  64.768  1.00  0.00    -0.440 C  
ENDBRANCH   9  15
ENDBRANCH   6   7
ENDBRANCH   5   6
ENDBRANCH   4   5
ENDBRANCH   3   4
ENDBRANCH   2   3
TORSDOF 6
ENDMDL
MODEL      114
REMARK 921   NORMALIZED FREE ENERGY PREDICTED BY IDOCK:   -3.72 KCAL/MOL
REMARK 922        TOTAL FREE ENERGY PREDICTED BY IDOCK:   -5.34 KCAL/MOL
REMARK 923 INTER-LIGAND FREE ENERGY PREDICTED BY IDOCK:   -4.54 KCAL/MOL
REMARK 924 INTRA-LIGAND FREE ENERGY PREDICTED BY IDOCK:   -0.80 KCAL/MOL
REMARK 927      BINDING AFFINITY PREDICTED BY RF-SCORE:    0.00 PKD
ROOT
HETATM    1  C   UNL     1      -7.500  17.486  66.100  1.00  0.00    -0.334 C  
HETATM    2  C   UNL     1      -7.854  18.211  67.389  1.00  0.00    -0.222 C  
ENDROOT
BRANCH   2   3
HETATM    3  C   UNL     1      -9.212  18.901  67.285  1.00  0.00    -0.308 C  
BRANCH   3   4
HETATM    4  C   UNL     1     -10.033  18.713  68.556  1.00  0.00    -0.388 C  
BRANCH   4   5
HETATM    5  O   UNL     1     -10.067  17.322  68.865  1.00  0.00    -0.308 OA 
BRANCH   5   6
HETATM    6  C   UNL     1     -11.122  16.659  68.170  1.00  0.00    -0.285 C  
BRANCH   6   7
HETATM    7  C   UNL     1     -10.580  15.421  67.501  1.00  0.00    -0.283 A  
HETATM    8  C   UNL     1     -10.918  15.135  66.165  1.00  0.00    -0.331 A  
HETATM    9  C   UNL     1     -10.471  13.962  65.556  1.00  0.00    -0.323 A  
HETATM   10  C   UNL     1      -9.673  13.082  66.296  1.00  0.00    -0.263 A  
HETATM   11  H   UNL     1      -8.686  11.318  66.234  1.00  0.00     0.000 HD 
HETATM   12  C   UNL     1      -9.314  13.353  67.610  1.00  0.00    -0.217 A  
HETATM   13  C   UNL     1      -9.771  14.523  68.215  1.00  0.00    -0.218 A  
HETATM   14  O   UNL     1      -9.228  11.916  65.732  1.00  0.00    -0.201 OA 
BRANCH   9  15
HETATM   15  O   UNL     1     -10.746  13.557  64.275  1.00  0.00    -0.403 OA 
HETATM   16  C   UNL     1     -12.121  13.410  63.939  1.00  0.00    -0.455 C  
ENDBRANCH   9  15
ENDBRANCH   6   7
ENDBRANCH   5   6
ENDBRANCH   4   5
ENDBRANCH   3   4
ENDBRANCH   2   3
TORSDOF 6
ENDMDL
MODEL      115
REMARK 921   NORMALIZED FREE ENERGY PREDICTED BY IDOCK:   -3.72 KCAL/MOL
REMARK 922        TOTAL FREE ENERGY PREDICTED BY IDOCK:   -5.34 KCAL/MOL
REMARK 923 INTER-LIGAND FREE ENERGY PREDICTED BY IDOCK:   -4.54 KCAL/MOL
REMARK 924 INTRA-LIGAND FREE ENERGY PREDICTED BY IDOCK:   -0.79 KCAL/MOL
REMARK 927      BINDING AFFINITY PREDICTED BY RF-SCORE:    0.00 PKD
ROOT
HETATM    1  C   UNL     1      -8.508  12.820  67.257  1.00  0.00    -0.194 C  
HETATM    2  C   UNL     1      -9.999  12.519  67.249  1.00  0.00    -0.211 C  
ENDROOT
BRANCH   2   3
HETATM    3  C   UNL     1     -10.771  13.550  66.431  1.00  0.00    -0.287 C  
BRANCH   3   4
HETATM    4  C   UNL     1     -11.959  14.105  67.209  1.00  0.00    -0.414 C  
BRANCH   4   5
HETATM    5  O   UNL     1     -11.540  14.352  68.550  1.00  0.00    -0.281 OA 
BRANCH   5   6
HETATM    6  C   UNL     1     -11.778  15.706  68.930  1.00  0.00    -0.384 C  
BRANCH   6   7
HETATM    7  C   UNL     1     -10.520  16.512  68.723  1.00  0.00    -0.309 A  
HETATM    8  C   UNL     1     -10.585  17.776  68.107  1.00  0.00    -0.350 A  
HETATM    9  C   UNL     1      -9.420  18.503  67.856  1.00  0.00    -0.296 A  
HETATM   10  C   UNL     1      -8.190  17.955  68.237  1.00  0.00    -0.290 A  
HETATM   11  H   UNL     1      -6.193  18.265  68.253  1.00  0.00     0.000 HD 
HETATM   12  C   UNL     1      -8.106  16.716  68.860  1.00  0.00    -0.235 A  
HETATM   13  C   UNL     1      -9.273  15.992  69.100  1.00  0.00    -0.247 A  
HETATM   14  O   UNL     1      -7.028  18.636  67.994  1.00  0.00    -0.227 OA 
BRANCH   9  15
HETATM   15  O   UNL     1      -9.345  19.729  67.247  1.00  0.00    -0.317 OA 
HETATM   16  C   UNL     1     -10.152  19.911  66.089  1.00  0.00    -0.504 C  
ENDBRANCH   9  15
ENDBRANCH   6   7
ENDBRANCH   5   6
ENDBRANCH   4   5
ENDBRANCH   3   4
ENDBRANCH   2   3
TORSDOF 6
ENDMDL
MODEL      116
REMARK 921   NORMALIZED FREE ENERGY PREDICTED BY IDOCK:   -3.71 KCAL/MOL
REMARK 922        TOTAL FREE ENERGY PREDICTED BY IDOCK:   -5.33 KCAL/MOL
REMARK 923 INTER-LIGAND FREE ENERGY PREDICTED BY IDOCK:   -4.92 KCAL/MOL
REMARK 924 INTRA-LIGAND FREE ENERGY PREDICTED BY IDOCK:   -0.40 KCAL/MOL
REMARK 927      BINDING AFFINITY PREDICTED BY RF-SCORE:    0.00 PKD
ROOT
HETATM    1  C   UNL     1      -9.187  15.652  69.110  1.00  0.00    -0.254 C  
HETATM    2  C   UNL     1     -10.490  15.387  69.846  1.00  0.00    -0.310 C  
ENDROOT
BRANCH   2   3
HETATM    3  C   UNL     1     -11.634  15.114  68.875  1.00  0.00    -0.361 C  
BRANCH   3   4
HETATM    4  C   UNL     1     -11.202  15.322  67.428  1.00  0.00    -0.311 C  
BRANCH   4   5
HETATM    5  O   UNL     1     -12.090  14.589  66.585  1.00  0.00    -0.393 OA 
BRANCH   5   6
HETATM    6  C   UNL     1     -12.099  13.202  66.920  1.00  0.00    -0.316 C  
BRANCH   6   7
HETATM    7  C   UNL     1     -11.496  12.411  65.786  1.00  0.00    -0.416 A  
HETATM    8  C   UNL     1     -10.670  11.304  66.058  1.00  0.00    -0.301 A  
HETATM    9  C   UNL     1     -10.059  10.603  65.018  1.00  0.00    -0.321 A  
HETATM   10  C   UNL     1     -10.292  11.015  63.701  1.00  0.00    -0.352 A  
HETATM   11  H   UNL     1      -9.855  10.635  61.764  1.00  0.00     0.000 HD 
HETATM   12  C   UNL     1     -11.116  12.094  63.410  1.00  0.00    -0.495 A  
HETATM   13  C   UNL     1     -11.716  12.795  64.455  1.00  0.00    -0.426 A  
HETATM   14  O   UNL     1      -9.697  10.356  62.658  1.00  0.00    -0.298 OA 
BRANCH   9  15
HETATM   15  O   UNL     1      -9.219   9.526  65.149  1.00  0.00    -0.224 OA 
HETATM   16  C   UNL     1      -8.962   9.082  66.476  1.00  0.00    -0.146 C  
ENDBRANCH   9  15
ENDBRANCH   6   7
ENDBRANCH   5   6
ENDBRANCH   4   5
ENDBRANCH   3   4
ENDBRANCH   2   3
TORSDOF 6
ENDMDL
MODEL      117
REMARK 921   NORMALIZED FREE ENERGY PREDICTED BY IDOCK:   -3.71 KCAL/MOL
REMARK 922        TOTAL FREE ENERGY PREDICTED BY IDOCK:   -5.33 KCAL/MOL
REMARK 923 INTER-LIGAND FREE ENERGY PREDICTED BY IDOCK:   -4.79 KCAL/MOL
REMARK 924 INTRA-LIGAND FREE ENERGY PREDICTED BY IDOCK:   -0.54 KCAL/MOL
REMARK 927      BINDING AFFINITY PREDICTED BY RF-SCORE:    0.00 PKD
ROOT
HETATM    1  C   UNL     1     -10.084  19.256  68.578  1.00  0.00    -0.513 C  
HETATM    2  C   UNL     1     -10.071  20.302  67.475  1.00  0.00    -0.519 C  
ENDROOT
BRANCH   2   3
HETATM    3  C   UNL     1      -8.858  20.136  66.563  1.00  0.00    -0.370 C  
BRANCH   3   4
HETATM    4  C   UNL     1      -8.076  18.871  66.897  1.00  0.00    -0.265 C  
BRANCH   4   5
HETATM    5  O   UNL     1      -8.223  17.954  65.815  1.00  0.00    -0.530 OA 
BRANCH   5   6
HETATM    6  C   UNL     1      -7.568  16.717  66.087  1.00  0.00    -0.055 C  
BRANCH   6   7
HETATM    7  C   UNL     1      -8.544  15.767  66.735  1.00  0.00    -0.306 A  
HETATM    8  C   UNL     1      -9.740  15.425  66.076  1.00  0.00    -0.370 A  
HETATM    9  C   UNL     1     -10.677  14.595  66.693  1.00  0.00    -0.305 A  
HETATM   10  C   UNL     1     -10.400  14.102  67.973  1.00  0.00    -0.231 A  
HETATM   11  H   UNL     1     -11.115  12.960  69.480  1.00  0.00     0.000 HD 
HETATM   12  C   UNL     1      -9.218  14.414  68.634  1.00  0.00    -0.181 A  
HETATM   13  C   UNL     1      -8.291  15.251  68.015  1.00  0.00    -0.146 A  
HETATM   14  O   UNL     1     -11.304  13.295  68.612  1.00  0.00    -0.250 OA 
BRANCH   9  15
HETATM   15  O   UNL     1     -11.884  14.206  66.171  1.00  0.00    -0.374 OA 
HETATM   16  C   UNL     1     -11.861  13.672  64.852  1.00  0.00    -0.375 C  
ENDBRANCH   9  15
ENDBRANCH   6   7
ENDBRANCH   5   6
ENDBRANCH   4   5
ENDBRANCH   3   4
ENDBRANCH   2   3
TORSDOF 6
ENDMDL
MODEL      118
REMARK 921   NORMALIZED FREE ENERGY PREDICTED BY IDOCK:   -3.69 KCAL/MOL
REMARK 922        TOTAL FREE ENERGY PREDICTED BY IDOCK:   -5.31 KCAL/MOL
REMARK 923 INTER-LIGAND FREE ENERGY PREDICTED BY IDOCK:   -4.90 KCAL/MOL
REMARK 924 INTRA-LIGAND FREE ENERGY PREDICTED BY IDOCK:   -0.41 KCAL/MOL
REMARK 927      BINDING AFFINITY PREDICTED BY RF-SCORE:    0.00 PKD
ROOT
HETATM    1  C   UNL     1     -12.022  11.183  69.311  1.00  0.00    -0.421 C  
HETATM    2  C   UNL     1     -12.503  11.629  70.682  1.00  0.00    -0.386 C  
ENDROOT
BRANCH   2   3
HETATM    3  C   UNL     1     -12.752  10.437  71.601  1.00  0.00    -0.560 C  
BRANCH   3   4
HETATM    4  C   UNL     1     -11.527   9.534  71.693  1.00  0.00    -0.363 C  
BRANCH   4   5
HETATM    5  O   UNL     1     -11.876   8.383  72.460  1.00  0.00    -0.391 OA 
BRANCH   5   6
HETATM    6  C   UNL     1     -12.586   7.429  71.674  1.00  0.00    -0.358 C  
BRANCH   6   7
HETATM    7  C   UNL     1     -11.603   6.499  71.007  1.00  0.00    -0.405 A  
HETATM    8  C   UNL     1     -11.519   6.450  69.603  1.00  0.00    -0.446 A  
HETATM    9  C   UNL     1     -10.656   5.550  68.976  1.00  0.00    -0.201 A  
HETATM   10  C   UNL     1      -9.870   4.706  69.769  1.00  0.00    -0.226 A  
HETATM   11  H   UNL     1      -8.489   3.231  69.724  1.00  0.00     0.000 HD 
HETATM   12  C   UNL     1      -9.926   4.751  71.157  1.00  0.00    -0.273 A  
HETATM   13  C   UNL     1     -10.797   5.646  71.776  1.00  0.00    -0.301 A  
HETATM   14  O   UNL     1      -9.023   3.803  69.185  1.00  0.00    -0.095 OA 
BRANCH   9  15
HETATM   15  O   UNL     1     -10.496   5.388  67.623  1.00  0.00    -0.196 OA 
HETATM   16  C   UNL     1     -10.468   6.577  66.842  1.00  0.00    -0.277 C  
ENDBRANCH   9  15
ENDBRANCH   6   7
ENDBRANCH   5   6
ENDBRANCH   4   5
ENDBRANCH   3   4
ENDBRANCH   2   3
TORSDOF 6
ENDMDL
MODEL      119
REMARK 921   NORMALIZED FREE ENERGY PREDICTED BY IDOCK:   -3.69 KCAL/MOL
REMARK 922        TOTAL FREE ENERGY PREDICTED BY IDOCK:   -5.30 KCAL/MOL
REMARK 923 INTER-LIGAND FREE ENERGY PREDICTED BY IDOCK:   -4.90 KCAL/MOL
REMARK 924 INTRA-LIGAND FREE ENERGY PREDICTED BY IDOCK:   -0.40 KCAL/MOL
REMARK 927      BINDING AFFINITY PREDICTED BY RF-SCORE:    0.00 PKD
ROOT
HETATM    1  C   UNL     1      -6.837  17.750  66.832  1.00  0.00    -0.212 C  
HETATM    2  C   UNL     1      -7.823  18.772  66.289  1.00  0.00    -0.295 C  
ENDROOT
BRANCH   2   3
HETATM    3  C   UNL     1      -8.844  19.179  67.347  1.00  0.00    -0.324 C  
BRANCH   3   4
HETATM    4  C   UNL     1      -8.760  18.286  68.579  1.00  0.00    -0.308 C  
BRANCH   4   5
HETATM    5  O   UNL     1     -10.086  17.932  68.966  1.00  0.00    -0.359 OA 
BRANCH   5   6
HETATM    6  C   UNL     1     -10.764  17.232  67.925  1.00  0.00    -0.351 C  
BRANCH   6   7
HETATM    7  C   UNL     1     -11.189  15.876  68.428  1.00  0.00    -0.368 A  
HETATM    8  C   UNL     1     -11.775  15.747  69.701  1.00  0.00    -0.363 A  
HETATM    9  C   UNL     1     -12.117  14.489  70.201  1.00  0.00    -0.334 A  
HETATM   10  C   UNL     1     -11.874  13.362  69.408  1.00  0.00    -0.335 A  
HETATM   11  H   UNL     1     -12.022  11.347  69.335  1.00  0.00     0.000 HD 
HETATM   12  C   UNL     1     -11.312  13.468  68.142  1.00  0.00    -0.319 A  
HETATM   13  C   UNL     1     -10.966  14.727  67.653  1.00  0.00    -0.292 A  
HETATM   14  O   UNL     1     -12.186  12.112  69.873  1.00  0.00    -0.251 OA 
BRANCH   9  15
HETATM   15  O   UNL     1     -12.671  14.227  71.427  1.00  0.00    -0.314 OA 
HETATM   16  C   UNL     1     -13.982  14.733  71.652  1.00  0.00    -0.474 C  
ENDBRANCH   9  15
ENDBRANCH   6   7
ENDBRANCH   5   6
ENDBRANCH   4   5
ENDBRANCH   3   4
ENDBRANCH   2   3
TORSDOF 6
ENDMDL
MODEL      120
REMARK 921   NORMALIZED FREE ENERGY PREDICTED BY IDOCK:   -3.69 KCAL/MOL
REMARK 922        TOTAL FREE ENERGY PREDICTED BY IDOCK:   -5.30 KCAL/MOL
REMARK 923 INTER-LIGAND FREE ENERGY PREDICTED BY IDOCK:   -4.44 KCAL/MOL
REMARK 924 INTRA-LIGAND FREE ENERGY PREDICTED BY IDOCK:   -0.85 KCAL/MOL
REMARK 927      BINDING AFFINITY PREDICTED BY RF-SCORE:    0.00 PKD
ROOT
HETATM    1  C   UNL     1      -6.710  17.253  66.392  1.00  0.00    -0.289 C  
HETATM    2  C   UNL     1      -6.735  18.554  67.179  1.00  0.00    -0.207 C  
ENDROOT
BRANCH   2   3
HETATM    3  C   UNL     1      -7.068  19.742  66.281  1.00  0.00    -0.263 C  
BRANCH   3   4
HETATM    4  C   UNL     1      -8.448  20.309  66.592  1.00  0.00    -0.226 C  
BRANCH   4   5
HETATM    5  O   UNL     1      -9.397  19.670  65.740  1.00  0.00    -0.386 OA 
BRANCH   5   6
HETATM    6  C   UNL     1     -10.556  19.263  66.464  1.00  0.00    -0.446 C  
BRANCH   6   7
HETATM    7  C   UNL     1     -10.507  17.773  66.690  1.00  0.00    -0.300 A  
HETATM    8  C   UNL     1     -10.768  17.243  67.968  1.00  0.00    -0.367 A  
HETATM    9  C   UNL     1     -10.666  15.871  68.200  1.00  0.00    -0.302 A  
HETATM   10  C   UNL     1     -10.309  15.033  67.138  1.00  0.00    -0.257 A  
HETATM   11  H   UNL     1      -9.945  13.114  66.615  1.00  0.00     0.000 HD 
HETATM   12  C   UNL     1     -10.062  15.534  65.866  1.00  0.00    -0.374 A  
HETATM   13  C   UNL     1     -10.158  16.907  65.643  1.00  0.00    -0.175 A  
HETATM   14  O   UNL     1     -10.187  13.683  67.336  1.00  0.00    -0.238 OA 
BRANCH   9  15
HETATM   15  O   UNL     1     -10.872  15.234  69.397  1.00  0.00    -0.236 OA 
HETATM   16  C   UNL     1     -11.285  16.051  70.486  1.00  0.00    -0.378 C  
ENDBRANCH   9  15
ENDBRANCH   6   7
ENDBRANCH   5   6
ENDBRANCH   4   5
ENDBRANCH   3   4
ENDBRANCH   2   3
TORSDOF 6
ENDMDL
MODEL      121
REMARK 921   NORMALIZED FREE ENERGY PREDICTED BY IDOCK:   -3.66 KCAL/MOL
REMARK 922        TOTAL FREE ENERGY PREDICTED BY IDOCK:   -5.27 KCAL/MOL
REMARK 923 INTER-LIGAND FREE ENERGY PREDICTED BY IDOCK:   -4.76 KCAL/MOL
REMARK 924 INTRA-LIGAND FREE ENERGY PREDICTED BY IDOCK:   -0.50 KCAL/MOL
REMARK 927      BINDING AFFINITY PREDICTED BY RF-SCORE:    0.00 PKD
ROOT
HETATM    1  C   UNL     1     -11.949  13.203  63.386  1.00  0.00    -0.552 C  
HETATM    2  C   UNL     1     -11.974  14.382  64.346  1.00  0.00    -0.471 C  
ENDROOT
BRANCH   2   3
HETATM    3  C   UNL     1     -12.640  14.011  65.668  1.00  0.00    -0.542 C  
BRANCH   3   4
HETATM    4  C   UNL     1     -11.929  12.844  66.344  1.00  0.00    -0.395 C  
BRANCH   4   5
HETATM    5  O   UNL     1     -10.793  13.354  67.040  1.00  0.00    -0.270 OA 
BRANCH   5   6
HETATM    6  C   UNL     1     -11.178  14.059  68.219  1.00  0.00    -0.268 C  
BRANCH   6   7
HETATM    7  C   UNL     1     -10.399  15.347  68.308  1.00  0.00    -0.238 A  
HETATM    8  C   UNL     1      -8.993  15.318  68.383  1.00  0.00    -0.184 A  
HETATM    9  C   UNL     1      -8.267  16.501  68.527  1.00  0.00    -0.212 A  
HETATM   10  C   UNL     1      -8.961  17.714  68.586  1.00  0.00    -0.261 A  
HETATM   11  H   UNL     1      -8.750  19.715  68.779  1.00  0.00     0.000 HD 
HETATM   12  C   UNL     1     -10.346  17.766  68.498  1.00  0.00    -0.366 A  
HETATM   13  C   UNL     1     -11.066  16.579  68.363  1.00  0.00    -0.333 A  
HETATM   14  O   UNL     1      -8.279  18.891  68.740  1.00  0.00    -0.344 OA 
BRANCH   9  15
HETATM   15  O   UNL     1      -6.904  16.607  68.632  1.00  0.00    -0.151 OA 
HETATM   16  C   UNL     1      -6.306  15.984  69.764  1.00  0.00    -0.177 C  
ENDBRANCH   9  15
ENDBRANCH   6   7
ENDBRANCH   5   6
ENDBRANCH   4   5
ENDBRANCH   3   4
ENDBRANCH   2   3
TORSDOF 6
ENDMDL
MODEL      122
REMARK 921   NORMALIZED FREE ENERGY PREDICTED BY IDOCK:   -3.66 KCAL/MOL
REMARK 922        TOTAL FREE ENERGY PREDICTED BY IDOCK:   -5.26 KCAL/MOL
REMARK 923 INTER-LIGAND FREE ENERGY PREDICTED BY IDOCK:   -4.87 KCAL/MOL
REMARK 924 INTRA-LIGAND FREE ENERGY PREDICTED BY IDOCK:   -0.39 KCAL/MOL
REMARK 927      BINDING AFFINITY PREDICTED BY RF-SCORE:    0.00 PKD
ROOT
HETATM    1  C   UNL     1     -10.970   6.623  67.457  1.00  0.00    -0.416 C  
HETATM    2  C   UNL     1     -10.361   7.318  68.664  1.00  0.00    -0.208 C  
ENDROOT
BRANCH   2   3
HETATM    3  C   UNL     1     -10.247   8.823  68.443  1.00  0.00    -0.228 C  
BRANCH   3   4
HETATM    4  C   UNL     1     -10.425   9.596  69.745  1.00  0.00    -0.238 C  
BRANCH   4   5
HETATM    5  O   UNL     1     -10.610  10.973  69.426  1.00  0.00    -0.223 OA 
BRANCH   5   6
HETATM    6  C   UNL     1     -11.720  11.160  68.550  1.00  0.00    -0.298 C  
BRANCH   6   7
HETATM    7  C   UNL     1     -11.459  12.348  67.658  1.00  0.00    -0.399 A  
HETATM    8  C   UNL     1     -11.963  12.368  66.344  1.00  0.00    -0.346 A  
HETATM    9  C   UNL     1     -11.675  13.434  65.491  1.00  0.00    -0.340 A  
HETATM   10  C   UNL     1     -10.886  14.485  65.970  1.00  0.00    -0.310 A  
HETATM   11  H   UNL     1     -10.039  16.254  65.479  1.00  0.00     0.000 HD 
HETATM   12  C   UNL     1     -10.392  14.492  67.268  1.00  0.00    -0.260 A  
HETATM   13  C   UNL     1     -10.676  13.420  68.112  1.00  0.00    -0.267 A  
HETATM   14  O   UNL     1     -10.574  15.541  65.154  1.00  0.00    -0.394 OA 
BRANCH   9  15
HETATM   15  O   UNL     1     -12.085  13.564  64.188  1.00  0.00    -0.420 OA 
HETATM   16  C   UNL     1     -12.112  12.372  63.411  1.00  0.00    -0.524 C  
ENDBRANCH   9  15
ENDBRANCH   6   7
ENDBRANCH   5   6
ENDBRANCH   4   5
ENDBRANCH   3   4
ENDBRANCH   2   3
TORSDOF 6
ENDMDL
MODEL      123
REMARK 921   NORMALIZED FREE ENERGY PREDICTED BY IDOCK:   -3.65 KCAL/MOL
REMARK 922        TOTAL FREE ENERGY PREDICTED BY IDOCK:   -5.25 KCAL/MOL
REMARK 923 INTER-LIGAND FREE ENERGY PREDICTED BY IDOCK:   -4.93 KCAL/MOL
REMARK 924 INTRA-LIGAND FREE ENERGY PREDICTED BY IDOCK:   -0.32 KCAL/MOL
REMARK 927      BINDING AFFINITY PREDICTED BY RF-SCORE:    0.00 PKD
ROOT
HETATM    1  C   UNL     1      -8.279  19.207  68.602  1.00  0.00    -0.404 C  
HETATM    2  C   UNL     1      -9.368  19.984  67.881  1.00  0.00    -0.438 C  
ENDROOT
BRANCH   2   3
HETATM    3  C   UNL     1      -9.670  19.381  66.512  1.00  0.00    -0.452 C  
BRANCH   3   4
HETATM    4  C   UNL     1      -8.876  18.102  66.276  1.00  0.00    -0.174 C  
BRANCH   4   5
HETATM    5  O   UNL     1      -9.732  17.154  65.641  1.00  0.00    -0.545 OA 
BRANCH   5   6
HETATM    6  C   UNL     1     -10.401  16.335  66.597  1.00  0.00    -0.302 C  
BRANCH   6   7
HETATM    7  C   UNL     1     -10.426  14.910  66.104  1.00  0.00    -0.313 A  
HETATM    8  C   UNL     1      -9.910  13.875  66.908  1.00  0.00    -0.268 A  
HETATM    9  C   UNL     1      -9.874  12.562  66.436  1.00  0.00    -0.253 A  
HETATM   10  C   UNL     1     -10.368  12.294  65.155  1.00  0.00    -0.286 A  
HETATM   11  H   UNL     1     -10.670  10.836  63.787  1.00  0.00     0.000 HD 
HETATM   12  C   UNL     1     -10.895  13.297  64.352  1.00  0.00    -0.422 A  
HETATM   13  C   UNL     1     -10.921  14.608  64.826  1.00  0.00    -0.399 A  
HETATM   14  O   UNL     1     -10.334  11.018  64.657  1.00  0.00    -0.309 OA 
BRANCH   9  15
HETATM   15  O   UNL     1      -9.380  11.473  67.107  1.00  0.00    -0.168 OA 
HETATM   16  C   UNL     1      -9.722  11.370  68.485  1.00  0.00    -0.197 C  
ENDBRANCH   9  15
ENDBRANCH   6   7
ENDBRANCH   5   6
ENDBRANCH   4   5
ENDBRANCH   3   4
ENDBRANCH   2   3
TORSDOF 6
ENDMDL
MODEL      124
REMARK 921   NORMALIZED FREE ENERGY PREDICTED BY IDOCK:   -3.64 KCAL/MOL
REMARK 922        TOTAL FREE ENERGY PREDICTED BY IDOCK:   -5.24 KCAL/MOL
REMARK 923 INTER-LIGAND FREE ENERGY PREDICTED BY IDOCK:   -4.96 KCAL/MOL
REMARK 924 INTRA-LIGAND FREE ENERGY PREDICTED BY IDOCK:   -0.28 KCAL/MOL
REMARK 927      BINDING AFFINITY PREDICTED BY RF-SCORE:    0.00 PKD
ROOT
HETATM    1  C   UNL     1     -12.225  14.057  70.258  1.00  0.00    -0.430 C  
HETATM    2  C   UNL     1     -12.946  14.175  71.592  1.00  0.00    -0.423 C  
ENDROOT
BRANCH   2   3
HETATM    3  C   UNL     1     -13.350  12.805  72.130  1.00  0.00    -0.593 C  
BRANCH   3   4
HETATM    4  C   UNL     1     -12.791  11.678  71.269  1.00  0.00    -0.328 C  
BRANCH   4   5
HETATM    5  O   UNL     1     -12.950  10.451  71.979  1.00  0.00    -0.445 OA 
BRANCH   5   6
HETATM    6  C   UNL     1     -13.074   9.346  71.087  1.00  0.00    -0.228 C  
BRANCH   6   7
HETATM    7  C   UNL     1     -12.202   8.214  71.569  1.00  0.00    -0.332 A  
HETATM    8  C   UNL     1     -11.299   8.420  72.629  1.00  0.00    -0.346 A  
HETATM    9  C   UNL     1     -10.444   7.397  73.041  1.00  0.00    -0.323 A  
HETATM   10  C   UNL     1     -10.509   6.161  72.388  1.00  0.00    -0.199 A  
HETATM   11  H   UNL     1      -9.720   4.301  72.316  1.00  0.00     0.000 HD 
HETATM   12  C   UNL     1     -11.404   5.932  71.350  1.00  0.00    -0.247 A  
HETATM   13  C   UNL     1     -12.249   6.961  70.938  1.00  0.00    -0.404 A  
HETATM   14  O   UNL     1      -9.676   5.140  72.759  1.00  0.00    -0.151 OA 
BRANCH   9  15
HETATM   15  O   UNL     1      -9.509   7.475  74.041  1.00  0.00    -0.263 OA 
HETATM   16  C   UNL     1      -8.327   8.210  73.746  1.00  0.00    -0.248 C  
ENDBRANCH   9  15
ENDBRANCH   6   7
ENDBRANCH   5   6
ENDBRANCH   4   5
ENDBRANCH   3   4
ENDBRANCH   2   3
TORSDOF 6
ENDMDL
MODEL      125
REMARK 921   NORMALIZED FREE ENERGY PREDICTED BY IDOCK:   -3.62 KCAL/MOL
REMARK 922        TOTAL FREE ENERGY PREDICTED BY IDOCK:   -5.21 KCAL/MOL
REMARK 923 INTER-LIGAND FREE ENERGY PREDICTED BY IDOCK:   -4.92 KCAL/MOL
REMARK 924 INTRA-LIGAND FREE ENERGY PREDICTED BY IDOCK:   -0.29 KCAL/MOL
REMARK 927      BINDING AFFINITY PREDICTED BY RF-SCORE:    0.00 PKD
ROOT
HETATM    1  C   UNL     1     -12.635  11.753  63.645  1.00  0.00    -0.458 C  
HETATM    2  C   UNL     1     -12.124  13.116  63.205  1.00  0.00    -0.460 C  
ENDROOT
BRANCH   2   3
HETATM    3  C   UNL     1     -11.839  14.018  64.403  1.00  0.00    -0.453 C  
BRANCH   3   4
HETATM    4  C   UNL     1     -10.568  13.596  65.131  1.00  0.00    -0.361 C  
BRANCH   4   5
HETATM    5  O   UNL     1     -10.841  13.569  66.530  1.00  0.00    -0.281 OA 
BRANCH   5   6
HETATM    6  C   UNL     1     -10.805  14.879  67.093  1.00  0.00    -0.311 C  
BRANCH   6   7
HETATM    7  C   UNL     1      -9.403  15.426  66.999  1.00  0.00    -0.238 A  
HETATM    8  C   UNL     1      -9.166  16.656  66.357  1.00  0.00    -0.318 A  
HETATM    9  C   UNL     1      -7.865  17.141  66.212  1.00  0.00    -0.316 A  
HETATM   10  C   UNL     1      -6.805  16.386  66.724  1.00  0.00    -0.148 A  
HETATM   11  H   UNL     1      -4.795  16.315  66.936  1.00  0.00     0.000 HD 
HETATM   12  C   UNL     1      -7.018  15.177  67.376  1.00  0.00    -0.195 A  
HETATM   13  C   UNL     1      -8.319  14.695  67.510  1.00  0.00    -0.203 A  
HETATM   14  O   UNL     1      -5.516  16.827  66.587  1.00  0.00    -0.317 OA 
BRANCH   9  15
HETATM   15  O   UNL     1      -7.500  18.307  65.591  1.00  0.00    -0.532 OA 
HETATM   16  C   UNL     1      -7.995  19.512  66.164  1.00  0.00    -0.330 C  
ENDBRANCH   9  15
ENDBRANCH   6   7
ENDBRANCH   5   6
ENDBRANCH   4   5
ENDBRANCH   3   4
ENDBRANCH   2   3
TORSDOF 6
ENDMDL
MODEL      126
REMARK 921   NORMALIZED FREE ENERGY PREDICTED BY IDOCK:   -3.62 KCAL/MOL
REMARK 922        TOTAL FREE ENERGY PREDICTED BY IDOCK:   -5.21 KCAL/MOL
REMARK 923 INTER-LIGAND FREE ENERGY PREDICTED BY IDOCK:   -4.58 KCAL/MOL
REMARK 924 INTRA-LIGAND FREE ENERGY PREDICTED BY IDOCK:   -0.63 KCAL/MOL
REMARK 927      BINDING AFFINITY PREDICTED BY RF-SCORE:    0.00 PKD
ROOT
HETATM    1  C   UNL     1      -7.909  10.532  69.195  1.00  0.00    -0.138 C  
HETATM    2  C   UNL     1      -8.157   9.255  69.981  1.00  0.00    -0.140 C  
ENDROOT
BRANCH   2   3
HETATM    3  C   UNL     1      -9.397   8.522  69.478  1.00  0.00    -0.161 C  
BRANCH   3   4
HETATM    4  C   UNL     1     -10.468   8.428  70.558  1.00  0.00    -0.207 C  
BRANCH   4   5
HETATM    5  O   UNL     1     -10.702   9.737  71.073  1.00  0.00    -0.324 OA 
BRANCH   5   6
HETATM    6  C   UNL     1     -12.033  10.172  70.805  1.00  0.00    -0.348 C  
BRANCH   6   7
HETATM    7  C   UNL     1     -11.993  11.384  69.908  1.00  0.00    -0.434 A  
HETATM    8  C   UNL     1     -11.785  11.230  68.524  1.00  0.00    -0.378 A  
HETATM    9  C   UNL     1     -11.686  12.348  67.694  1.00  0.00    -0.346 A  
HETATM   10  C   UNL     1     -11.805  13.621  68.262  1.00  0.00    -0.369 A  
HETATM   11  H   UNL     1     -11.780  15.603  67.863  1.00  0.00     0.000 HD 
HETATM   12  C   UNL     1     -12.025  13.794  69.623  1.00  0.00    -0.399 A  
HETATM   13  C   UNL     1     -12.116  12.673  70.447  1.00  0.00    -0.381 A  
HETATM   14  O   UNL     1     -11.699  14.738  67.477  1.00  0.00    -0.363 OA 
BRANCH   9  15
HETATM   15  O   UNL     1     -11.464  12.335  66.340  1.00  0.00    -0.340 OA 
HETATM   16  C   UNL     1     -10.652  11.279  65.841  1.00  0.00    -0.253 C  
ENDBRANCH   9  15
ENDBRANCH   6   7
ENDBRANCH   5   6
ENDBRANCH   4   5
ENDBRANCH   3   4
ENDBRANCH   2   3
TORSDOF 6
ENDMDL
MODEL      127
REMARK 921   NORMALIZED FREE ENERGY PREDICTED BY IDOCK:   -3.61 KCAL/MOL
REMARK 922        TOTAL FREE ENERGY PREDICTED BY IDOCK:   -5.19 KCAL/MOL
REMARK 923 INTER-LIGAND FREE ENERGY PREDICTED BY IDOCK:   -4.73 KCAL/MOL
REMARK 924 INTRA-LIGAND FREE ENERGY PREDICTED BY IDOCK:   -0.46 KCAL/MOL
REMARK 927      BINDING AFFINITY PREDICTED BY RF-SCORE:    0.00 PKD
ROOT
HETATM    1  C   UNL     1      -7.762   9.565  65.882  1.00  0.00    -0.100 C  
HETATM    2  C   UNL     1      -8.769   8.472  66.208  1.00  0.00    -0.164 C  
ENDROOT
BRANCH   2   3
HETATM    3  C   UNL     1     -10.142   9.056  66.526  1.00  0.00    -0.354 C  
BRANCH   3   4
HETATM    4  C   UNL     1     -10.044  10.514  66.961  1.00  0.00    -0.213 C  
BRANCH   4   5
HETATM    5  O   UNL     1     -11.173  10.814  67.779  1.00  0.00    -0.297 OA 
BRANCH   5   6
HETATM    6  C   UNL     1     -10.777  11.398  69.019  1.00  0.00    -0.205 C  
BRANCH   6   7
HETATM    7  C   UNL     1     -10.852  10.358  70.108  1.00  0.00    -0.333 A  
HETATM    8  C   UNL     1     -12.080  10.082  70.738  1.00  0.00    -0.418 A  
HETATM    9  C   UNL     1     -12.148   9.165  71.788  1.00  0.00    -0.376 A  
HETATM   10  C   UNL     1     -10.975   8.520  72.195  1.00  0.00    -0.357 A  
HETATM   11  H   UNL     1     -10.209   7.186  73.507  1.00  0.00     0.000 HD 
HETATM   12  C   UNL     1      -9.756   8.766  71.577  1.00  0.00    -0.361 A  
HETATM   13  C   UNL     1      -9.694   9.689  70.534  1.00  0.00    -0.280 A  
HETATM   14  O   UNL     1     -11.005   7.624  73.230  1.00  0.00    -0.400 OA 
BRANCH   9  15
HETATM   15  O   UNL     1     -13.273   8.825  72.495  1.00  0.00    -0.400 OA 
HETATM   16  C   UNL     1     -14.390   8.383  71.734  1.00  0.00    -0.472 C  
ENDBRANCH   9  15
ENDBRANCH   6   7
ENDBRANCH   5   6
ENDBRANCH   4   5
ENDBRANCH   3   4
ENDBRANCH   2   3
TORSDOF 6
ENDMDL
MODEL      128
REMARK 921   NORMALIZED FREE ENERGY PREDICTED BY IDOCK:   -3.59 KCAL/MOL
REMARK 922        TOTAL FREE ENERGY PREDICTED BY IDOCK:   -5.17 KCAL/MOL
REMARK 923 INTER-LIGAND FREE ENERGY PREDICTED BY IDOCK:   -4.83 KCAL/MOL
REMARK 924 INTRA-LIGAND FREE ENERGY PREDICTED BY IDOCK:   -0.34 KCAL/MOL
REMARK 927      BINDING AFFINITY PREDICTED BY RF-SCORE:    0.00 PKD
ROOT
HETATM    1  C   UNL     1      -8.242  16.544  66.320  1.00  0.00    -0.360 C  
HETATM    2  C   UNL     1      -9.594  17.054  66.793  1.00  0.00    -0.274 C  
ENDROOT
BRANCH   2   3
HETATM    3  C   UNL     1     -10.659  16.895  65.711  1.00  0.00    -0.238 C  
BRANCH   3   4
HETATM    4  C   UNL     1     -10.686  15.475  65.156  1.00  0.00    -0.440 C  
BRANCH   4   5
HETATM    5  O   UNL     1     -11.745  14.765  65.795  1.00  0.00    -0.336 OA 
BRANCH   5   6
HETATM    6  C   UNL     1     -12.349  13.824  64.910  1.00  0.00    -0.405 C  
BRANCH   6   7
HETATM    7  C   UNL     1     -11.507  12.574  64.859  1.00  0.00    -0.367 A  
HETATM    8  C   UNL     1     -11.104  11.944  66.052  1.00  0.00    -0.369 A  
HETATM    9  C   UNL     1     -10.274  10.822  66.016  1.00  0.00    -0.251 A  
HETATM   10  C   UNL     1      -9.859  10.331  64.773  1.00  0.00    -0.334 A  
HETATM   11  H   UNL     1      -8.753   8.907  63.860  1.00  0.00     0.000 HD 
HETATM   12  C   UNL     1     -10.258  10.929  63.584  1.00  0.00    -0.395 A  
HETATM   13  C   UNL     1     -11.080  12.054  63.627  1.00  0.00    -0.525 A  
HETATM   14  O   UNL     1      -9.035   9.240  64.704  1.00  0.00    -0.206 OA 
BRANCH   9  15
HETATM   15  O   UNL     1      -9.796  10.133  67.101  1.00  0.00    -0.173 OA 
HETATM   16  C   UNL     1      -9.075  10.891  68.065  1.00  0.00    -0.152 C  
ENDBRANCH   9  15
ENDBRANCH   6   7
ENDBRANCH   5   6
ENDBRANCH   4   5
ENDBRANCH   3   4
ENDBRANCH   2   3
TORSDOF 6
ENDMDL
MODEL      129
REMARK 921   NORMALIZED FREE ENERGY PREDICTED BY IDOCK:   -3.57 KCAL/MOL
REMARK 922        TOTAL FREE ENERGY PREDICTED BY IDOCK:   -5.14 KCAL/MOL
REMARK 923 INTER-LIGAND FREE ENERGY PREDICTED BY IDOCK:   -4.70 KCAL/MOL
REMARK 924 INTRA-LIGAND FREE ENERGY PREDICTED BY IDOCK:   -0.44 KCAL/MOL
REMARK 927      BINDING AFFINITY PREDICTED BY RF-SCORE:    0.00 PKD
ROOT
HETATM    1  C   UNL     1     -12.905  12.026  63.704  1.00  0.00    -0.472 C  
HETATM    2  C   UNL     1     -11.912  13.083  63.247  1.00  0.00    -0.493 C  
ENDROOT
BRANCH   2   3
HETATM    3  C   UNL     1     -10.782  13.260  64.257  1.00  0.00    -0.408 C  
BRANCH   3   4
HETATM    4  C   UNL     1     -10.708  12.085  65.226  1.00  0.00    -0.288 C  
BRANCH   4   5
HETATM    5  O   UNL     1      -9.715  12.377  66.208  1.00  0.00    -0.238 OA 
BRANCH   5   6
HETATM    6  C   UNL     1     -10.286  12.487  67.510  1.00  0.00    -0.217 C  
BRANCH   6   7
HETATM    7  C   UNL     1     -10.247  13.928  67.952  1.00  0.00    -0.241 A  
HETATM    8  C   UNL     1     -11.082  14.368  68.997  1.00  0.00    -0.282 A  
HETATM    9  C   UNL     1     -11.098  15.712  69.373  1.00  0.00    -0.303 A  
HETATM   10  C   UNL     1     -10.262  16.610  68.699  1.00  0.00    -0.284 A  
HETATM   11  H   UNL     1      -9.695  18.546  68.578  1.00  0.00     0.000 HD 
HETATM   12  C   UNL     1      -9.420  16.193  67.676  1.00  0.00    -0.220 A  
HETATM   13  C   UNL     1      -9.415  14.850  67.300  1.00  0.00    -0.216 A  
HETATM   14  O   UNL     1     -10.263  17.937  69.035  1.00  0.00    -0.378 OA 
BRANCH   9  15
HETATM   15  O   UNL     1     -11.876  16.270  70.355  1.00  0.00    -0.226 OA 
HETATM   16  C   UNL     1     -13.027  15.531  70.747  1.00  0.00    -0.434 C  
ENDBRANCH   9  15
ENDBRANCH   6   7
ENDBRANCH   5   6
ENDBRANCH   4   5
ENDBRANCH   3   4
ENDBRANCH   2   3
TORSDOF 6
ENDMDL
MODEL      130
REMARK 921   NORMALIZED FREE ENERGY PREDICTED BY IDOCK:   -3.56 KCAL/MOL
REMARK 922        TOTAL FREE ENERGY PREDICTED BY IDOCK:   -5.12 KCAL/MOL
REMARK 923 INTER-LIGAND FREE ENERGY PREDICTED BY IDOCK:   -4.74 KCAL/MOL
REMARK 924 INTRA-LIGAND FREE ENERGY PREDICTED BY IDOCK:   -0.39 KCAL/MOL
REMARK 927      BINDING AFFINITY PREDICTED BY RF-SCORE:    0.00 PKD
ROOT
HETATM    1  C   UNL     1     -12.506  12.515  63.724  1.00  0.00    -0.552 C  
HETATM    2  C   UNL     1     -11.006  12.353  63.915  1.00  0.00    -0.467 C  
ENDROOT
BRANCH   2   3
HETATM    3  C   UNL     1     -10.679  11.760  65.282  1.00  0.00    -0.338 C  
BRANCH   3   4
HETATM    4  C   UNL     1     -11.359  12.534  66.406  1.00  0.00    -0.329 C  
BRANCH   4   5
HETATM    5  O   UNL     1     -11.862  11.596  67.355  1.00  0.00    -0.603 OA 
BRANCH   5   6
HETATM    6  C   UNL     1     -10.898  11.311  68.367  1.00  0.00    -0.205 C  
BRANCH   6   7
HETATM    7  C   UNL     1     -10.872   9.827  68.630  1.00  0.00    -0.223 A  
HETATM    8  C   UNL     1     -11.217   9.328  69.900  1.00  0.00    -0.145 A  
HETATM    9  C   UNL     1     -11.137   7.961  70.171  1.00  0.00    -0.201 A  
HETATM   10  C   UNL     1     -10.717   7.097  69.153  1.00  0.00    -0.198 A  
HETATM   11  H   UNL     1     -10.332   5.165  68.699  1.00  0.00     0.000 HD 
HETATM   12  C   UNL     1     -10.388   7.567  67.888  1.00  0.00    -0.266 A  
HETATM   13  C   UNL     1     -10.462   8.935  67.627  1.00  0.00    -0.320 A  
HETATM   14  O   UNL     1     -10.616   5.752  69.390  1.00  0.00    -0.257 OA 
BRANCH   9  15
HETATM   15  O   UNL     1     -11.422   7.354  71.367  1.00  0.00    -0.251 OA 
HETATM   16  C   UNL     1     -12.800   7.194  71.683  1.00  0.00    -0.379 C  
ENDBRANCH   9  15
ENDBRANCH   6   7
ENDBRANCH   5   6
ENDBRANCH   4   5
ENDBRANCH   3   4
ENDBRANCH   2   3
TORSDOF 6
ENDMDL
MODEL      131
REMARK 921   NORMALIZED FREE ENERGY PREDICTED BY IDOCK:   -3.55 KCAL/MOL
REMARK 922        TOTAL FREE ENERGY PREDICTED BY IDOCK:   -5.12 KCAL/MOL
REMARK 923 INTER-LIGAND FREE ENERGY PREDICTED BY IDOCK:   -4.75 KCAL/MOL
REMARK 924 INTRA-LIGAND FREE ENERGY PREDICTED BY IDOCK:   -0.36 KCAL/MOL
REMARK 927      BINDING AFFINITY PREDICTED BY RF-SCORE:    0.00 PKD
ROOT
HETATM    1  C   UNL     1     -12.567  11.882  63.330  1.00  0.00    -0.555 C  
HETATM    2  C   UNL     1     -11.868  13.214  63.548  1.00  0.00    -0.539 C  
ENDROOT
BRANCH   2   3
HETATM    3  C   UNL     1     -10.802  13.114  64.636  1.00  0.00    -0.383 C  
BRANCH   3   4
HETATM    4  C   UNL     1     -11.346  12.445  65.893  1.00  0.00    -0.356 C  
BRANCH   4   5
HETATM    5  O   UNL     1     -10.248  12.152  66.755  1.00  0.00    -0.202 OA 
BRANCH   5   6
HETATM    6  C   UNL     1     -10.521  12.545  68.098  1.00  0.00    -0.229 C  
BRANCH   6   7
HETATM    7  C   UNL     1     -10.574  14.050  68.178  1.00  0.00    -0.252 A  
HETATM    8  C   UNL     1      -9.481  14.820  67.736  1.00  0.00    -0.204 A  
HETATM    9  C   UNL     1      -9.495  16.209  67.862  1.00  0.00    -0.214 A  
HETATM   10  C   UNL     1     -10.620  16.822  68.425  1.00  0.00    -0.354 A  
HETATM   11  H   UNL     1     -11.424  18.600  68.957  1.00  0.00     0.000 HD 
HETATM   12  C   UNL     1     -11.716  16.083  68.853  1.00  0.00    -0.322 A  
HETATM   13  C   UNL     1     -11.691  14.694  68.732  1.00  0.00    -0.357 A  
HETATM   14  O   UNL     1     -10.661  18.183  68.574  1.00  0.00    -0.296 OA 
BRANCH   9  15
HETATM   15  O   UNL     1      -8.491  17.067  67.492  1.00  0.00    -0.196 OA 
HETATM   16  C   UNL     1      -7.666  16.648  66.412  1.00  0.00    -0.293 C  
ENDBRANCH   9  15
ENDBRANCH   6   7
ENDBRANCH   5   6
ENDBRANCH   4   5
ENDBRANCH   3   4
ENDBRANCH   2   3
TORSDOF 6
ENDMDL
MODEL      132
REMARK 921   NORMALIZED FREE ENERGY PREDICTED BY IDOCK:   -3.54 KCAL/MOL
REMARK 922        TOTAL FREE ENERGY PREDICTED BY IDOCK:   -5.10 KCAL/MOL
REMARK 923 INTER-LIGAND FREE ENERGY PREDICTED BY IDOCK:   -4.58 KCAL/MOL
REMARK 924 INTRA-LIGAND FREE ENERGY PREDICTED BY IDOCK:   -0.53 KCAL/MOL
REMARK 927      BINDING AFFINITY PREDICTED BY RF-SCORE:    0.00 PKD
ROOT
HETATM    1  C   UNL     1     -12.367  11.049  70.642  1.00  0.00    -0.480 C  
HETATM    2  C   UNL     1     -13.238  10.721  71.844  1.00  0.00    -0.524 C  
ENDROOT
BRANCH   2   3
HETATM    3  C   UNL     1     -12.965   9.312  72.363  1.00  0.00    -0.450 C  
BRANCH   3   4
HETATM    4  C   UNL     1     -13.861   8.282  71.685  1.00  0.00    -0.377 C  
BRANCH   4   5
HETATM    5  O   UNL     1     -13.121   7.072  71.540  1.00  0.00    -0.380 OA 
BRANCH   5   6
HETATM    6  C   UNL     1     -11.719   7.299  71.674  1.00  0.00    -0.284 C  
BRANCH   6   7
HETATM    7  C   UNL     1     -11.054   7.126  70.332  1.00  0.00    -0.309 A  
HETATM    8  C   UNL     1     -10.702   8.255  69.568  1.00  0.00    -0.179 A  
HETATM    9  C   UNL     1     -10.141   8.105  68.299  1.00  0.00    -0.197 A  
HETATM   10  C   UNL     1      -9.928   6.813  67.805  1.00  0.00    -0.138 A  
HETATM   11  H   UNL     1      -9.247   5.754  66.223  1.00  0.00     0.000 HD 
HETATM   12  C   UNL     1     -10.254   5.686  68.549  1.00  0.00    -0.253 A  
HETATM   13  C   UNL     1     -10.821   5.843  69.813  1.00  0.00    -0.447 A  
HETATM   14  O   UNL     1      -9.392   6.631  66.558  1.00  0.00    -0.157 OA 
BRANCH   9  15
HETATM   15  O   UNL     1      -9.776   9.118  67.449  1.00  0.00    -0.149 OA 
HETATM   16  C   UNL     1     -10.696  10.194  67.314  1.00  0.00    -0.254 C  
ENDBRANCH   9  15
ENDBRANCH   6   7
ENDBRANCH   5   6
ENDBRANCH   4   5
ENDBRANCH   3   4
ENDBRANCH   2   3
TORSDOF 6
ENDMDL
MODEL      133
REMARK 921   NORMALIZED FREE ENERGY PREDICTED BY IDOCK:   -3.54 KCAL/MOL
REMARK 922        TOTAL FREE ENERGY PREDICTED BY IDOCK:   -5.10 KCAL/MOL
REMARK 923 INTER-LIGAND FREE ENERGY PREDICTED BY IDOCK:   -4.63 KCAL/MOL
REMARK 924 INTRA-LIGAND FREE ENERGY PREDICTED BY IDOCK:   -0.48 KCAL/MOL
REMARK 927      BINDING AFFINITY PREDICTED BY RF-SCORE:    0.00 PKD
ROOT
HETATM    1  C   UNL     1      -5.891  13.476  69.696  1.00  0.00    -0.110 C  
HETATM    2  C   UNL     1      -6.122  13.805  68.229  1.00  0.00    -0.111 C  
ENDROOT
BRANCH   2   3
HETATM    3  C   UNL     1      -7.296  14.764  68.052  1.00  0.00    -0.140 C  
BRANCH   3   4
HETATM    4  C   UNL     1      -7.837  15.241  69.394  1.00  0.00    -0.227 C  
BRANCH   4   5
HETATM    5  O   UNL     1      -8.955  16.093  69.149  1.00  0.00    -0.242 OA 
BRANCH   5   6
HETATM    6  C   UNL     1     -10.165  15.516  69.634  1.00  0.00    -0.286 C  
BRANCH   6   7
HETATM    7  C   UNL     1     -10.794  14.684  68.545  1.00  0.00    -0.256 A  
HETATM    8  C   UNL     1     -11.090  13.327  68.775  1.00  0.00    -0.303 A  
HETATM    9  C   UNL     1     -11.615  12.533  67.755  1.00  0.00    -0.343 A  
HETATM   10  C   UNL     1     -11.850  13.114  66.503  1.00  0.00    -0.400 A  
HETATM   11  H   UNL     1     -12.513  12.754  64.628  1.00  0.00     0.000 HD 
HETATM   12  C   UNL     1     -11.580  14.455  66.260  1.00  0.00    -0.377 A  
HETATM   13  C   UNL     1     -11.048  15.240  67.282  1.00  0.00    -0.325 A  
HETATM   14  O   UNL     1     -12.353  12.360  65.477  1.00  0.00    -0.621 OA 
BRANCH   9  15
HETATM   15  O   UNL     1     -11.925  11.200  67.842  1.00  0.00    -0.624 OA 
HETATM   16  C   UNL     1     -11.106  10.415  68.700  1.00  0.00    -0.262 C  
ENDBRANCH   9  15
ENDBRANCH   6   7
ENDBRANCH   5   6
ENDBRANCH   4   5
ENDBRANCH   3   4
ENDBRANCH   2   3
TORSDOF 6
ENDMDL
MODEL      134
REMARK 921   NORMALIZED FREE ENERGY PREDICTED BY IDOCK:   -3.54 KCAL/MOL
REMARK 922        TOTAL FREE ENERGY PREDICTED BY IDOCK:   -5.09 KCAL/MOL
REMARK 923 INTER-LIGAND FREE ENERGY PREDICTED BY IDOCK:   -4.68 KCAL/MOL
REMARK 924 INTRA-LIGAND FREE ENERGY PREDICTED BY IDOCK:   -0.42 KCAL/MOL
REMARK 927      BINDING AFFINITY PREDICTED BY RF-SCORE:    0.00 PKD
ROOT
HETATM    1  C   UNL     1      -5.711  13.375  69.528  1.00  0.00    -0.099 C  
HETATM    2  C   UNL     1      -5.836  13.034  68.051  1.00  0.00    -0.112 C  
ENDROOT
BRANCH   2   3
HETATM    3  C   UNL     1      -7.108  13.622  67.448  1.00  0.00    -0.097 C  
BRANCH   3   4
HETATM    4  C   UNL     1      -7.853  14.494  68.453  1.00  0.00    -0.135 C  
BRANCH   4   5
HETATM    5  O   UNL     1      -9.158  14.753  67.940  1.00  0.00    -0.177 OA 
BRANCH   5   6
HETATM    6  C   UNL     1     -10.062  13.698  68.259  1.00  0.00    -0.240 C  
BRANCH   6   7
HETATM    7  C   UNL     1     -10.882  13.357  67.040  1.00  0.00    -0.280 A  
HETATM    8  C   UNL     1     -10.450  12.348  66.157  1.00  0.00    -0.274 A  
HETATM    9  C   UNL     1     -11.170  12.067  64.995  1.00  0.00    -0.320 A  
HETATM   10  C   UNL     1     -12.332  12.799  64.730  1.00  0.00    -0.478 A  
HETATM   11  H   UNL     1     -13.844  13.054  63.412  1.00  0.00     0.000 HD 
HETATM   12  C   UNL     1     -12.784  13.788  65.595  1.00  0.00    -0.523 A  
HETATM   13  C   UNL     1     -12.056  14.069  66.750  1.00  0.00    -0.480 A  
HETATM   14  O   UNL     1     -13.055  12.557  63.592  1.00  0.00    -0.690 OA 
BRANCH   9  15
HETATM   15  O   UNL     1     -10.846  11.130  64.048  1.00  0.00    -0.378 OA 
HETATM   16  C   UNL     1      -9.762  11.450  63.185  1.00  0.00    -0.393 C  
ENDBRANCH   9  15
ENDBRANCH   6   7
ENDBRANCH   5   6
ENDBRANCH   4   5
ENDBRANCH   3   4
ENDBRANCH   2   3
TORSDOF 6
ENDMDL
MODEL      135
REMARK 921   NORMALIZED FREE ENERGY PREDICTED BY IDOCK:   -3.54 KCAL/MOL
REMARK 922        TOTAL FREE ENERGY PREDICTED BY IDOCK:   -5.09 KCAL/MOL
REMARK 923 INTER-LIGAND FREE ENERGY PREDICTED BY IDOCK:   -4.74 KCAL/MOL
REMARK 924 INTRA-LIGAND FREE ENERGY PREDICTED BY IDOCK:   -0.35 KCAL/MOL
REMARK 927      BINDING AFFINITY PREDICTED BY RF-SCORE:    0.00 PKD
ROOT
HETATM    1  C   UNL     1     -11.145  11.832  63.588  1.00  0.00    -0.518 C  
HETATM    2  C   UNL     1     -11.915  12.614  64.641  1.00  0.00    -0.463 C  
ENDROOT
BRANCH   2   3
HETATM    3  C   UNL     1     -11.064  13.730  65.240  1.00  0.00    -0.315 C  
BRANCH   3   4
HETATM    4  C   UNL     1     -11.417  15.086  64.640  1.00  0.00    -0.381 C  
BRANCH   4   5
HETATM    5  O   UNL     1     -10.316  15.969  64.851  1.00  0.00    -0.543 OA 
BRANCH   5   6
HETATM    6  C   UNL     1     -10.659  17.023  65.748  1.00  0.00    -0.211 C  
BRANCH   6   7
HETATM    7  C   UNL     1      -9.573  17.172  66.783  1.00  0.00    -0.279 A  
HETATM    8  C   UNL     1      -8.872  18.386  66.902  1.00  0.00    -0.281 A  
HETATM    9  C   UNL     1      -7.825  18.514  67.816  1.00  0.00    -0.245 A  
HETATM   10  C   UNL     1      -7.493  17.415  68.617  1.00  0.00    -0.263 A  
HETATM   11  H   UNL     1      -6.237  16.758  70.059  1.00  0.00     0.000 HD 
HETATM   12  C   UNL     1      -8.183  16.213  68.527  1.00  0.00    -0.186 A  
HETATM   13  C   UNL     1      -9.222  16.090  67.605  1.00  0.00    -0.205 A  
HETATM   14  O   UNL     1      -6.463  17.503  69.515  1.00  0.00    -0.251 OA 
BRANCH   9  15
HETATM   15  O   UNL     1      -7.052  19.630  68.014  1.00  0.00    -0.256 OA 
HETATM   16  C   UNL     1      -7.390  20.778  67.244  1.00  0.00    -0.343 C  
ENDBRANCH   9  15
ENDBRANCH   6   7
ENDBRANCH   5   6
ENDBRANCH   4   5
ENDBRANCH   3   4
ENDBRANCH   2   3
TORSDOF 6
ENDMDL
MODEL      136
REMARK 921   NORMALIZED FREE ENERGY PREDICTED BY IDOCK:   -3.52 KCAL/MOL
REMARK 922        TOTAL FREE ENERGY PREDICTED BY IDOCK:   -5.08 KCAL/MOL
REMARK 923 INTER-LIGAND FREE ENERGY PREDICTED BY IDOCK:   -4.41 KCAL/MOL
REMARK 924 INTRA-LIGAND FREE ENERGY PREDICTED BY IDOCK:   -0.67 KCAL/MOL
REMARK 927      BINDING AFFINITY PREDICTED BY RF-SCORE:    0.00 PKD
ROOT
HETATM    1  C   UNL     1     -11.889  13.486  67.052  1.00  0.00    -0.447 C  
HETATM    2  C   UNL     1     -12.613  13.756  65.742  1.00  0.00    -0.525 C  
ENDROOT
BRANCH   2   3
HETATM    3  C   UNL     1     -12.534  12.556  64.803  1.00  0.00    -0.532 C  
BRANCH   3   4
HETATM    4  C   UNL     1     -11.610  12.829  63.621  1.00  0.00    -0.506 C  
BRANCH   4   5
HETATM    5  O   UNL     1     -10.355  12.204  63.881  1.00  0.00    -0.348 OA 
BRANCH   5   6
HETATM    6  C   UNL     1     -10.524  10.859  64.321  1.00  0.00    -0.335 C  
BRANCH   6   7
HETATM    7  C   UNL     1      -9.861  10.685  65.665  1.00  0.00    -0.307 A  
HETATM    8  C   UNL     1     -10.150   9.556  66.454  1.00  0.00    -0.328 A  
HETATM    9  C   UNL     1      -9.589   9.416  67.724  1.00  0.00    -0.134 A  
HETATM   10  C   UNL     1      -8.728  10.415  68.193  1.00  0.00    -0.125 A  
HETATM   11  H   UNL     1      -7.586  10.993  69.758  1.00  0.00     0.000 HD 
HETATM   12  C   UNL     1      -8.418  11.529  67.424  1.00  0.00    -0.147 A  
HETATM   13  C   UNL     1      -8.989  11.666  66.159  1.00  0.00    -0.180 A  
HETATM   14  O   UNL     1      -8.171  10.315  69.440  1.00  0.00    -0.148 OA 
BRANCH   9  15
HETATM   15  O   UNL     1      -9.805   8.381  68.597  1.00  0.00    -0.162 OA 
HETATM   16  C   UNL     1     -10.196   7.139  68.022  1.00  0.00    -0.185 C  
ENDBRANCH   9  15
ENDBRANCH   6   7
ENDBRANCH   5   6
ENDBRANCH   4   5
ENDBRANCH   3   4
ENDBRANCH   2   3
TORSDOF 6
ENDMDL
MODEL      137
REMARK 921   NORMALIZED FREE ENERGY PREDICTED BY IDOCK:   -3.52 KCAL/MOL
REMARK 922        TOTAL FREE ENERGY PREDICTED BY IDOCK:   -5.08 KCAL/MOL
REMARK 923 INTER-LIGAND FREE ENERGY PREDICTED BY IDOCK:   -4.58 KCAL/MOL
REMARK 924 INTRA-LIGAND FREE ENERGY PREDICTED BY IDOCK:   -0.50 KCAL/MOL
REMARK 927      BINDING AFFINITY PREDICTED BY RF-SCORE:    0.00 PKD
ROOT
HETATM    1  C   UNL     1     -12.175  13.601  65.005  1.00  0.00    -0.450 C  
HETATM    2  C   UNL     1     -10.688  13.420  64.740  1.00  0.00    -0.403 C  
ENDROOT
BRANCH   2   3
HETATM    3  C   UNL     1     -10.436  12.338  63.694  1.00  0.00    -0.483 C  
BRANCH   3   4
HETATM    4  C   UNL     1     -10.472  10.944  64.311  1.00  0.00    -0.335 C  
BRANCH   4   5
HETATM    5  O   UNL     1      -9.820  10.997  65.578  1.00  0.00    -0.218 OA 
BRANCH   5   6
HETATM    6  C   UNL     1      -9.997   9.784  66.306  1.00  0.00    -0.262 C  
BRANCH   6   7
HETATM    7  C   UNL     1     -10.600  10.094  67.654  1.00  0.00    -0.316 A  
HETATM    8  C   UNL     1     -11.319  11.288  67.848  1.00  0.00    -0.367 A  
HETATM    9  C   UNL     1     -11.829  11.612  69.107  1.00  0.00    -0.326 A  
HETATM   10  C   UNL     1     -11.618  10.723  70.167  1.00  0.00    -0.337 A  
HETATM   11  H   UNL     1     -11.951  10.414  72.137  1.00  0.00     0.000 HD 
HETATM   12  C   UNL     1     -10.925   9.532  69.993  1.00  0.00    -0.284 A  
HETATM   13  C   UNL     1     -10.411   9.219  68.735  1.00  0.00    -0.233 A  
HETATM   14  O   UNL     1     -12.094  11.017  71.417  1.00  0.00    -0.243 OA 
BRANCH   9  15
HETATM   15  O   UNL     1     -12.525  12.748  69.431  1.00  0.00    -0.009 OA 
HETATM   16  C   UNL     1     -11.748  13.898  69.747  1.00  0.00    -0.309 C  
ENDBRANCH   9  15
ENDBRANCH   6   7
ENDBRANCH   5   6
ENDBRANCH   4   5
ENDBRANCH   3   4
ENDBRANCH   2   3
TORSDOF 6
ENDMDL
MODEL      138
REMARK 921   NORMALIZED FREE ENERGY PREDICTED BY IDOCK:   -3.52 KCAL/MOL
REMARK 922        TOTAL FREE ENERGY PREDICTED BY IDOCK:   -5.07 KCAL/MOL
REMARK 923 INTER-LIGAND FREE ENERGY PREDICTED BY IDOCK:   -4.65 KCAL/MOL
REMARK 924 INTRA-LIGAND FREE ENERGY PREDICTED BY IDOCK:   -0.42 KCAL/MOL
REMARK 927      BINDING AFFINITY PREDICTED BY RF-SCORE:    0.00 PKD
ROOT
HETATM    1  C   UNL     1     -11.690  14.988  70.826  1.00  0.00    -0.371 C  
HETATM    2  C   UNL     1     -12.132  13.733  70.090  1.00  0.00    -0.429 C  
ENDROOT
BRANCH   2   3
HETATM    3  C   UNL     1     -12.030  13.908  68.578  1.00  0.00    -0.394 C  
BRANCH   3   4
HETATM    4  C   UNL     1     -11.126  12.853  67.952  1.00  0.00    -0.252 C  
BRANCH   4   5
HETATM    5  O   UNL     1      -9.776  13.303  68.051  1.00  0.00    -0.210 OA 
BRANCH   5   6
HETATM    6  C   UNL     1      -9.435  14.169  66.971  1.00  0.00    -0.251 C  
BRANCH   6   7
HETATM    7  C   UNL     1      -9.142  15.547  67.509  1.00  0.00    -0.198 A  
HETATM    8  C   UNL     1     -10.067  16.591  67.319  1.00  0.00    -0.273 A  
HETATM    9  C   UNL     1      -9.778  17.883  67.760  1.00  0.00    -0.283 A  
HETATM   10  C   UNL     1      -8.556  18.118  68.401  1.00  0.00    -0.299 A  
HETATM   11  H   UNL     1      -7.407  19.537  69.269  1.00  0.00     0.000 HD 
HETATM   12  C   UNL     1      -7.636  17.099  68.611  1.00  0.00    -0.258 A  
HETATM   13  C   UNL     1      -7.928  15.812  68.161  1.00  0.00    -0.136 A  
HETATM   14  O   UNL     1      -8.237  19.378  68.833  1.00  0.00    -0.363 OA 
BRANCH   9  15
HETATM   15  O   UNL     1     -10.580  18.987  67.619  1.00  0.00    -0.429 OA 
HETATM   16  C   UNL     1     -10.388  19.763  66.442  1.00  0.00    -0.508 C  
ENDBRANCH   9  15
ENDBRANCH   6   7
ENDBRANCH   5   6
ENDBRANCH   4   5
ENDBRANCH   3   4
ENDBRANCH   2   3
TORSDOF 6
ENDMDL
MODEL      139
REMARK 921   NORMALIZED FREE ENERGY PREDICTED BY IDOCK:   -3.50 KCAL/MOL
REMARK 922        TOTAL FREE ENERGY PREDICTED BY IDOCK:   -5.04 KCAL/MOL
REMARK 923 INTER-LIGAND FREE ENERGY PREDICTED BY IDOCK:   -4.40 KCAL/MOL
REMARK 924 INTRA-LIGAND FREE ENERGY PREDICTED BY IDOCK:   -0.65 KCAL/MOL
REMARK 927      BINDING AFFINITY PREDICTED BY RF-SCORE:    0.00 PKD
ROOT
HETATM    1  C   UNL     1      -8.189   9.855  66.544  1.00  0.00    -0.121 C  
HETATM    2  C   UNL     1      -9.434   8.983  66.572  1.00  0.00    -0.266 C  
ENDROOT
BRANCH   2   3
HETATM    3  C   UNL     1     -10.699   9.811  66.366  1.00  0.00    -0.013 C  
BRANCH   3   4
HETATM    4  C   UNL     1     -10.409  11.306  66.443  1.00  0.00    -0.245 C  
BRANCH   4   5
HETATM    5  O   UNL     1     -11.152  11.851  67.532  1.00  0.00    -0.241 OA 
BRANCH   5   6
HETATM    6  C   UNL     1     -10.384  11.859  68.733  1.00  0.00    -0.165 C  
BRANCH   6   7
HETATM    7  C   UNL     1     -11.140  11.131  69.815  1.00  0.00    -0.271 A  
HETATM    8  C   UNL     1     -10.753   9.832  70.196  1.00  0.00    -0.339 A  
HETATM    9  C   UNL     1     -11.483   9.126  71.153  1.00  0.00    -0.318 A  
HETATM   10  C   UNL     1     -12.601   9.737  71.733  1.00  0.00    -0.416 A  
HETATM   11  H   UNL     1     -14.105   9.482  73.059  1.00  0.00     0.000 HD 
HETATM   12  C   UNL     1     -12.991  11.023  71.382  1.00  0.00    -0.517 A  
HETATM   13  C   UNL     1     -12.261  11.720  70.420  1.00  0.00    -0.416 A  
HETATM   14  O   UNL     1     -13.346   9.067  72.665  1.00  0.00    -0.458 OA 
BRANCH   9  15
HETATM   15  O   UNL     1     -11.224   7.853  71.594  1.00  0.00    -0.241 OA 
HETATM   16  C   UNL     1     -11.541   6.796  70.696  1.00  0.00    -0.370 C  
ENDBRANCH   9  15
ENDBRANCH   6   7
ENDBRANCH   5   6
ENDBRANCH   4   5
ENDBRANCH   3   4
ENDBRANCH   2   3
TORSDOF 6
ENDMDL
MODEL      140
REMARK 921   NORMALIZED FREE ENERGY PREDICTED BY IDOCK:   -3.49 KCAL/MOL
REMARK 922        TOTAL FREE ENERGY PREDICTED BY IDOCK:   -5.04 KCAL/MOL
REMARK 923 INTER-LIGAND FREE ENERGY PREDICTED BY IDOCK:   -4.68 KCAL/MOL
REMARK 924 INTRA-LIGAND FREE ENERGY PREDICTED BY IDOCK:   -0.36 KCAL/MOL
REMARK 927      BINDING AFFINITY PREDICTED BY RF-SCORE:    0.00 PKD
ROOT
HETATM    1  C   UNL     1     -12.389  15.959  73.314  1.00  0.00    -0.632 C  
HETATM    2  C   UNL     1     -13.031  14.581  73.321  1.00  0.00    -0.500 C  
ENDROOT
BRANCH   2   3
HETATM    3  C   UNL     1     -14.033  14.427  72.180  1.00  0.00    -0.607 C  
BRANCH   3   4
HETATM    4  C   UNL     1     -13.626  15.251  70.963  1.00  0.00    -0.419 C  
BRANCH   4   5
HETATM    5  O   UNL     1     -12.755  14.459  70.158  1.00  0.00    -0.334 OA 
BRANCH   5   6
HETATM    6  C   UNL     1     -11.907  15.274  69.351  1.00  0.00    -0.343 C  
BRANCH   6   7
HETATM    7  C   UNL     1     -10.754  14.446  68.843  1.00  0.00    -0.260 A  
HETATM    8  C   UNL     1     -10.894  13.052  68.700  1.00  0.00    -0.287 A  
HETATM    9  C   UNL     1      -9.814  12.270  68.288  1.00  0.00    -0.217 A  
HETATM   10  C   UNL     1      -8.595  12.898  68.012  1.00  0.00    -0.186 A  
HETATM   11  H   UNL     1      -6.684  12.583  67.430  1.00  0.00     0.000 HD 
HETATM   12  C   UNL     1      -8.440  14.273  68.131  1.00  0.00    -0.167 A  
HETATM   13  C   UNL     1      -9.521  15.048  68.551  1.00  0.00    -0.203 A  
HETATM   14  O   UNL     1      -7.512  12.157  67.618  1.00  0.00    -0.109 OA 
BRANCH   9  15
HETATM   15  O   UNL     1      -9.814  10.907  68.131  1.00  0.00    -0.166 OA 
HETATM   16  C   UNL     1     -10.486  10.402  66.984  1.00  0.00    -0.251 C  
ENDBRANCH   9  15
ENDBRANCH   6   7
ENDBRANCH   5   6
ENDBRANCH   4   5
ENDBRANCH   3   4
ENDBRANCH   2   3
TORSDOF 6
ENDMDL
MODEL      141
REMARK 921   NORMALIZED FREE ENERGY PREDICTED BY IDOCK:   -3.49 KCAL/MOL
REMARK 922        TOTAL FREE ENERGY PREDICTED BY IDOCK:   -5.03 KCAL/MOL
REMARK 923 INTER-LIGAND FREE ENERGY PREDICTED BY IDOCK:   -4.66 KCAL/MOL
REMARK 924 INTRA-LIGAND FREE ENERGY PREDICTED BY IDOCK:   -0.38 KCAL/MOL
REMARK 927      BINDING AFFINITY PREDICTED BY RF-SCORE:    0.00 PKD
ROOT
HETATM    1  C   UNL     1     -10.084  10.068  67.520  1.00  0.00    -0.243 C  
HETATM    2  C   UNL     1     -11.474  10.666  67.666  1.00  0.00    -0.169 C  
ENDROOT
BRANCH   2   3
HETATM    3  C   UNL     1     -11.422  12.191  67.715  1.00  0.00    -0.398 C  
BRANCH   3   4
HETATM    4  C   UNL     1     -11.466  12.707  69.149  1.00  0.00    -0.304 C  
BRANCH   4   5
HETATM    5  O   UNL     1     -11.084  14.081  69.142  1.00  0.00    -0.253 OA 
BRANCH   5   6
HETATM    6  C   UNL     1     -11.564  14.749  67.976  1.00  0.00    -0.343 C  
BRANCH   6   7
HETATM    7  C   UNL     1     -10.461  15.596  67.395  1.00  0.00    -0.291 A  
HETATM    8  C   UNL     1     -10.734  16.904  66.950  1.00  0.00    -0.130 A  
HETATM    9  C   UNL     1      -9.733  17.674  66.356  1.00  0.00    -0.294 A  
HETATM   10  C   UNL     1      -8.453  17.125  66.220  1.00  0.00    -0.244 A  
HETATM   11  H   UNL     1      -6.583  17.478  65.538  1.00  0.00     0.000 HD 
HETATM   12  C   UNL     1      -8.159  15.844  66.667  1.00  0.00    -0.298 A  
HETATM   13  C   UNL     1      -9.165  15.077  67.252  1.00  0.00    -0.210 A  
HETATM   14  O   UNL     1      -7.452  17.850  65.630  1.00  0.00    -0.544 OA 
BRANCH   9  15
HETATM   15  O   UNL     1      -9.874  18.946  65.863  1.00  0.00    -0.486 OA 
HETATM   16  C   UNL     1     -10.466  19.901  66.736  1.00  0.00    -0.451 C  
ENDBRANCH   9  15
ENDBRANCH   6   7
ENDBRANCH   5   6
ENDBRANCH   4   5
ENDBRANCH   3   4
ENDBRANCH   2   3
TORSDOF 6
ENDMDL
MODEL      142
REMARK 921   NORMALIZED FREE ENERGY PREDICTED BY IDOCK:   -3.49 KCAL/MOL
REMARK 922        TOTAL FREE ENERGY PREDICTED BY IDOCK:   -5.03 KCAL/MOL
REMARK 923 INTER-LIGAND FREE ENERGY PREDICTED BY IDOCK:   -4.70 KCAL/MOL
REMARK 924 INTRA-LIGAND FREE ENERGY PREDICTED BY IDOCK:   -0.33 KCAL/MOL
REMARK 927      BINDING AFFINITY PREDICTED BY RF-SCORE:    0.00 PKD
ROOT
HETATM    1  C   UNL     1      -9.542   9.415  65.694  1.00  0.00    -0.345 C  
HETATM    2  C   UNL     1      -8.482  10.097  64.843  1.00  0.00    -0.178 C  
ENDROOT
BRANCH   2   3
HETATM    3  C   UNL     1      -8.864  10.091  63.366  1.00  0.00    -0.249 C  
BRANCH   3   4
HETATM    4  C   UNL     1      -9.627  11.353  62.979  1.00  0.00    -0.376 C  
BRANCH   4   5
HETATM    5  O   UNL     1      -9.534  12.281  64.058  1.00  0.00     0.024 OA 
BRANCH   5   6
HETATM    6  C   UNL     1     -10.676  13.133  64.112  1.00  0.00    -0.374 C  
BRANCH   6   7
HETATM    7  C   UNL     1     -11.115  13.291  65.546  1.00  0.00    -0.299 A  
HETATM    8  C   UNL     1     -11.430  12.156  66.317  1.00  0.00    -0.433 A  
HETATM    9  C   UNL     1     -11.895  12.295  67.625  1.00  0.00    -0.264 A  
HETATM   10  C   UNL     1     -12.034  13.582  68.157  1.00  0.00    -0.341 A  
HETATM   11  H   UNL     1     -12.595  14.626  69.795  1.00  0.00     0.000 HD 
HETATM   12  C   UNL     1     -11.714  14.714  67.419  1.00  0.00    -0.413 A  
HETATM   13  C   UNL     1     -11.258  14.568  66.109  1.00  0.00    -0.339 A  
HETATM   14  O   UNL     1     -12.501  13.753  69.433  1.00  0.00    -0.255 OA 
BRANCH   9  15
HETATM   15  O   UNL     1     -12.255  11.276  68.470  1.00  0.00    -0.588 OA 
HETATM   16  C   UNL     1     -11.225  10.746  69.297  1.00  0.00    -0.272 C  
ENDBRANCH   9  15
ENDBRANCH   6   7
ENDBRANCH   5   6
ENDBRANCH   4   5
ENDBRANCH   3   4
ENDBRANCH   2   3
TORSDOF 6
ENDMDL
MODEL      143
REMARK 921   NORMALIZED FREE ENERGY PREDICTED BY IDOCK:   -3.49 KCAL/MOL
REMARK 922        TOTAL FREE ENERGY PREDICTED BY IDOCK:   -5.03 KCAL/MOL
REMARK 923 INTER-LIGAND FREE ENERGY PREDICTED BY IDOCK:   -4.65 KCAL/MOL
REMARK 924 INTRA-LIGAND FREE ENERGY PREDICTED BY IDOCK:   -0.38 KCAL/MOL
REMARK 927      BINDING AFFINITY PREDICTED BY RF-SCORE:    0.00 PKD
ROOT
HETATM    1  C   UNL     1      -9.538   8.348  71.404  1.00  0.00    -0.254 C  
HETATM    2  C   UNL     1     -10.949   8.782  71.038  1.00  0.00    -0.328 C  
ENDROOT
BRANCH   2   3
HETATM    3  C   UNL     1     -10.965   9.601  69.751  1.00  0.00    -0.266 C  
BRANCH   3   4
HETATM    4  C   UNL     1     -12.027  10.693  69.795  1.00  0.00    -0.291 C  
BRANCH   4   5
HETATM    5  O   UNL     1     -12.253  11.152  68.463  1.00  0.00    -0.600 OA 
BRANCH   5   6
HETATM    6  C   UNL     1     -11.111  10.934  67.637  1.00  0.00    -0.313 C  
BRANCH   6   7
HETATM    7  C   UNL     1     -10.526  12.263  67.231  1.00  0.00    -0.236 A  
HETATM    8  C   UNL     1     -11.199  13.076  66.300  1.00  0.00    -0.332 A  
HETATM    9  C   UNL     1     -10.636  14.280  65.873  1.00  0.00    -0.302 A  
HETATM   10  C   UNL     1      -9.396  14.666  66.395  1.00  0.00    -0.284 A  
HETATM   11  H   UNL     1      -7.969  16.096  66.341  1.00  0.00     0.000 HD 
HETATM   12  C   UNL     1      -8.723  13.885  67.326  1.00  0.00    -0.225 A  
HETATM   13  C   UNL     1      -9.287  12.680  67.742  1.00  0.00    -0.198 A  
HETATM   14  O   UNL     1      -8.810  15.834  65.987  1.00  0.00    -0.327 OA 
BRANCH   9  15
HETATM   15  O   UNL     1     -11.176  15.148  64.959  1.00  0.00    -0.376 OA 
HETATM   16  C   UNL     1     -12.223  14.638  64.142  1.00  0.00    -0.315 C  
ENDBRANCH   9  15
ENDBRANCH   6   7
ENDBRANCH   5   6
ENDBRANCH   4   5
ENDBRANCH   3   4
ENDBRANCH   2   3
TORSDOF 6
ENDMDL
MODEL      144
REMARK 921   NORMALIZED FREE ENERGY PREDICTED BY IDOCK:   -3.48 KCAL/MOL
REMARK 922        TOTAL FREE ENERGY PREDICTED BY IDOCK:   -5.02 KCAL/MOL
REMARK 923 INTER-LIGAND FREE ENERGY PREDICTED BY IDOCK:   -4.54 KCAL/MOL
REMARK 924 INTRA-LIGAND FREE ENERGY PREDICTED BY IDOCK:   -0.48 KCAL/MOL
REMARK 927      BINDING AFFINITY PREDICTED BY RF-SCORE:    0.00 PKD
ROOT
HETATM    1  C   UNL     1     -10.457  12.399  66.474  1.00  0.00    -0.254 C  
HETATM    2  C   UNL     1     -11.569  12.648  67.482  1.00  0.00    -0.418 C  
ENDROOT
BRANCH   2   3
HETATM    3  C   UNL     1     -11.099  13.551  68.618  1.00  0.00    -0.299 C  
BRANCH   3   4
HETATM    4  C   UNL     1     -11.854  13.262  69.911  1.00  0.00    -0.310 C  
BRANCH   4   5
HETATM    5  O   UNL     1     -12.392  11.944  69.831  1.00  0.00    -0.201 OA 
BRANCH   5   6
HETATM    6  C   UNL     1     -12.577  11.377  71.126  1.00  0.00    -0.386 C  
BRANCH   6   7
HETATM    7  C   UNL     1     -12.164   9.927  71.102  1.00  0.00    -0.468 A  
HETATM    8  C   UNL     1     -11.245   9.471  70.137  1.00  0.00    -0.275 A  
HETATM    9  C   UNL     1     -10.903   8.120  70.067  1.00  0.00    -0.233 A  
HETATM   10  C   UNL     1     -11.481   7.231  70.980  1.00  0.00    -0.287 A  
HETATM   11  H   UNL     1     -11.569   5.293  71.551  1.00  0.00     0.000 HD 
HETATM   12  C   UNL     1     -12.377   7.663  71.950  1.00  0.00    -0.337 A  
HETATM   13  C   UNL     1     -12.721   9.013  72.008  1.00  0.00    -0.467 A  
HETATM   14  O   UNL     1     -11.176   5.897  70.931  1.00  0.00    -0.280 OA 
BRANCH   9  15
HETATM   15  O   UNL     1     -10.042   7.547  69.166  1.00  0.00    -0.181 OA 
HETATM   16  C   UNL     1      -9.656   8.353  68.059  1.00  0.00    -0.149 C  
ENDBRANCH   9  15
ENDBRANCH   6   7
ENDBRANCH   5   6
ENDBRANCH   4   5
ENDBRANCH   3   4
ENDBRANCH   2   3
TORSDOF 6
ENDMDL
MODEL      145
REMARK 921   NORMALIZED FREE ENERGY PREDICTED BY IDOCK:   -3.47 KCAL/MOL
REMARK 922        TOTAL FREE ENERGY PREDICTED BY IDOCK:   -5.01 KCAL/MOL
REMARK 923 INTER-LIGAND FREE ENERGY PREDICTED BY IDOCK:   -5.08 KCAL/MOL
REMARK 924 INTRA-LIGAND FREE ENERGY PREDICTED BY IDOCK:    0.08 KCAL/MOL
REMARK 927      BINDING AFFINITY PREDICTED BY RF-SCORE:    0.00 PKD
ROOT
HETATM    1  C   UNL     1     -12.283   8.876  71.225  1.00  0.00    -0.351 C  
HETATM    2  C   UNL     1     -11.237   9.905  70.826  1.00  0.00    -0.427 C  
ENDROOT
BRANCH   2   3
HETATM    3  C   UNL     1     -11.539  10.505  69.456  1.00  0.00    -0.332 C  
BRANCH   3   4
HETATM    4  C   UNL     1     -12.100  11.918  69.575  1.00  0.00    -0.226 C  
BRANCH   4   5
HETATM    5  O   UNL     1     -11.611  12.687  68.478  1.00  0.00    -0.278 OA 
BRANCH   5   6
HETATM    6  C   UNL     1     -12.065  14.037  68.546  1.00  0.00    -0.294 C  
BRANCH   6   7
HETATM    7  C   UNL     1     -11.081  14.933  67.836  1.00  0.00    -0.304 A  
HETATM    8  C   UNL     1     -11.007  16.300  68.163  1.00  0.00    -0.343 A  
HETATM    9  C   UNL     1     -10.142  17.148  67.469  1.00  0.00    -0.301 A  
HETATM   10  C   UNL     1      -9.346  16.612  66.451  1.00  0.00    -0.281 A  
HETATM   11  H   UNL     1      -7.957  17.056  65.052  1.00  0.00     0.000 HD 
HETATM   12  C   UNL     1      -9.394  15.263  66.123  1.00  0.00    -0.360 A  
HETATM   13  C   UNL     1     -10.265  14.423  66.814  1.00  0.00    -0.270 A  
HETATM   14  O   UNL     1      -8.497  17.420  65.743  1.00  0.00    -0.532 OA 
BRANCH   9  15
HETATM   15  O   UNL     1      -9.991  18.496  67.675  1.00  0.00    -0.312 OA 
HETATM   16  C   UNL     1     -10.598  19.354  66.716  1.00  0.00    -0.472 C  
ENDBRANCH   9  15
ENDBRANCH   6   7
ENDBRANCH   5   6
ENDBRANCH   4   5
ENDBRANCH   3   4
ENDBRANCH   2   3
TORSDOF 6
ENDMDL
MODEL      146
REMARK 921   NORMALIZED FREE ENERGY PREDICTED BY IDOCK:   -3.47 KCAL/MOL
REMARK 922        TOTAL FREE ENERGY PREDICTED BY IDOCK:   -5.00 KCAL/MOL
REMARK 923 INTER-LIGAND FREE ENERGY PREDICTED BY IDOCK:   -4.64 KCAL/MOL
REMARK 924 INTRA-LIGAND FREE ENERGY PREDICTED BY IDOCK:   -0.36 KCAL/MOL
REMARK 927      BINDING AFFINITY PREDICTED BY RF-SCORE:    0.00 PKD
ROOT
HETATM    1  C   UNL     1     -11.838  17.036  74.054  1.00  0.00     0.028 C  
HETATM    2  C   UNL     1     -12.812  15.868  74.083  1.00  0.00    -0.532 C  
ENDROOT
BRANCH   2   3
HETATM    3  C   UNL     1     -12.583  14.922  72.908  1.00  0.00    -0.503 C  
BRANCH   3   4
HETATM    4  C   UNL     1     -13.793  14.877  71.982  1.00  0.00    -0.460 C  
BRANCH   4   5
HETATM    5  O   UNL     1     -13.331  14.643  70.653  1.00  0.00    -0.313 OA 
BRANCH   5   6
HETATM    6  C   UNL     1     -12.166  13.820  70.644  1.00  0.00    -0.363 C  
BRANCH   6   7
HETATM    7  C   UNL     1     -11.504  13.903  69.292  1.00  0.00    -0.348 A  
HETATM    8  C   UNL     1     -10.379  14.729  69.106  1.00  0.00    -0.237 A  
HETATM    9  C   UNL     1      -9.797  14.860  67.844  1.00  0.00    -0.214 A  
HETATM   10  C   UNL     1     -10.347  14.148  66.772  1.00  0.00    -0.274 A  
HETATM   11  H   UNL     1     -10.180  13.781  64.791  1.00  0.00     0.000 HD 
HETATM   12  C   UNL     1     -11.447  13.316  66.938  1.00  0.00    -0.376 A  
HETATM   13  C   UNL     1     -12.029  13.196  68.199  1.00  0.00    -0.333 A  
HETATM   14  O   UNL     1      -9.807  14.264  65.519  1.00  0.00    -0.315 OA 
BRANCH   9  15
HETATM   15  O   UNL     1      -8.718  15.644  67.527  1.00  0.00    -0.170 OA 
HETATM   16  C   UNL     1      -8.611  16.883  68.217  1.00  0.00    -0.230 C  
ENDBRANCH   9  15
ENDBRANCH   6   7
ENDBRANCH   5   6
ENDBRANCH   4   5
ENDBRANCH   3   4
ENDBRANCH   2   3
TORSDOF 6
ENDMDL
MODEL      147
REMARK 921   NORMALIZED FREE ENERGY PREDICTED BY IDOCK:   -3.45 KCAL/MOL
REMARK 922        TOTAL FREE ENERGY PREDICTED BY IDOCK:   -4.98 KCAL/MOL
REMARK 923 INTER-LIGAND FREE ENERGY PREDICTED BY IDOCK:   -4.37 KCAL/MOL
REMARK 924 INTRA-LIGAND FREE ENERGY PREDICTED BY IDOCK:   -0.61 KCAL/MOL
REMARK 927      BINDING AFFINITY PREDICTED BY RF-SCORE:    0.00 PKD
ROOT
HETATM    1  C   UNL     1     -10.803  11.901  63.482  1.00  0.00    -0.502 C  
HETATM    2  C   UNL     1     -12.133  12.638  63.462  1.00  0.00    -0.648 C  
ENDROOT
BRANCH   2   3
HETATM    3  C   UNL     1     -12.740  12.729  64.859  1.00  0.00    -0.479 C  
BRANCH   3   4
HETATM    4  C   UNL     1     -12.441  14.073  65.513  1.00  0.00    -0.509 C  
BRANCH   4   5
HETATM    5  O   UNL     1     -11.677  13.837  66.694  1.00  0.00    -0.353 OA 
BRANCH   5   6
HETATM    6  C   UNL     1     -11.964  12.556  67.252  1.00  0.00    -0.216 C  
BRANCH   6   7
HETATM    7  C   UNL     1     -10.697  11.739  67.305  1.00  0.00    -0.279 A  
HETATM    8  C   UNL     1     -10.717  10.439  67.847  1.00  0.00    -0.307 A  
HETATM    9  C   UNL     1      -9.539   9.699  67.956  1.00  0.00    -0.143 A  
HETATM   10  C   UNL     1      -8.342  10.269  67.508  1.00  0.00    -0.114 A  
HETATM   11  H   UNL     1      -6.354   9.960  67.309  1.00  0.00     0.000 HD 
HETATM   12  C   UNL     1      -8.303  11.542  66.956  1.00  0.00    -0.165 A  
HETATM   13  C   UNL     1      -9.482  12.280  66.857  1.00  0.00    -0.217 A  
HETATM   14  O   UNL     1      -7.167   9.573  67.613  1.00  0.00    -0.081 OA 
BRANCH   9  15
HETATM   15  O   UNL     1      -9.421   8.438  68.482  1.00  0.00    -0.145 OA 
HETATM   16  C   UNL     1     -10.517   7.970  69.259  1.00  0.00    -0.215 C  
ENDBRANCH   9  15
ENDBRANCH   6   7
ENDBRANCH   5   6
ENDBRANCH   4   5
ENDBRANCH   3   4
ENDBRANCH   2   3
TORSDOF 6
ENDMDL
MODEL      148
REMARK 921   NORMALIZED FREE ENERGY PREDICTED BY IDOCK:   -3.44 KCAL/MOL
REMARK 922        TOTAL FREE ENERGY PREDICTED BY IDOCK:   -4.97 KCAL/MOL
REMARK 923 INTER-LIGAND FREE ENERGY PREDICTED BY IDOCK:   -4.68 KCAL/MOL
REMARK 924 INTRA-LIGAND FREE ENERGY PREDICTED BY IDOCK:   -0.29 KCAL/MOL
REMARK 927      BINDING AFFINITY PREDICTED BY RF-SCORE:    0.00 PKD
ROOT
HETATM    1  C   UNL     1     -10.493   9.262  67.118  1.00  0.00    -0.319 C  
HETATM    2  C   UNL     1      -9.947  10.044  65.934  1.00  0.00    -0.339 C  
ENDROOT
BRANCH   2   3
HETATM    3  C   UNL     1      -9.157  11.268  66.390  1.00  0.00    -0.201 C  
BRANCH   3   4
HETATM    4  C   UNL     1     -10.080  12.408  66.803  1.00  0.00    -0.214 C  
BRANCH   4   5
HETATM    5  O   UNL     1     -10.133  13.351  65.734  1.00  0.00    -0.289 OA 
BRANCH   5   6
HETATM    6  C   UNL     1     -11.237  14.242  65.880  1.00  0.00    -0.319 C  
BRANCH   6   7
HETATM    7  C   UNL     1     -10.785  15.483  66.607  1.00  0.00    -0.306 A  
HETATM    8  C   UNL     1      -9.914  16.393  65.977  1.00  0.00    -0.369 A  
HETATM    9  C   UNL     1      -9.442  17.513  66.663  1.00  0.00    -0.275 A  
HETATM   10  C   UNL     1      -9.858  17.719  67.983  1.00  0.00    -0.317 A  
HETATM   11  H   UNL     1      -9.685  18.941  69.584  1.00  0.00     0.000 HD 
HETATM   12  C   UNL     1     -10.729  16.842  68.617  1.00  0.00    -0.345 A  
HETATM   13  C   UNL     1     -11.190  15.721  67.929  1.00  0.00    -0.313 A  
HETATM   14  O   UNL     1      -9.403  18.801  68.688  1.00  0.00    -0.337 OA 
BRANCH   9  15
HETATM   15  O   UNL     1      -8.577  18.458  66.173  1.00  0.00    -0.456 OA 
HETATM   16  C   UNL     1      -7.230  18.044  65.979  1.00  0.00    -0.281 C  
ENDBRANCH   9  15
ENDBRANCH   6   7
ENDBRANCH   5   6
ENDBRANCH   4   5
ENDBRANCH   3   4
ENDBRANCH   2   3
TORSDOF 6
ENDMDL
MODEL      149
REMARK 921   NORMALIZED FREE ENERGY PREDICTED BY IDOCK:   -3.43 KCAL/MOL
REMARK 922        TOTAL FREE ENERGY PREDICTED BY IDOCK:   -4.95 KCAL/MOL
REMARK 923 INTER-LIGAND FREE ENERGY PREDICTED BY IDOCK:   -4.74 KCAL/MOL
REMARK 924 INTRA-LIGAND FREE ENERGY PREDICTED BY IDOCK:   -0.21 KCAL/MOL
REMARK 927      BINDING AFFINITY PREDICTED BY RF-SCORE:    0.00 PKD
ROOT
HETATM    1  C   UNL     1      -6.366  11.006  69.963  1.00  0.00    -0.146 C  
HETATM    2  C   UNL     1      -6.604  12.074  68.907  1.00  0.00    -0.089 C  
ENDROOT
BRANCH   2   3
HETATM    3  C   UNL     1      -6.399  13.475  69.474  1.00  0.00    -0.108 C  
BRANCH   3   4
HETATM    4  C   UNL     1      -6.764  14.550  68.457  1.00  0.00    -0.096 C  
BRANCH   4   5
HETATM    5  O   UNL     1      -8.017  15.117  68.835  1.00  0.00    -0.152 OA 
BRANCH   5   6
HETATM    6  C   UNL     1      -9.107  14.301  68.410  1.00  0.00    -0.194 C  
BRANCH   6   7
HETATM    7  C   UNL     1      -9.720  14.894  67.166  1.00  0.00    -0.229 A  
HETATM    8  C   UNL     1      -9.819  16.291  67.024  1.00  0.00    -0.247 A  
HETATM    9  C   UNL     1     -10.439  16.847  65.904  1.00  0.00    -0.285 A  
HETATM   10  C   UNL     1     -10.951  15.991  64.923  1.00  0.00    -0.384 A  
HETATM   11  H   UNL     1     -11.923  15.923  63.152  1.00  0.00     0.000 HD 
HETATM   12  C   UNL     1     -10.849  14.610  65.037  1.00  0.00    -0.431 A  
HETATM   13  C   UNL     1     -10.236  14.061  66.162  1.00  0.00    -0.308 A  
HETATM   14  O   UNL     1     -11.576  16.504  63.819  1.00  0.00    -1.109 OA 
BRANCH   9  15
HETATM   15  O   UNL     1     -10.618  18.184  65.658  1.00  0.00    -0.611 OA 
HETATM   16  C   UNL     1      -9.736  19.076  66.330  1.00  0.00    -0.354 C  
ENDBRANCH   9  15
ENDBRANCH   6   7
ENDBRANCH   5   6
ENDBRANCH   4   5
ENDBRANCH   3   4
ENDBRANCH   2   3
TORSDOF 6
ENDMDL
MODEL      150
REMARK 921   NORMALIZED FREE ENERGY PREDICTED BY IDOCK:   -3.42 KCAL/MOL
REMARK 922        TOTAL FREE ENERGY PREDICTED BY IDOCK:   -4.94 KCAL/MOL
REMARK 923 INTER-LIGAND FREE ENERGY PREDICTED BY IDOCK:   -4.51 KCAL/MOL
REMARK 924 INTRA-LIGAND FREE ENERGY PREDICTED BY IDOCK:   -0.43 KCAL/MOL
REMARK 927      BINDING AFFINITY PREDICTED BY RF-SCORE:    0.00 PKD
ROOT
HETATM    1  C   UNL     1     -12.361  11.978  63.507  1.00  0.00    -0.661 C  
HETATM    2  C   UNL     1     -12.161  13.430  63.909  1.00  0.00    -0.514 C  
ENDROOT
BRANCH   2   3
HETATM    3  C   UNL     1     -12.592  13.674  65.352  1.00  0.00    -0.533 C  
BRANCH   3   4
HETATM    4  C   UNL     1     -11.666  12.973  66.340  1.00  0.00    -0.390 C  
BRANCH   4   5
HETATM    5  O   UNL     1     -10.398  13.625  66.304  1.00  0.00    -0.281 OA 
BRANCH   5   6
HETATM    6  C   UNL     1      -9.871  13.812  67.616  1.00  0.00    -0.234 C  
BRANCH   6   7
HETATM    7  C   UNL     1      -9.687  15.286  67.875  1.00  0.00    -0.211 A  
HETATM    8  C   UNL     1      -9.702  16.199  66.804  1.00  0.00    -0.255 A  
HETATM    9  C   UNL     1      -9.473  17.557  67.027  1.00  0.00    -0.268 A  
HETATM   10  C   UNL     1      -9.238  17.994  68.335  1.00  0.00    -0.294 A  
HETATM   11  H   UNL     1      -8.838  19.616  69.475  1.00  0.00     0.000 HD 
HETATM   12  C   UNL     1      -9.235  17.112  69.408  1.00  0.00     0.236 A  
HETATM   13  C   UNL     1      -9.456  15.755  69.177  1.00  0.00    -0.255 A  
HETATM   14  O   UNL     1      -8.997  19.319  68.587  1.00  0.00    -0.359 OA 
BRANCH   9  15
HETATM   15  O   UNL     1      -9.440  18.541  66.072  1.00  0.00    -0.492 OA 
HETATM   16  C   UNL     1     -10.686  18.893  65.482  1.00  0.00    -0.001 C  
ENDBRANCH   9  15
ENDBRANCH   6   7
ENDBRANCH   5   6
ENDBRANCH   4   5
ENDBRANCH   3   4
ENDBRANCH   2   3
TORSDOF 6
ENDMDL
MODEL      151
REMARK 921   NORMALIZED FREE ENERGY PREDICTED BY IDOCK:   -3.41 KCAL/MOL
REMARK 922        TOTAL FREE ENERGY PREDICTED BY IDOCK:   -4.92 KCAL/MOL
REMARK 923 INTER-LIGAND FREE ENERGY PREDICTED BY IDOCK:   -4.63 KCAL/MOL
REMARK 924 INTRA-LIGAND FREE ENERGY PREDICTED BY IDOCK:   -0.29 KCAL/MOL
REMARK 927      BINDING AFFINITY PREDICTED BY RF-SCORE:    0.00 PKD
ROOT
HETATM    1  C   UNL     1     -12.783  15.740  72.370  1.00  0.00    -0.537 C  
HETATM    2  C   UNL     1     -13.375  15.104  71.122  1.00  0.00    -0.535 C  
ENDROOT
BRANCH   2   3
HETATM    3  C   UNL     1     -12.284  14.626  70.168  1.00  0.00    -0.391 C  
BRANCH   3   4
HETATM    4  C   UNL     1     -11.904  13.174  70.435  1.00  0.00    -0.180 C  
BRANCH   4   5
HETATM    5  O   UNL     1     -12.396  12.377  69.359  1.00  0.00    -0.112 OA 
BRANCH   5   6
HETATM    6  C   UNL     1     -11.945  12.869  68.098  1.00  0.00    -0.261 C  
BRANCH   6   7
HETATM    7  C   UNL     1     -11.181  11.784  67.382  1.00  0.00    -0.357 A  
HETATM    8  C   UNL     1     -11.053  11.817  65.981  1.00  0.00    -0.363 A  
HETATM    9  C   UNL     1     -10.400  10.786  65.304  1.00  0.00    -0.258 A  
HETATM   10  C   UNL     1      -9.868   9.726  66.045  1.00  0.00    -0.274 A  
HETATM   11  H   UNL     1      -8.870   7.972  65.914  1.00  0.00     0.000 HD 
HETATM   12  C   UNL     1      -9.969   9.682  67.430  1.00  0.00    -0.237 A  
HETATM   13  C   UNL     1     -10.629  10.711  68.099  1.00  0.00    -0.237 A  
HETATM   14  O   UNL     1      -9.232   8.692  65.411  1.00  0.00    -0.154 OA 
BRANCH   9  15
HETATM   15  O   UNL     1     -10.228  10.689  63.947  1.00  0.00    -0.337 OA 
HETATM   16  C   UNL     1     -10.229  11.912  63.219  1.00  0.00    -0.395 C  
ENDBRANCH   9  15
ENDBRANCH   6   7
ENDBRANCH   5   6
ENDBRANCH   4   5
ENDBRANCH   3   4
ENDBRANCH   2   3
TORSDOF 6
ENDMDL
MODEL      152
REMARK 921   NORMALIZED FREE ENERGY PREDICTED BY IDOCK:   -3.39 KCAL/MOL
REMARK 922        TOTAL FREE ENERGY PREDICTED BY IDOCK:   -4.90 KCAL/MOL
REMARK 923 INTER-LIGAND FREE ENERGY PREDICTED BY IDOCK:   -4.65 KCAL/MOL
REMARK 924 INTRA-LIGAND FREE ENERGY PREDICTED BY IDOCK:   -0.25 KCAL/MOL
REMARK 927      BINDING AFFINITY PREDICTED BY RF-SCORE:    0.00 PKD
ROOT
HETATM    1  C   UNL     1     -12.479  16.019  73.651  1.00  0.00    -0.700 C  
HETATM    2  C   UNL     1     -12.258  15.051  72.499  1.00  0.00    -0.443 C  
ENDROOT
BRANCH   2   3
HETATM    3  C   UNL     1     -12.250  15.775  71.156  1.00  0.00    -0.473 C  
BRANCH   3   4
HETATM    4  C   UNL     1     -10.945  15.542  70.403  1.00  0.00    -0.339 C  
BRANCH   4   5
HETATM    5  O   UNL     1     -11.114  16.000  69.062  1.00  0.00    -0.277 OA 
BRANCH   5   6
HETATM    6  C   UNL     1     -10.530  17.288  68.874  1.00  0.00    -0.327 C  
BRANCH   6   7
HETATM    7  C   UNL     1      -9.213  17.140  68.155  1.00  0.00    -0.261 A  
HETATM    8  C   UNL     1      -8.010  17.105  68.885  1.00  0.00    -0.208 A  
HETATM    9  C   UNL     1      -6.783  17.029  68.225  1.00  0.00    -0.158 A  
HETATM   10  C   UNL     1      -6.772  16.979  66.826  1.00  0.00    -0.230 A  
HETATM   11  H   UNL     1      -5.577  16.883  65.199  1.00  0.00     0.000 HD 
HETATM   12  C   UNL     1      -7.949  16.996  66.088  1.00  0.00    -0.299 A  
HETATM   13  C   UNL     1      -9.171  17.080  66.754  1.00  0.00    -0.270 A  
HETATM   14  O   UNL     1      -5.585  16.918  66.148  1.00  0.00    -0.291 OA 
BRANCH   9  15
HETATM   15  O   UNL     1      -5.545  17.011  68.815  1.00  0.00    -0.134 OA 
HETATM   16  C   UNL     1      -5.515  17.159  70.230  1.00  0.00    -0.236 C  
ENDBRANCH   9  15
ENDBRANCH   6   7
ENDBRANCH   5   6
ENDBRANCH   4   5
ENDBRANCH   3   4
ENDBRANCH   2   3
TORSDOF 6
ENDMDL
MODEL      153
REMARK 921   NORMALIZED FREE ENERGY PREDICTED BY IDOCK:   -3.39 KCAL/MOL
REMARK 922        TOTAL FREE ENERGY PREDICTED BY IDOCK:   -4.90 KCAL/MOL
REMARK 923 INTER-LIGAND FREE ENERGY PREDICTED BY IDOCK:   -4.67 KCAL/MOL
REMARK 924 INTRA-LIGAND FREE ENERGY PREDICTED BY IDOCK:   -0.22 KCAL/MOL
REMARK 927      BINDING AFFINITY PREDICTED BY RF-SCORE:    0.00 PKD
ROOT
HETATM    1  C   UNL     1      -7.804   6.826  68.100  1.00  0.00    -0.113 C  
HETATM    2  C   UNL     1      -8.051   8.248  67.623  1.00  0.00    -0.126 C  
ENDROOT
BRANCH   2   3
HETATM    3  C   UNL     1      -9.480   8.695  67.919  1.00  0.00    -0.157 C  
BRANCH   3   4
HETATM    4  C   UNL     1      -9.636  10.205  67.772  1.00  0.00    -0.148 C  
BRANCH   4   5
HETATM    5  O   UNL     1     -11.001  10.486  67.473  1.00  0.00    -0.284 OA 
BRANCH   5   6
HETATM    6  C   UNL     1     -11.273  11.884  67.549  1.00  0.00    -0.296 C  
BRANCH   6   7
HETATM    7  C   UNL     1     -11.779  12.221  68.929  1.00  0.00    -0.380 A  
HETATM    8  C   UNL     1     -12.244  11.200  69.779  1.00  0.00    -0.369 A  
HETATM    9  C   UNL     1     -12.770  11.508  71.035  1.00  0.00    -0.328 A  
HETATM   10  C   UNL     1     -12.816  12.848  71.435  1.00  0.00    -0.283 A  
HETATM   11  H   UNL     1     -13.369  14.094  72.927  1.00  0.00     0.000 HD 
HETATM   12  C   UNL     1     -12.348  13.869  70.618  1.00  0.00    -0.451 A  
HETATM   13  C   UNL     1     -11.832  13.555  69.361  1.00  0.00    -0.389 A  
HETATM   14  O   UNL     1     -13.338  13.185  72.655  1.00  0.00    -0.494 OA 
BRANCH   9  15
HETATM   15  O   UNL     1     -13.273  10.613  71.944  1.00  0.00    -0.461 OA 
HETATM   16  C   UNL     1     -12.714   9.305  71.922  1.00  0.00    -0.394 C  
ENDBRANCH   9  15
ENDBRANCH   6   7
ENDBRANCH   5   6
ENDBRANCH   4   5
ENDBRANCH   3   4
ENDBRANCH   2   3
TORSDOF 6
ENDMDL
MODEL      154
REMARK 921   NORMALIZED FREE ENERGY PREDICTED BY IDOCK:   -3.39 KCAL/MOL
REMARK 922        TOTAL FREE ENERGY PREDICTED BY IDOCK:   -4.89 KCAL/MOL
REMARK 923 INTER-LIGAND FREE ENERGY PREDICTED BY IDOCK:   -4.51 KCAL/MOL
REMARK 924 INTRA-LIGAND FREE ENERGY PREDICTED BY IDOCK:   -0.38 KCAL/MOL
REMARK 927      BINDING AFFINITY PREDICTED BY RF-SCORE:    0.00 PKD
ROOT
HETATM    1  C   UNL     1     -10.392   5.008  70.536  1.00  0.00    -0.285 C  
HETATM    2  C   UNL     1      -9.790   6.169  69.761  1.00  0.00    -0.199 C  
ENDROOT
BRANCH   2   3
HETATM    3  C   UNL     1     -10.824   6.830  68.854  1.00  0.00    -0.288 C  
BRANCH   3   4
HETATM    4  C   UNL     1     -10.199   7.308  67.548  1.00  0.00    -0.221 C  
BRANCH   4   5
HETATM    5  O   UNL     1      -9.856   8.685  67.694  1.00  0.00    -0.162 OA 
BRANCH   5   6
HETATM    6  C   UNL     1     -10.624   9.509  66.820  1.00  0.00    -0.137 C  
BRANCH   6   7
HETATM    7  C   UNL     1     -11.131  10.708  67.580  1.00  0.00    -0.385 A  
HETATM    8  C   UNL     1     -11.355  11.926  66.911  1.00  0.00    -0.392 A  
HETATM    9  C   UNL     1     -11.767  13.058  67.616  1.00  0.00    -0.366 A  
HETATM   10  C   UNL     1     -11.961  12.955  68.998  1.00  0.00    -0.251 A  
HETATM   11  H   UNL     1     -12.486  13.980  70.660  1.00  0.00     0.000 HD 
HETATM   12  C   UNL     1     -11.762  11.759  69.676  1.00  0.00    -0.413 A  
HETATM   13  C   UNL     1     -11.342  10.634  68.966  1.00  0.00    -0.340 A  
HETATM   14  O   UNL     1     -12.353  14.050  69.722  1.00  0.00    -0.336 OA 
BRANCH   9  15
HETATM   15  O   UNL     1     -11.997  14.302  67.089  1.00  0.00    -0.405 OA 
HETATM   16  C   UNL     1     -11.158  14.699  66.011  1.00  0.00    -0.332 C  
ENDBRANCH   9  15
ENDBRANCH   6   7
ENDBRANCH   5   6
ENDBRANCH   4   5
ENDBRANCH   3   4
ENDBRANCH   2   3
TORSDOF 6
ENDMDL
MODEL      155
REMARK 921   NORMALIZED FREE ENERGY PREDICTED BY IDOCK:   -3.38 KCAL/MOL
REMARK 922        TOTAL FREE ENERGY PREDICTED BY IDOCK:   -4.88 KCAL/MOL
REMARK 923 INTER-LIGAND FREE ENERGY PREDICTED BY IDOCK:   -4.45 KCAL/MOL
REMARK 924 INTRA-LIGAND FREE ENERGY PREDICTED BY IDOCK:   -0.43 KCAL/MOL
REMARK 927      BINDING AFFINITY PREDICTED BY RF-SCORE:    0.00 PKD
ROOT
HETATM    1  C   UNL     1     -11.378   5.959  72.400  1.00  0.00    -0.358 C  
HETATM    2  C   UNL     1     -11.904   6.395  71.041  1.00  0.00    -0.321 C  
ENDROOT
BRANCH   2   3
HETATM    3  C   UNL     1     -10.909   6.076  69.929  1.00  0.00    -0.434 C  
BRANCH   3   4
HETATM    4  C   UNL     1     -11.403   6.571  68.575  1.00  0.00    -0.082 C  
BRANCH   4   5
HETATM    5  O   UNL     1     -10.381   7.376  67.992  1.00  0.00    -0.184 OA 
BRANCH   5   6
HETATM    6  C   UNL     1      -9.844   8.301  68.936  1.00  0.00    -0.180 C  
BRANCH   6   7
HETATM    7  C   UNL     1     -10.556   9.623  68.801  1.00  0.00    -0.242 A  
HETATM    8  C   UNL     1     -10.811  10.161  67.525  1.00  0.00    -0.349 A  
HETATM    9  C   UNL     1     -11.415  11.412  67.390  1.00  0.00    -0.251 A  
HETATM   10  C   UNL     1     -11.769  12.116  68.547  1.00  0.00    -0.330 A  
HETATM   11  H   UNL     1     -12.592  13.830  69.235  1.00  0.00     0.000 HD 
HETATM   12  C   UNL     1     -11.540  11.597  69.815  1.00  0.00    -0.389 A  
HETATM   13  C   UNL     1     -10.929  10.350  69.942  1.00  0.00    -0.364 A  
HETATM   14  O   UNL     1     -12.351  13.352  68.450  1.00  0.00    -0.193 OA 
BRANCH   9  15
HETATM   15  O   UNL     1     -11.697  12.053  66.212  1.00  0.00    -0.504 OA 
HETATM   16  C   UNL     1     -10.622  12.758  65.601  1.00  0.00    -0.275 C  
ENDBRANCH   9  15
ENDBRANCH   6   7
ENDBRANCH   5   6
ENDBRANCH   4   5
ENDBRANCH   3   4
ENDBRANCH   2   3
TORSDOF 6
ENDMDL
MODEL      156
REMARK 921   NORMALIZED FREE ENERGY PREDICTED BY IDOCK:   -3.38 KCAL/MOL
REMARK 922        TOTAL FREE ENERGY PREDICTED BY IDOCK:   -4.88 KCAL/MOL
REMARK 923 INTER-LIGAND FREE ENERGY PREDICTED BY IDOCK:   -4.62 KCAL/MOL
REMARK 924 INTRA-LIGAND FREE ENERGY PREDICTED BY IDOCK:   -0.26 KCAL/MOL
REMARK 927      BINDING AFFINITY PREDICTED BY RF-SCORE:    0.00 PKD
ROOT
HETATM    1  C   UNL     1     -11.993  11.189  69.124  1.00  0.00    -0.413 C  
HETATM    2  C   UNL     1     -12.342  11.771  70.485  1.00  0.00    -0.387 C  
ENDROOT
BRANCH   2   3
HETATM    3  C   UNL     1     -12.945  10.715  71.406  1.00  0.00    -0.545 C  
BRANCH   3   4
HETATM    4  C   UNL     1     -11.972   9.568  71.655  1.00  0.00    -0.401 C  
BRANCH   4   5
HETATM    5  O   UNL     1     -12.677   8.518  72.314  1.00  0.00    -0.356 OA 
BRANCH   5   6
HETATM    6  C   UNL     1     -12.987   7.454  71.416  1.00  0.00    -0.356 C  
BRANCH   6   7
HETATM    7  C   UNL     1     -11.821   6.501  71.348  1.00  0.00    -0.384 A  
HETATM    8  C   UNL     1     -11.274   5.969  72.531  1.00  0.00    -0.333 A  
HETATM    9  C   UNL     1     -10.157   5.134  72.483  1.00  0.00    -0.180 A  
HETATM   10  C   UNL     1      -9.598   4.828  71.237  1.00  0.00    -0.168 A  
HETATM   11  H   UNL     1      -8.115   3.814  70.310  1.00  0.00     0.000 HD 
HETATM   12  C   UNL     1     -10.132   5.329  70.057  1.00  0.00    -0.336 A  
HETATM   13  C   UNL     1     -11.243   6.170  70.113  1.00  0.00    -0.452 A  
HETATM   14  O   UNL     1      -8.495   4.022  71.156  1.00  0.00    -0.074 OA 
BRANCH   9  15
HETATM   15  O   UNL     1      -9.518   4.571  73.559  1.00  0.00    -0.117 OA 
HETATM   16  C   UNL     1      -8.504   5.356  74.174  1.00  0.00    -0.114 C  
ENDBRANCH   9  15
ENDBRANCH   6   7
ENDBRANCH   5   6
ENDBRANCH   4   5
ENDBRANCH   3   4
ENDBRANCH   2   3
TORSDOF 6
ENDMDL
MODEL      157
REMARK 921   NORMALIZED FREE ENERGY PREDICTED BY IDOCK:   -3.37 KCAL/MOL
REMARK 922        TOTAL FREE ENERGY PREDICTED BY IDOCK:   -4.88 KCAL/MOL
REMARK 923 INTER-LIGAND FREE ENERGY PREDICTED BY IDOCK:   -4.16 KCAL/MOL
REMARK 924 INTRA-LIGAND FREE ENERGY PREDICTED BY IDOCK:   -0.71 KCAL/MOL
REMARK 927      BINDING AFFINITY PREDICTED BY RF-SCORE:    0.00 PKD
ROOT
HETATM    1  C   UNL     1     -10.458   8.015  66.887  1.00  0.00    -0.387 C  
HETATM    2  C   UNL     1      -9.305   7.189  66.338  1.00  0.00    -0.190 C  
ENDROOT
BRANCH   2   3
HETATM    3  C   UNL     1      -8.002   7.494  67.071  1.00  0.00    -0.116 C  
BRANCH   3   4
HETATM    4  C   UNL     1      -8.012   8.895  67.672  1.00  0.00    -0.102 C  
BRANCH   4   5
HETATM    5  O   UNL     1      -7.674   9.825  66.645  1.00  0.00    -0.101 OA 
BRANCH   5   6
HETATM    6  C   UNL     1      -8.252  11.105  66.891  1.00  0.00    -0.149 C  
BRANCH   6   7
HETATM    7  C   UNL     1      -9.341  11.365  65.880  1.00  0.00    -0.247 A  
HETATM    8  C   UNL     1     -10.533  12.001  66.274  1.00  0.00    -0.273 A  
HETATM    9  C   UNL     1     -11.570  12.191  65.360  1.00  0.00    -0.330 A  
HETATM   10  C   UNL     1     -11.398  11.745  64.044  1.00  0.00    -0.381 A  
HETATM   11  H   UNL     1     -12.285  11.602  62.233  1.00  0.00     0.000 HD 
HETATM   12  C   UNL     1     -10.224  11.129  63.632  1.00  0.00    -0.444 A  
HETATM   13  C   UNL     1      -9.195  10.935  64.552  1.00  0.00    -0.226 A  
HETATM   14  O   UNL     1     -12.402  11.905  63.126  1.00  0.00    -0.485 OA 
BRANCH   9  15
HETATM   15  O   UNL     1     -12.784  12.775  65.620  1.00  0.00    -0.549 OA 
HETATM   16  C   UNL     1     -12.750  14.067  66.216  1.00  0.00    -0.183 C  
ENDBRANCH   9  15
ENDBRANCH   6   7
ENDBRANCH   5   6
ENDBRANCH   4   5
ENDBRANCH   3   4
ENDBRANCH   2   3
TORSDOF 6
ENDMDL
MODEL      158
REMARK 921   NORMALIZED FREE ENERGY PREDICTED BY IDOCK:   -3.37 KCAL/MOL
REMARK 922        TOTAL FREE ENERGY PREDICTED BY IDOCK:   -4.87 KCAL/MOL
REMARK 923 INTER-LIGAND FREE ENERGY PREDICTED BY IDOCK:   -4.47 KCAL/MOL
REMARK 924 INTRA-LIGAND FREE ENERGY PREDICTED BY IDOCK:   -0.40 KCAL/MOL
REMARK 927      BINDING AFFINITY PREDICTED BY RF-SCORE:    0.00 PKD
ROOT
HETATM    1  C   UNL     1      -9.172   8.249  66.655  1.00  0.00    -0.224 C  
HETATM    2  C   UNL     1     -10.444   8.795  67.284  1.00  0.00    -0.353 C  
ENDROOT
BRANCH   2   3
HETATM    3  C   UNL     1     -10.255  10.230  67.769  1.00  0.00    -0.225 C  
BRANCH   3   4
HETATM    4  C   UNL     1     -11.569  10.836  68.250  1.00  0.00    -0.221 C  
BRANCH   4   5
HETATM    5  O   UNL     1     -11.950  11.862  67.336  1.00  0.00    -0.603 OA 
BRANCH   5   6
HETATM    6  C   UNL     1     -10.810  12.464  66.724  1.00  0.00    -0.248 C  
BRANCH   6   7
HETATM    7  C   UNL     1     -10.671  13.883  67.215  1.00  0.00    -0.286 A  
HETATM    8  C   UNL     1      -9.447  14.563  67.069  1.00  0.00    -0.247 A  
HETATM    9  C   UNL     1      -9.289  15.855  67.574  1.00  0.00    -0.217 A  
HETATM   10  C   UNL     1     -10.372  16.462  68.218  1.00  0.00    -0.279 A  
HETATM   11  H   UNL     1     -10.982  18.136  69.174  1.00  0.00     0.000 HD 
HETATM   12  C   UNL     1     -11.593  15.815  68.359  1.00  0.00    -0.343 A  
HETATM   13  C   UNL     1     -11.741  14.521  67.859  1.00  0.00    -0.381 A  
HETATM   14  O   UNL     1     -10.247  17.724  68.736  1.00  0.00    -0.366 OA 
BRANCH   9  15
HETATM   15  O   UNL     1      -8.148  16.614  67.517  1.00  0.00    -0.162 OA 
HETATM   16  C   UNL     1      -7.761  17.079  66.229  1.00  0.00    -0.311 C  
ENDBRANCH   9  15
ENDBRANCH   6   7
ENDBRANCH   5   6
ENDBRANCH   4   5
ENDBRANCH   3   4
ENDBRANCH   2   3
TORSDOF 6
ENDMDL
MODEL      159
REMARK 921   NORMALIZED FREE ENERGY PREDICTED BY IDOCK:   -3.36 KCAL/MOL
REMARK 922        TOTAL FREE ENERGY PREDICTED BY IDOCK:   -4.86 KCAL/MOL
REMARK 923 INTER-LIGAND FREE ENERGY PREDICTED BY IDOCK:   -4.48 KCAL/MOL
REMARK 924 INTRA-LIGAND FREE ENERGY PREDICTED BY IDOCK:   -0.38 KCAL/MOL
REMARK 927      BINDING AFFINITY PREDICTED BY RF-SCORE:    0.00 PKD
ROOT
HETATM    1  C   UNL     1      -8.651  11.220  65.797  1.00  0.00    -0.067 C  
HETATM    2  C   UNL     1      -9.961  11.479  65.069  1.00  0.00    -0.305 C  
ENDROOT
BRANCH   2   3
HETATM    3  C   UNL     1     -10.348  12.954  65.125  1.00  0.00    -0.320 C  
BRANCH   3   4
HETATM    4  C   UNL     1     -11.333  13.231  66.255  1.00  0.00    -0.309 C  
BRANCH   4   5
HETATM    5  O   UNL     1     -11.320  14.631  66.527  1.00  0.00    -0.341 OA 
BRANCH   5   6
HETATM    6  C   UNL     1     -10.741  15.365  65.450  1.00  0.00    -0.400 C  
BRANCH   6   7
HETATM    7  C   UNL     1      -9.813  16.417  66.003  1.00  0.00    -0.362 A  
HETATM    8  C   UNL     1     -10.287  17.721  66.245  1.00  0.00    -0.358 A  
HETATM    9  C   UNL     1      -9.421  18.717  66.699  1.00  0.00    -0.319 A  
HETATM   10  C   UNL     1      -8.078  18.392  66.918  1.00  0.00    -0.245 A  
HETATM   11  H   UNL     1      -6.288  19.129  67.501  1.00  0.00     0.000 HD 
HETATM   12  C   UNL     1      -7.594  17.108  66.701  1.00  0.00    -0.299 A  
HETATM   13  C   UNL     1      -8.462  16.120  66.239  1.00  0.00    -0.357 A  
HETATM   14  O   UNL     1      -7.200  19.349  67.352  1.00  0.00    -0.212 OA 
BRANCH   9  15
HETATM   15  O   UNL     1      -9.751  20.024  66.951  1.00  0.00    -0.370 OA 
HETATM   16  C   UNL     1     -10.384  20.288  68.198  1.00  0.00    -0.217 C  
ENDBRANCH   9  15
ENDBRANCH   6   7
ENDBRANCH   5   6
ENDBRANCH   4   5
ENDBRANCH   3   4
ENDBRANCH   2   3
TORSDOF 6
ENDMDL
MODEL      160
REMARK 921   NORMALIZED FREE ENERGY PREDICTED BY IDOCK:   -3.36 KCAL/MOL
REMARK 922        TOTAL FREE ENERGY PREDICTED BY IDOCK:   -4.85 KCAL/MOL
REMARK 923 INTER-LIGAND FREE ENERGY PREDICTED BY IDOCK:   -4.17 KCAL/MOL
REMARK 924 INTRA-LIGAND FREE ENERGY PREDICTED BY IDOCK:   -0.68 KCAL/MOL
REMARK 927      BINDING AFFINITY PREDICTED BY RF-SCORE:    0.00 PKD
ROOT
HETATM    1  C   UNL     1      -7.284  19.026  65.943  1.00  0.00    -0.287 C  
HETATM    2  C   UNL     1      -8.006  19.875  66.977  1.00  0.00    -0.336 C  
ENDROOT
BRANCH   2   3
HETATM    3  C   UNL     1      -9.515  19.870  66.748  1.00  0.00    -0.510 C  
BRANCH   3   4
HETATM    4  C   UNL     1     -10.278  19.639  68.048  1.00  0.00    -0.457 C  
BRANCH   4   5
HETATM    5  O   UNL     1      -9.683  18.534  68.726  1.00  0.00    -0.357 OA 
BRANCH   5   6
HETATM    6  C   UNL     1     -10.596  17.445  68.847  1.00  0.00    -0.243 C  
BRANCH   6   7
HETATM    7  C   UNL     1      -9.983  16.209  68.238  1.00  0.00    -0.226 A  
HETATM    8  C   UNL     1     -10.712  15.005  68.199  1.00  0.00    -0.256 A  
HETATM    9  C   UNL     1     -10.132  13.841  67.693  1.00  0.00    -0.242 A  
HETATM   10  C   UNL     1      -8.817  13.896  67.217  1.00  0.00    -0.221 A  
HETATM   11  H   UNL     1      -7.322  12.807  66.402  1.00  0.00     0.000 HD 
HETATM   12  C   UNL     1      -8.086  15.078  67.231  1.00  0.00    -0.237 A  
HETATM   13  C   UNL     1      -8.669  16.235  67.746  1.00  0.00    -0.182 A  
HETATM   14  O   UNL     1      -8.214  12.769  66.725  1.00  0.00    -0.081 OA 
BRANCH   9  15
HETATM   15  O   UNL     1     -10.723  12.606  67.620  1.00  0.00    -0.213 OA 
HETATM   16  C   UNL     1     -11.775  12.352  68.544  1.00  0.00    -0.326 C  
ENDBRANCH   9  15
ENDBRANCH   6   7
ENDBRANCH   5   6
ENDBRANCH   4   5
ENDBRANCH   3   4
ENDBRANCH   2   3
TORSDOF 6
ENDMDL
MODEL      161
REMARK 921   NORMALIZED FREE ENERGY PREDICTED BY IDOCK:   -3.35 KCAL/MOL
REMARK 922        TOTAL FREE ENERGY PREDICTED BY IDOCK:   -4.84 KCAL/MOL
REMARK 923 INTER-LIGAND FREE ENERGY PREDICTED BY IDOCK:   -4.57 KCAL/MOL
REMARK 924 INTRA-LIGAND FREE ENERGY PREDICTED BY IDOCK:   -0.27 KCAL/MOL
REMARK 927      BINDING AFFINITY PREDICTED BY RF-SCORE:    0.00 PKD
ROOT
HETATM    1  C   UNL     1      -5.755  20.076  71.437  1.00  0.00    -0.382 C  
HETATM    2  C   UNL     1      -6.158  20.340  69.995  1.00  0.00    -0.381 C  
ENDROOT
BRANCH   2   3
HETATM    3  C   UNL     1      -6.535  19.048  69.276  1.00  0.00    -0.321 C  
BRANCH   3   4
HETATM    4  C   UNL     1      -7.867  19.182  68.547  1.00  0.00    -0.345 C  
BRANCH   4   5
HETATM    5  O   UNL     1      -8.543  17.927  68.615  1.00  0.00    -0.302 OA 
BRANCH   5   6
HETATM    6  C   UNL     1      -9.431  17.753  67.513  1.00  0.00    -0.257 C  
BRANCH   6   7
HETATM    7  C   UNL     1      -9.462  16.298  67.121  1.00  0.00    -0.231 A  
HETATM    8  C   UNL     1     -10.435  15.831  66.216  1.00  0.00    -0.315 A  
HETATM    9  C   UNL     1     -10.510  14.475  65.894  1.00  0.00    -0.312 A  
HETATM   10  C   UNL     1      -9.596  13.592  66.479  1.00  0.00    -0.286 A  
HETATM   11  H   UNL     1      -9.030  11.655  66.591  1.00  0.00     0.000 HD 
HETATM   12  C   UNL     1      -8.618  14.035  67.361  1.00  0.00    -0.211 A  
HETATM   13  C   UNL     1      -8.554  15.389  67.685  1.00  0.00    -0.176 A  
HETATM   14  O   UNL     1      -9.651  12.254  66.194  1.00  0.00    -0.242 OA 
BRANCH   9  15
HETATM   15  O   UNL     1     -11.419  13.892  65.049  1.00  0.00    -0.318 OA 
HETATM   16  C   UNL     1     -12.753  13.780  65.533  1.00  0.00    -0.488 C  
ENDBRANCH   9  15
ENDBRANCH   6   7
ENDBRANCH   5   6
ENDBRANCH   4   5
ENDBRANCH   3   4
ENDBRANCH   2   3
TORSDOF 6
ENDMDL
MODEL      162
REMARK 921   NORMALIZED FREE ENERGY PREDICTED BY IDOCK:   -3.34 KCAL/MOL
REMARK 922        TOTAL FREE ENERGY PREDICTED BY IDOCK:   -4.83 KCAL/MOL
REMARK 923 INTER-LIGAND FREE ENERGY PREDICTED BY IDOCK:   -4.51 KCAL/MOL
REMARK 924 INTRA-LIGAND FREE ENERGY PREDICTED BY IDOCK:   -0.32 KCAL/MOL
REMARK 927      BINDING AFFINITY PREDICTED BY RF-SCORE:    0.00 PKD
ROOT
HETATM    1  C   UNL     1      -8.690   6.415  66.753  1.00  0.00    -0.119 C  
HETATM    2  C   UNL     1      -8.649   5.899  68.183  1.00  0.00    -0.113 C  
ENDROOT
BRANCH   2   3
HETATM    3  C   UNL     1      -9.990   5.302  68.600  1.00  0.00    -0.234 C  
BRANCH   3   4
HETATM    4  C   UNL     1     -11.049   6.383  68.787  1.00  0.00    -0.326 C  
BRANCH   4   5
HETATM    5  O   UNL     1     -10.545   7.350  69.706  1.00  0.00    -0.227 OA 
BRANCH   5   6
HETATM    6  C   UNL     1     -11.434   7.538  70.805  1.00  0.00    -0.284 C  
BRANCH   6   7
HETATM    7  C   UNL     1     -11.847   8.987  70.871  1.00  0.00    -0.302 A  
HETATM    8  C   UNL     1     -11.290   9.922  69.978  1.00  0.00    -0.303 A  
HETATM    9  C   UNL     1     -11.620  11.274  70.070  1.00  0.00    -0.321 A  
HETATM   10  C   UNL     1     -12.521  11.681  71.061  1.00  0.00    -0.334 A  
HETATM   11  H   UNL     1     -13.468  13.279  71.859  1.00  0.00     0.000 HD 
HETATM   12  C   UNL     1     -13.094  10.773  71.942  1.00  0.00    -0.557 A  
HETATM   13  C   UNL     1     -12.753   9.424  71.849  1.00  0.00    -0.484 A  
HETATM   14  O   UNL     1     -12.856  13.003  71.187  1.00  0.00    -0.323 OA 
BRANCH   9  15
HETATM   15  O   UNL     1     -11.133  12.283  69.279  1.00  0.00    -0.225 OA 
HETATM   16  C   UNL     1     -11.740  12.435  68.001  1.00  0.00    -0.356 C  
ENDBRANCH   9  15
ENDBRANCH   6   7
ENDBRANCH   5   6
ENDBRANCH   4   5
ENDBRANCH   3   4
ENDBRANCH   2   3
TORSDOF 6
ENDMDL
MODEL      163
REMARK 921   NORMALIZED FREE ENERGY PREDICTED BY IDOCK:   -3.33 KCAL/MOL
REMARK 922        TOTAL FREE ENERGY PREDICTED BY IDOCK:   -4.81 KCAL/MOL
REMARK 923 INTER-LIGAND FREE ENERGY PREDICTED BY IDOCK:   -4.13 KCAL/MOL
REMARK 924 INTRA-LIGAND FREE ENERGY PREDICTED BY IDOCK:   -0.69 KCAL/MOL
REMARK 927      BINDING AFFINITY PREDICTED BY RF-SCORE:    0.00 PKD
ROOT
HETATM    1  C   UNL     1     -11.145  15.764  70.646  1.00  0.00    -0.376 C  
HETATM    2  C   UNL     1     -12.272  15.165  69.819  1.00  0.00    -0.325 C  
ENDROOT
BRANCH   2   3
HETATM    3  C   UNL     1     -11.766  14.658  68.472  1.00  0.00    -0.348 C  
BRANCH   3   4
HETATM    4  C   UNL     1     -10.702  13.580  68.643  1.00  0.00    -0.253 C  
BRANCH   4   5
HETATM    5  O   UNL     1      -9.626  13.867  67.752  1.00  0.00    -0.210 OA 
BRANCH   5   6
HETATM    6  C   UNL     1      -8.535  14.483  68.434  1.00  0.00    -0.163 C  
BRANCH   6   7
HETATM    7  C   UNL     1      -8.332  15.877  67.894  1.00  0.00    -0.158 A  
HETATM    8  C   UNL     1      -8.136  16.955  68.778  1.00  0.00    -0.251 A  
HETATM    9  C   UNL     1      -8.008  18.256  68.291  1.00  0.00    -0.300 A  
HETATM   10  C   UNL     1      -8.068  18.467  66.909  1.00  0.00    -0.245 A  
HETATM   11  H   UNL     1      -7.998  19.876  65.461  1.00  0.00     0.000 HD 
HETATM   12  C   UNL     1      -8.244  17.415  66.019  1.00  0.00    -0.161 A  
HETATM   13  C   UNL     1      -8.380  16.119  66.513  1.00  0.00    -0.352 A  
HETATM   14  O   UNL     1      -7.958  19.733  66.400  1.00  0.00    -0.288 OA 
BRANCH   9  15
HETATM   15  O   UNL     1      -7.835  19.390  69.043  1.00  0.00    -0.357 OA 
HETATM   16  C   UNL     1      -6.533  19.606  69.574  1.00  0.00    -0.339 C  
ENDBRANCH   9  15
ENDBRANCH   6   7
ENDBRANCH   5   6
ENDBRANCH   4   5
ENDBRANCH   3   4
ENDBRANCH   2   3
TORSDOF 6
ENDMDL
MODEL      164
REMARK 921   NORMALIZED FREE ENERGY PREDICTED BY IDOCK:   -3.32 KCAL/MOL
REMARK 922        TOTAL FREE ENERGY PREDICTED BY IDOCK:   -4.81 KCAL/MOL
REMARK 923 INTER-LIGAND FREE ENERGY PREDICTED BY IDOCK:   -4.15 KCAL/MOL
REMARK 924 INTRA-LIGAND FREE ENERGY PREDICTED BY IDOCK:   -0.66 KCAL/MOL
REMARK 927      BINDING AFFINITY PREDICTED BY RF-SCORE:    0.00 PKD
ROOT
HETATM    1  C   UNL     1      -6.623  12.198  68.480  1.00  0.00    -0.063 C  
HETATM    2  C   UNL     1      -7.759  11.393  67.870  1.00  0.00    -0.114 C  
ENDROOT
BRANCH   2   3
HETATM    3  C   UNL     1      -8.136  10.205  68.750  1.00  0.00    -0.111 C  
BRANCH   3   4
HETATM    4  C   UNL     1      -9.124   9.279  68.049  1.00  0.00    -0.127 C  
BRANCH   4   5
HETATM    5  O   UNL     1      -9.990  10.076  67.243  1.00  0.00    -0.179 OA 
BRANCH   5   6
HETATM    6  C   UNL     1     -11.271  10.232  67.851  1.00  0.00    -0.220 C  
BRANCH   6   7
HETATM    7  C   UNL     1     -11.487  11.684  68.196  1.00  0.00    -0.382 A  
HETATM    8  C   UNL     1     -11.674  12.071  69.536  1.00  0.00    -0.408 A  
HETATM    9  C   UNL     1     -11.936  13.403  69.859  1.00  0.00    -0.338 A  
HETATM   10  C   UNL     1     -12.000  14.346  68.827  1.00  0.00    -0.295 A  
HETATM   11  H   UNL     1     -12.310  16.299  68.408  1.00  0.00     0.000 HD 
HETATM   12  C   UNL     1     -11.803  13.988  67.500  1.00  0.00    -0.442 A  
HETATM   13  C   UNL     1     -11.550  12.653  67.183  1.00  0.00    -0.434 A  
HETATM   14  O   UNL     1     -12.267  15.659  69.109  1.00  0.00    -0.298 OA 
BRANCH   9  15
HETATM   15  O   UNL     1     -12.157  13.904  71.117  1.00  0.00    -0.344 OA 
HETATM   16  C   UNL     1     -13.330  13.451  71.782  1.00  0.00    -0.394 C  
ENDBRANCH   9  15
ENDBRANCH   6   7
ENDBRANCH   5   6
ENDBRANCH   4   5
ENDBRANCH   3   4
ENDBRANCH   2   3
TORSDOF 6
ENDMDL
MODEL      165
REMARK 921   NORMALIZED FREE ENERGY PREDICTED BY IDOCK:   -3.32 KCAL/MOL
REMARK 922        TOTAL FREE ENERGY PREDICTED BY IDOCK:   -4.80 KCAL/MOL
REMARK 923 INTER-LIGAND FREE ENERGY PREDICTED BY IDOCK:   -4.36 KCAL/MOL
REMARK 924 INTRA-LIGAND FREE ENERGY PREDICTED BY IDOCK:   -0.44 KCAL/MOL
REMARK 927      BINDING AFFINITY PREDICTED BY RF-SCORE:    0.00 PKD
ROOT
HETATM    1  C   UNL     1     -12.971  15.784  72.661  1.00  0.00    -0.569 C  
HETATM    2  C   UNL     1     -12.813  14.278  72.791  1.00  0.00    -0.479 C  
ENDROOT
BRANCH   2   3
HETATM    3  C   UNL     1     -13.347  13.552  71.560  1.00  0.00    -0.363 C  
BRANCH   3   4
HETATM    4  C   UNL     1     -12.219  13.128  70.626  1.00  0.00    -0.321 C  
BRANCH   4   5
HETATM    5  O   UNL     1     -12.303  13.914  69.438  1.00  0.00    -0.329 OA 
BRANCH   5   6
HETATM    6  C   UNL     1     -11.117  13.798  68.653  1.00  0.00    -0.267 C  
BRANCH   6   7
HETATM    7  C   UNL     1     -10.439  15.142  68.571  1.00  0.00    -0.233 A  
HETATM    8  C   UNL     1      -9.089  15.229  68.182  1.00  0.00    -0.174 A  
HETATM    9  C   UNL     1      -8.435  16.462  68.161  1.00  0.00    -0.188 A  
HETATM   10  C   UNL     1      -9.149  17.609  68.526  1.00  0.00    -0.279 A  
HETATM   11  H   UNL     1      -9.018  19.610  68.776  1.00  0.00     0.000 HD 
HETATM   12  C   UNL     1     -10.486  17.547  68.898  1.00  0.00    -0.286 A  
HETATM   13  C   UNL     1     -11.131  16.311  68.924  1.00  0.00    -0.345 A  
HETATM   14  O   UNL     1      -8.533  18.832  68.529  1.00  0.00    -0.329 OA 
BRANCH   9  15
HETATM   15  O   UNL     1      -7.123  16.678  67.824  1.00  0.00    -0.127 OA 
HETATM   16  C   UNL     1      -6.835  16.776  66.434  1.00  0.00    -0.070 C  
ENDBRANCH   9  15
ENDBRANCH   6   7
ENDBRANCH   5   6
ENDBRANCH   4   5
ENDBRANCH   3   4
ENDBRANCH   2   3
TORSDOF 6
ENDMDL
MODEL      166
REMARK 921   NORMALIZED FREE ENERGY PREDICTED BY IDOCK:   -3.31 KCAL/MOL
REMARK 922        TOTAL FREE ENERGY PREDICTED BY IDOCK:   -4.79 KCAL/MOL
REMARK 923 INTER-LIGAND FREE ENERGY PREDICTED BY IDOCK:   -4.24 KCAL/MOL
REMARK 924 INTRA-LIGAND FREE ENERGY PREDICTED BY IDOCK:   -0.55 KCAL/MOL
REMARK 927      BINDING AFFINITY PREDICTED BY RF-SCORE:    0.00 PKD
ROOT
HETATM    1  C   UNL     1      -9.766  10.367  64.752  1.00  0.00    -0.383 C  
HETATM    2  C   UNL     1      -9.689  11.088  63.416  1.00  0.00    -0.383 C  
ENDROOT
BRANCH   2   3
HETATM    3  C   UNL     1     -10.341  12.466  63.487  1.00  0.00    -0.397 C  
BRANCH   3   4
HETATM    4  C   UNL     1     -11.611  12.441  64.330  1.00  0.00    -0.354 C  
BRANCH   4   5
HETATM    5  O   UNL     1     -11.500  13.445  65.337  1.00  0.00    -0.298 OA 
BRANCH   5   6
HETATM    6  C   UNL     1     -10.643  14.507  64.922  1.00  0.00    -0.427 C  
BRANCH   6   7
HETATM    7  C   UNL     1      -9.746  14.903  66.067  1.00  0.00    -0.358 A  
HETATM    8  C   UNL     1      -8.990  16.089  65.994  1.00  0.00    -0.345 A  
HETATM    9  C   UNL     1      -8.112  16.433  67.023  1.00  0.00    -0.201 A  
HETATM   10  C   UNL     1      -8.005  15.584  68.129  1.00  0.00    -0.131 A  
HETATM   11  H   UNL     1      -7.070  15.310  69.901  1.00  0.00     0.000 HD 
HETATM   12  C   UNL     1      -8.753  14.418  68.228  1.00  0.00    -0.180 A  
HETATM   13  C   UNL     1      -9.623  14.075  67.193  1.00  0.00    -0.245 A  
HETATM   14  O   UNL     1      -7.142  15.886  69.149  1.00  0.00    -0.159 OA 
BRANCH   9  15
HETATM   15  O   UNL     1      -7.307  17.543  67.064  1.00  0.00    -0.175 OA 
HETATM   16  C   UNL     1      -6.233  17.581  66.131  1.00  0.00    -0.206 C  
ENDBRANCH   9  15
ENDBRANCH   6   7
ENDBRANCH   5   6
ENDBRANCH   4   5
ENDBRANCH   3   4
ENDBRANCH   2   3
TORSDOF 6
ENDMDL
MODEL      167
REMARK 921   NORMALIZED FREE ENERGY PREDICTED BY IDOCK:   -3.31 KCAL/MOL
REMARK 922        TOTAL FREE ENERGY PREDICTED BY IDOCK:   -4.78 KCAL/MOL
REMARK 923 INTER-LIGAND FREE ENERGY PREDICTED BY IDOCK:   -4.16 KCAL/MOL
REMARK 924 INTRA-LIGAND FREE ENERGY PREDICTED BY IDOCK:   -0.63 KCAL/MOL
REMARK 927      BINDING AFFINITY PREDICTED BY RF-SCORE:    0.00 PKD
ROOT
HETATM    1  C   UNL     1      -6.476  12.095  67.449  1.00  0.00    -0.149 C  
HETATM    2  C   UNL     1      -7.735  11.323  67.088  1.00  0.00    -0.147 C  
ENDROOT
BRANCH   2   3
HETATM    3  C   UNL     1      -8.013  10.209  68.093  1.00  0.00    -0.104 C  
BRANCH   3   4
HETATM    4  C   UNL     1      -9.099   9.262  67.593  1.00  0.00    -0.125 C  
BRANCH   4   5
HETATM    5  O   UNL     1     -10.044  10.021  66.843  1.00  0.00    -0.208 OA 
BRANCH   5   6
HETATM    6  C   UNL     1     -11.245  10.234  67.582  1.00  0.00    -0.158 C  
BRANCH   6   7
HETATM    7  C   UNL     1     -11.471  11.715  67.754  1.00  0.00    -0.373 A  
HETATM    8  C   UNL     1     -11.433  12.570  66.637  1.00  0.00    -0.417 A  
HETATM    9  C   UNL     1     -11.580  13.949  66.794  1.00  0.00    -0.378 A  
HETATM   10  C   UNL     1     -11.774  14.463  68.081  1.00  0.00    -0.342 A  
HETATM   11  H   UNL     1     -12.041  16.162  69.144  1.00  0.00     0.000 HD 
HETATM   12  C   UNL     1     -11.830  13.635  69.195  1.00  0.00    -0.394 A  
HETATM   13  C   UNL     1     -11.674  12.259  69.032  1.00  0.00    -0.376 A  
HETATM   14  O   UNL     1     -11.909  15.812  68.271  1.00  0.00    -0.301 OA 
BRANCH   9  15
HETATM   15  O   UNL     1     -11.541  14.888  65.795  1.00  0.00    -0.325 OA 
HETATM   16  C   UNL     1     -10.333  14.967  65.047  1.00  0.00    -0.357 C  
ENDBRANCH   9  15
ENDBRANCH   6   7
ENDBRANCH   5   6
ENDBRANCH   4   5
ENDBRANCH   3   4
ENDBRANCH   2   3
TORSDOF 6
ENDMDL
MODEL      168
REMARK 921   NORMALIZED FREE ENERGY PREDICTED BY IDOCK:   -3.30 KCAL/MOL
REMARK 922        TOTAL FREE ENERGY PREDICTED BY IDOCK:   -4.78 KCAL/MOL
REMARK 923 INTER-LIGAND FREE ENERGY PREDICTED BY IDOCK:   -4.66 KCAL/MOL
REMARK 924 INTRA-LIGAND FREE ENERGY PREDICTED BY IDOCK:   -0.12 KCAL/MOL
REMARK 927      BINDING AFFINITY PREDICTED BY RF-SCORE:    0.00 PKD
ROOT
HETATM    1  C   UNL     1     -12.733  15.961  72.363  1.00  0.00    -0.525 C  
HETATM    2  C   UNL     1     -11.966  15.049  71.419  1.00  0.00    -0.397 C  
ENDROOT
BRANCH   2   3
HETATM    3  C   UNL     1     -12.073  15.526  69.973  1.00  0.00    -0.391 C  
BRANCH   3   4
HETATM    4  C   UNL     1     -10.708  15.888  69.401  1.00  0.00    -0.272 C  
BRANCH   4   5
HETATM    5  O   UNL     1     -10.635  17.308  69.281  1.00  0.00    -0.319 OA 
BRANCH   5   6
HETATM    6  C   UNL     1     -10.465  17.707  67.922  1.00  0.00    -0.392 C  
BRANCH   6   7
HETATM    7  C   UNL     1      -9.129  18.389  67.765  1.00  0.00    -0.288 A  
HETATM    8  C   UNL     1      -8.521  18.468  66.498  1.00  0.00    -0.291 A  
HETATM    9  C   UNL     1      -7.257  19.043  66.353  1.00  0.00    -0.236 A  
HETATM   10  C   UNL     1      -6.613  19.547  67.488  1.00  0.00    -0.212 A  
HETATM   11  H   UNL     1      -4.929  20.448  68.152  1.00  0.00     0.000 HD 
HETATM   12  C   UNL     1      -7.202  19.493  68.744  1.00  0.00    -0.391 A  
HETATM   13  C   UNL     1      -8.461  18.910  68.884  1.00  0.00    -0.269 A  
HETATM   14  O   UNL     1      -5.367  20.105  67.381  1.00  0.00    -0.170 OA 
BRANCH   9  15
HETATM   15  O   UNL     1      -6.550  19.161  65.184  1.00  0.00    -0.381 OA 
HETATM   16  C   UNL     1      -6.672  20.398  64.492  1.00  0.00    -0.126 C  
ENDBRANCH   9  15
ENDBRANCH   6   7
ENDBRANCH   5   6
ENDBRANCH   4   5
ENDBRANCH   3   4
ENDBRANCH   2   3
TORSDOF 6
ENDMDL
MODEL      169
REMARK 921   NORMALIZED FREE ENERGY PREDICTED BY IDOCK:   -3.30 KCAL/MOL
REMARK 922        TOTAL FREE ENERGY PREDICTED BY IDOCK:   -4.77 KCAL/MOL
REMARK 923 INTER-LIGAND FREE ENERGY PREDICTED BY IDOCK:   -4.26 KCAL/MOL
REMARK 924 INTRA-LIGAND FREE ENERGY PREDICTED BY IDOCK:   -0.51 KCAL/MOL
REMARK 927      BINDING AFFINITY PREDICTED BY RF-SCORE:    0.00 PKD
ROOT
HETATM    1  C   UNL     1     -11.862  11.630  68.410  1.00  0.00    -0.346 C  
HETATM    2  C   UNL     1     -11.472  12.098  67.017  1.00  0.00    -0.415 C  
ENDROOT
BRANCH   2   3
HETATM    3  C   UNL     1     -10.839  10.970  66.207  1.00  0.00    -0.234 C  
BRANCH   3   4
HETATM    4  C   UNL     1      -9.424  10.663  66.684  1.00  0.00    -0.167 C  
BRANCH   4   5
HETATM    5  O   UNL     1      -9.320   9.258  66.905  1.00  0.00    -0.141 OA 
BRANCH   5   6
HETATM    6  C   UNL     1      -8.795   8.972  68.200  1.00  0.00    -0.133 C  
BRANCH   6   7
HETATM    7  C   UNL     1      -9.878   8.364  69.055  1.00  0.00    -0.184 A  
HETATM    8  C   UNL     1     -10.464   9.115  70.092  1.00  0.00    -0.249 A  
HETATM    9  C   UNL     1     -11.424   8.541  70.927  1.00  0.00    -0.267 A  
HETATM   10  C   UNL     1     -11.797   7.210  70.709  1.00  0.00    -0.325 A  
HETATM   11  H   UNL     1     -12.979   5.710  71.371  1.00  0.00     0.000 HD 
HETATM   12  C   UNL     1     -11.242   6.457  69.683  1.00  0.00    -0.483 A  
HETATM   13  C   UNL     1     -10.278   7.033  68.857  1.00  0.00    -0.183 A  
HETATM   14  O   UNL     1     -12.726   6.613  71.519  1.00  0.00    -0.323 OA 
BRANCH   9  15
HETATM   15  O   UNL     1     -12.052   9.154  71.980  1.00  0.00    -0.367 OA 
HETATM   16  C   UNL     1     -13.095  10.065  71.652  1.00  0.00    -0.445 C  
ENDBRANCH   9  15
ENDBRANCH   6   7
ENDBRANCH   5   6
ENDBRANCH   4   5
ENDBRANCH   3   4
ENDBRANCH   2   3
TORSDOF 6
ENDMDL
MODEL      170
REMARK 921   NORMALIZED FREE ENERGY PREDICTED BY IDOCK:   -3.26 KCAL/MOL
REMARK 922        TOTAL FREE ENERGY PREDICTED BY IDOCK:   -4.73 KCAL/MOL
REMARK 923 INTER-LIGAND FREE ENERGY PREDICTED BY IDOCK:   -4.50 KCAL/MOL
REMARK 924 INTRA-LIGAND FREE ENERGY PREDICTED BY IDOCK:   -0.22 KCAL/MOL
REMARK 927      BINDING AFFINITY PREDICTED BY RF-SCORE:    0.00 PKD
ROOT
HETATM    1  C   UNL     1     -11.631  15.290  64.683  1.00  0.00    -0.333 C  
HETATM    2  C   UNL     1     -11.149  14.512  65.897  1.00  0.00    -0.327 C  
ENDROOT
BRANCH   2   3
HETATM    3  C   UNL     1     -11.554  13.043  65.815  1.00  0.00    -0.396 C  
BRANCH   3   4
HETATM    4  C   UNL     1     -10.384  12.121  66.137  1.00  0.00    -0.234 C  
BRANCH   4   5
HETATM    5  O   UNL     1     -10.905  10.838  66.478  1.00  0.00    -0.218 OA 
BRANCH   5   6
HETATM    6  C   UNL     1      -9.873   9.856  66.540  1.00  0.00    -0.215 C  
BRANCH   6   7
HETATM    7  C   UNL     1     -10.275   8.768  67.503  1.00  0.00    -0.309 A  
HETATM    8  C   UNL     1     -10.417   9.055  68.874  1.00  0.00    -0.231 A  
HETATM    9  C   UNL     1     -10.730   8.043  69.782  1.00  0.00    -0.231 A  
HETATM   10  C   UNL     1     -10.908   6.740  69.303  1.00  0.00    -0.264 A  
HETATM   11  H   UNL     1     -11.324   4.837  69.844  1.00  0.00     0.000 HD 
HETATM   12  C   UNL     1     -10.788   6.438  67.952  1.00  0.00    -0.404 A  
HETATM   13  C   UNL     1     -10.467   7.453  67.052  1.00  0.00    -0.404 A  
HETATM   14  O   UNL     1     -11.202   5.721  70.169  1.00  0.00    -0.319 OA 
BRANCH   9  15
HETATM   15  O   UNL     1     -10.874   8.186  71.138  1.00  0.00    -0.225 OA 
HETATM   16  C   UNL     1     -11.523   9.371  71.584  1.00  0.00    -0.393 C  
ENDBRANCH   9  15
ENDBRANCH   6   7
ENDBRANCH   5   6
ENDBRANCH   4   5
ENDBRANCH   3   4
ENDBRANCH   2   3
TORSDOF 6
ENDMDL
MODEL      171
REMARK 921   NORMALIZED FREE ENERGY PREDICTED BY IDOCK:   -3.25 KCAL/MOL
REMARK 922        TOTAL FREE ENERGY PREDICTED BY IDOCK:   -4.71 KCAL/MOL
REMARK 923 INTER-LIGAND FREE ENERGY PREDICTED BY IDOCK:   -4.09 KCAL/MOL
REMARK 924 INTRA-LIGAND FREE ENERGY PREDICTED BY IDOCK:   -0.62 KCAL/MOL
REMARK 927      BINDING AFFINITY PREDICTED BY RF-SCORE:    0.00 PKD
ROOT
HETATM    1  C   UNL     1      -8.767  10.567  68.879  1.00  0.00    -0.154 C  
HETATM    2  C   UNL     1      -7.453  10.688  68.123  1.00  0.00    -0.090 C  
ENDROOT
BRANCH   2   3
HETATM    3  C   UNL     1      -7.683  11.039  66.656  1.00  0.00    -0.153 C  
BRANCH   3   4
HETATM    4  C   UNL     1      -9.072  10.616  66.191  1.00  0.00    -0.170 C  
BRANCH   4   5
HETATM    5  O   UNL     1      -9.491  11.509  65.161  1.00  0.00    -0.225 OA 
BRANCH   5   6
HETATM    6  C   UNL     1     -10.859  11.880  65.317  1.00  0.00    -0.297 C  
BRANCH   6   7
HETATM    7  C   UNL     1     -10.952  13.073  66.235  1.00  0.00    -0.303 A  
HETATM    8  C   UNL     1     -11.653  12.974  67.452  1.00  0.00    -0.407 A  
HETATM    9  C   UNL     1     -11.797  14.089  68.280  1.00  0.00    -0.371 A  
HETATM   10  C   UNL     1     -11.223  15.301  67.881  1.00  0.00    -0.331 A  
HETATM   11  H   UNL     1     -10.967  17.240  68.394  1.00  0.00     0.000 HD 
HETATM   12  C   UNL     1     -10.514  15.416  66.692  1.00  0.00    -0.293 A  
HETATM   13  C   UNL     1     -10.382  14.300  65.866  1.00  0.00    -0.325 A  
HETATM   14  O   UNL     1     -11.357  16.417  68.664  1.00  0.00    -0.355 OA 
BRANCH   9  15
HETATM   15  O   UNL     1     -12.470  14.130  69.474  1.00  0.00    -0.298 OA 
HETATM   16  C   UNL     1     -12.117  13.143  70.435  1.00  0.00    -0.317 C  
ENDBRANCH   9  15
ENDBRANCH   6   7
ENDBRANCH   5   6
ENDBRANCH   4   5
ENDBRANCH   3   4
ENDBRANCH   2   3
TORSDOF 6
ENDMDL
MODEL      172
REMARK 921   NORMALIZED FREE ENERGY PREDICTED BY IDOCK:   -3.25 KCAL/MOL
REMARK 922        TOTAL FREE ENERGY PREDICTED BY IDOCK:   -4.71 KCAL/MOL
REMARK 923 INTER-LIGAND FREE ENERGY PREDICTED BY IDOCK:   -4.22 KCAL/MOL
REMARK 924 INTRA-LIGAND FREE ENERGY PREDICTED BY IDOCK:   -0.49 KCAL/MOL
REMARK 927      BINDING AFFINITY PREDICTED BY RF-SCORE:    0.00 PKD
ROOT
HETATM    1  C   UNL     1      -7.884   5.247  70.501  1.00  0.00    -0.084 C  
HETATM    2  C   UNL     1      -9.341   5.678  70.453  1.00  0.00    -0.193 C  
ENDROOT
BRANCH   2   3
HETATM    3  C   UNL     1     -10.177   4.936  71.491  1.00  0.00    -0.264 C  
BRANCH   3   4
HETATM    4  C   UNL     1     -10.867   5.901  72.449  1.00  0.00    -0.244 C  
BRANCH   4   5
HETATM    5  O   UNL     1     -10.463   7.227  72.116  1.00  0.00    -0.198 OA 
BRANCH   5   6
HETATM    6  C   UNL     1     -11.420   8.189  72.555  1.00  0.00    -0.404 C  
BRANCH   6   7
HETATM    7  C   UNL     1     -11.529   9.290  71.530  1.00  0.00    -0.454 A  
HETATM    8  C   UNL     1     -12.345  10.410  71.780  1.00  0.00    -0.313 A  
HETATM    9  C   UNL     1     -12.500  11.404  70.813  1.00  0.00    -0.365 A  
HETATM   10  C   UNL     1     -11.822  11.271  69.596  1.00  0.00    -0.360 A  
HETATM   11  H   UNL     1     -11.502  12.132  67.796  1.00  0.00     0.000 HD 
HETATM   12  C   UNL     1     -11.000  10.182  69.336  1.00  0.00    -0.285 A  
HETATM   13  C   UNL     1     -10.856   9.188  70.303  1.00  0.00    -0.282 A  
HETATM   14  O   UNL     1     -11.962  12.222  68.622  1.00  0.00    -0.309 OA 
BRANCH   9  15
HETATM   15  O   UNL     1     -13.278  12.528  70.924  1.00  0.00     0.043 OA 
HETATM   16  C   UNL     1     -13.404  13.085  72.227  1.00  0.00    -0.506 C  
ENDBRANCH   9  15
ENDBRANCH   6   7
ENDBRANCH   5   6
ENDBRANCH   4   5
ENDBRANCH   3   4
ENDBRANCH   2   3
TORSDOF 6
ENDMDL
MODEL      173
REMARK 921   NORMALIZED FREE ENERGY PREDICTED BY IDOCK:   -3.25 KCAL/MOL
REMARK 922        TOTAL FREE ENERGY PREDICTED BY IDOCK:   -4.70 KCAL/MOL
REMARK 923 INTER-LIGAND FREE ENERGY PREDICTED BY IDOCK:   -4.16 KCAL/MOL
REMARK 924 INTRA-LIGAND FREE ENERGY PREDICTED BY IDOCK:   -0.54 KCAL/MOL
REMARK 927      BINDING AFFINITY PREDICTED BY RF-SCORE:    0.00 PKD
ROOT
HETATM    1  C   UNL     1      -7.702   8.427  69.100  1.00  0.00    -0.092 C  
HETATM    2  C   UNL     1      -8.120   8.817  67.691  1.00  0.00    -0.106 C  
ENDROOT
BRANCH   2   3
HETATM    3  C   UNL     1      -8.908   7.699  67.014  1.00  0.00    -0.135 C  
BRANCH   3   4
HETATM    4  C   UNL     1     -10.391   8.038  66.920  1.00  0.00    -0.338 C  
BRANCH   4   5
HETATM    5  O   UNL     1     -11.139   6.875  67.272  1.00  0.00    -0.339 OA 
BRANCH   5   6
HETATM    6  C   UNL     1     -10.301   5.866  67.831  1.00  0.00    -0.211 C  
BRANCH   6   7
HETATM    7  C   UNL     1     -10.582   5.745  69.308  1.00  0.00    -0.376 A  
HETATM    8  C   UNL     1     -11.533   6.585  69.917  1.00  0.00    -0.467 A  
HETATM    9  C   UNL     1     -11.757   6.522  71.293  1.00  0.00    -0.331 A  
HETATM   10  C   UNL     1     -11.024   5.602  72.052  1.00  0.00    -0.243 A  
HETATM   11  H   UNL     1     -10.713   4.900  73.922  1.00  0.00     0.000 HD 
HETATM   12  C   UNL     1     -10.092   4.754  71.468  1.00  0.00    -0.260 A  
HETATM   13  C   UNL     1      -9.868   4.828  70.094  1.00  0.00    -0.308 A  
HETATM   14  O   UNL     1     -11.210   5.524  73.407  1.00  0.00    -0.271 OA 
BRANCH   9  15
HETATM   15  O   UNL     1     -12.635   7.295  72.008  1.00  0.00    -0.288 OA 
HETATM   16  C   UNL     1     -13.961   7.382  71.500  1.00  0.00    -0.396 C  
ENDBRANCH   9  15
ENDBRANCH   6   7
ENDBRANCH   5   6
ENDBRANCH   4   5
ENDBRANCH   3   4
ENDBRANCH   2   3
TORSDOF 6
ENDMDL
MODEL      174
REMARK 921   NORMALIZED FREE ENERGY PREDICTED BY IDOCK:   -3.23 KCAL/MOL
REMARK 922        TOTAL FREE ENERGY PREDICTED BY IDOCK:   -4.68 KCAL/MOL
REMARK 923 INTER-LIGAND FREE ENERGY PREDICTED BY IDOCK:   -4.15 KCAL/MOL
REMARK 924 INTRA-LIGAND FREE ENERGY PREDICTED BY IDOCK:   -0.52 KCAL/MOL
REMARK 927      BINDING AFFINITY PREDICTED BY RF-SCORE:    0.00 PKD
ROOT
HETATM    1  C   UNL     1     -11.886  12.579  68.915  1.00  0.00    -0.346 C  
HETATM    2  C   UNL     1     -11.578  12.689  67.430  1.00  0.00    -0.421 C  
ENDROOT
BRANCH   2   3
HETATM    3  C   UNL     1     -10.961  11.401  66.892  1.00  0.00    -0.355 C  
BRANCH   3   4
HETATM    4  C   UNL     1      -9.497  11.269  67.296  1.00  0.00    -0.173 C  
BRANCH   4   5
HETATM    5  O   UNL     1      -9.331  10.026  67.975  1.00  0.00    -0.131 OA 
BRANCH   5   6
HETATM    6  C   UNL     1      -8.584  10.186  69.179  1.00  0.00    -0.165 C  
BRANCH   6   7
HETATM    7  C   UNL     1      -9.342   9.563  70.324  1.00  0.00    -0.305 A  
HETATM    8  C   UNL     1      -8.664   8.773  71.273  1.00  0.00    -0.273 A  
HETATM    9  C   UNL     1      -9.366   8.143  72.301  1.00  0.00    -0.224 A  
HETATM   10  C   UNL     1     -10.752   8.319  72.376  1.00  0.00    -0.341 A  
HETATM   11  H   UNL     1     -12.413   7.823  73.417  1.00  0.00     0.000 HD 
HETATM   12  C   UNL     1     -11.438   9.106  71.460  1.00  0.00    -0.437 A  
HETATM   13  C   UNL     1     -10.731   9.727  70.430  1.00  0.00    -0.368 A  
HETATM   14  O   UNL     1     -11.472   7.703  73.365  1.00  0.00    -0.229 OA 
BRANCH   9  15
HETATM   15  O   UNL     1      -8.831   7.334  73.270  1.00  0.00    -0.129 OA 
HETATM   16  C   UNL     1      -8.040   7.975  74.264  1.00  0.00    -0.258 C  
ENDBRANCH   9  15
ENDBRANCH   6   7
ENDBRANCH   5   6
ENDBRANCH   4   5
ENDBRANCH   3   4
ENDBRANCH   2   3
TORSDOF 6
ENDMDL
MODEL      175
REMARK 921   NORMALIZED FREE ENERGY PREDICTED BY IDOCK:   -3.22 KCAL/MOL
REMARK 922        TOTAL FREE ENERGY PREDICTED BY IDOCK:   -4.66 KCAL/MOL
REMARK 923 INTER-LIGAND FREE ENERGY PREDICTED BY IDOCK:   -4.40 KCAL/MOL
REMARK 924 INTRA-LIGAND FREE ENERGY PREDICTED BY IDOCK:   -0.26 KCAL/MOL
REMARK 927      BINDING AFFINITY PREDICTED BY RF-SCORE:    0.00 PKD
ROOT
HETATM    1  C   UNL     1      -9.209   6.699  69.127  1.00  0.00    -0.136 C  
HETATM    2  C   UNL     1     -10.534   7.095  68.496  1.00  0.00    -0.229 C  
ENDROOT
BRANCH   2   3
HETATM    3  C   UNL     1     -10.385   8.331  67.614  1.00  0.00    -0.313 C  
BRANCH   3   4
HETATM    4  C   UNL     1     -10.519   9.616  68.423  1.00  0.00    -0.223 C  
BRANCH   4   5
HETATM    5  O   UNL     1     -11.519  10.428  67.811  1.00  0.00    -0.406 OA 
BRANCH   5   6
HETATM    6  C   UNL     1     -10.966  11.249  66.784  1.00  0.00    -0.281 C  
BRANCH   6   7
HETATM    7  C   UNL     1     -10.966  12.687  67.239  1.00  0.00    -0.291 A  
HETATM    8  C   UNL     1     -11.782  13.087  68.314  1.00  0.00    -0.390 A  
HETATM    9  C   UNL     1     -11.835  14.426  68.704  1.00  0.00    -0.331 A  
HETATM   10  C   UNL     1     -11.056  15.360  68.011  1.00  0.00    -0.312 A  
HETATM   11  H   UNL     1     -10.565  17.317  67.890  1.00  0.00     0.000 HD 
HETATM   12  C   UNL     1     -10.232  14.983  66.958  1.00  0.00    -0.257 A  
HETATM   13  C   UNL     1     -10.191  13.645  66.569  1.00  0.00    -0.284 A  
HETATM   14  O   UNL     1     -11.095  16.683  68.360  1.00  0.00    -0.359 OA 
BRANCH   9  15
HETATM   15  O   UNL     1     -12.601  14.947  69.715  1.00  0.00    -0.227 OA 
HETATM   16  C   UNL     1     -12.777  14.125  70.864  1.00  0.00    -0.361 C  
ENDBRANCH   9  15
ENDBRANCH   6   7
ENDBRANCH   5   6
ENDBRANCH   4   5
ENDBRANCH   3   4
ENDBRANCH   2   3
TORSDOF 6
ENDMDL
MODEL      176
REMARK 921   NORMALIZED FREE ENERGY PREDICTED BY IDOCK:   -3.19 KCAL/MOL
REMARK 922        TOTAL FREE ENERGY PREDICTED BY IDOCK:   -4.63 KCAL/MOL
REMARK 923 INTER-LIGAND FREE ENERGY PREDICTED BY IDOCK:   -4.12 KCAL/MOL
REMARK 924 INTRA-LIGAND FREE ENERGY PREDICTED BY IDOCK:   -0.51 KCAL/MOL
REMARK 927      BINDING AFFINITY PREDICTED BY RF-SCORE:    0.00 PKD
ROOT
HETATM    1  C   UNL     1     -11.603   8.418  72.310  1.00  0.00    -0.453 C  
HETATM    2  C   UNL     1     -11.188   9.473  71.297  1.00  0.00    -0.452 C  
ENDROOT
BRANCH   2   3
HETATM    3  C   UNL     1     -12.242  10.570  71.170  1.00  0.00    -0.496 C  
BRANCH   3   4
HETATM    4  C   UNL     1     -11.881  11.570  70.078  1.00  0.00    -0.355 C  
BRANCH   4   5
HETATM    5  O   UNL     1     -12.347  11.058  68.831  1.00  0.00    -0.516 OA 
BRANCH   5   6
HETATM    6  C   UNL     1     -11.570  11.553  67.742  1.00  0.00    -0.267 C  
BRANCH   6   7
HETATM    7  C   UNL     1     -10.456  10.581  67.441  1.00  0.00    -0.291 A  
HETATM    8  C   UNL     1      -9.286  11.026  66.795  1.00  0.00    -0.199 A  
HETATM    9  C   UNL     1      -8.276  10.124  66.458  1.00  0.00    -0.124 A  
HETATM   10  C   UNL     1      -8.445   8.773  66.781  1.00  0.00    -0.111 A  
HETATM   11  H   UNL     1      -7.593   6.943  66.672  1.00  0.00     0.000 HD 
HETATM   12  C   UNL     1      -9.584   8.316  67.432  1.00  0.00    -0.205 A  
HETATM   13  C   UNL     1     -10.593   9.222  67.759  1.00  0.00    -0.307 A  
HETATM   14  O   UNL     1      -7.479   7.860  66.452  1.00  0.00    -0.084 OA 
BRANCH   9  15
HETATM   15  O   UNL     1      -7.104  10.424  65.812  1.00  0.00    -0.129 OA 
HETATM   16  C   UNL     1      -6.198  11.272  66.507  1.00  0.00    -0.130 C  
ENDBRANCH   9  15
ENDBRANCH   6   7
ENDBRANCH   5   6
ENDBRANCH   4   5
ENDBRANCH   3   4
ENDBRANCH   2   3
TORSDOF 6
ENDMDL
MODEL      177
REMARK 921   NORMALIZED FREE ENERGY PREDICTED BY IDOCK:   -3.19 KCAL/MOL
REMARK 922        TOTAL FREE ENERGY PREDICTED BY IDOCK:   -4.62 KCAL/MOL
REMARK 923 INTER-LIGAND FREE ENERGY PREDICTED BY IDOCK:   -4.39 KCAL/MOL
REMARK 924 INTRA-LIGAND FREE ENERGY PREDICTED BY IDOCK:   -0.23 KCAL/MOL
REMARK 927      BINDING AFFINITY PREDICTED BY RF-SCORE:    0.00 PKD
ROOT
HETATM    1  C   UNL     1      -8.615  16.934  68.683  1.00  0.00    -0.267 C  
HETATM    2  C   UNL     1      -9.861  16.911  67.811  1.00  0.00    -0.252 C  
ENDROOT
BRANCH   2   3
HETATM    3  C   UNL     1      -9.522  16.567  66.363  1.00  0.00    -0.314 C  
BRANCH   3   4
HETATM    4  C   UNL     1      -9.756  15.090  66.069  1.00  0.00    -0.328 C  
BRANCH   4   5
HETATM    5  O   UNL     1     -10.946  14.971  65.293  1.00  0.00    -0.337 OA 
BRANCH   5   6
HETATM    6  C   UNL     1     -11.891  14.104  65.917  1.00  0.00    -0.384 C  
BRANCH   6   7
HETATM    7  C   UNL     1     -11.302  12.721  66.031  1.00  0.00    -0.363 A  
HETATM    8  C   UNL     1     -10.822  12.060  64.884  1.00  0.00    -0.349 A  
HETATM    9  C   UNL     1     -10.331  10.757  64.970  1.00  0.00    -0.287 A  
HETATM   10  C   UNL     1     -10.315  10.124  66.218  1.00  0.00    -0.175 A  
HETATM   11  H   UNL     1      -9.841   8.412  67.182  1.00  0.00     0.000 HD 
HETATM   12  C   UNL     1     -10.769  10.764  67.365  1.00  0.00    -0.317 A  
HETATM   13  C   UNL     1     -11.267  12.063  67.270  1.00  0.00    -0.371 A  
HETATM   14  O   UNL     1      -9.852   8.841  66.334  1.00  0.00    -0.249 OA 
BRANCH   9  15
HETATM   15  O   UNL     1      -9.857   9.999  63.930  1.00  0.00    -0.201 OA 
HETATM   16  C   UNL     1      -8.719  10.507  63.243  1.00  0.00    -0.195 C  
ENDBRANCH   9  15
ENDBRANCH   6   7
ENDBRANCH   5   6
ENDBRANCH   4   5
ENDBRANCH   3   4
ENDBRANCH   2   3
TORSDOF 6
ENDMDL
MODEL      178
REMARK 921   NORMALIZED FREE ENERGY PREDICTED BY IDOCK:   -3.18 KCAL/MOL
REMARK 922        TOTAL FREE ENERGY PREDICTED BY IDOCK:   -4.61 KCAL/MOL
REMARK 923 INTER-LIGAND FREE ENERGY PREDICTED BY IDOCK:   -4.24 KCAL/MOL
REMARK 924 INTRA-LIGAND FREE ENERGY PREDICTED BY IDOCK:   -0.37 KCAL/MOL
REMARK 927      BINDING AFFINITY PREDICTED BY RF-SCORE:    0.00 PKD
ROOT
HETATM    1  C   UNL     1      -9.927   6.512  71.553  1.00  0.00    -0.193 C  
HETATM    2  C   UNL     1     -10.845   6.691  70.354  1.00  0.00    -0.316 C  
ENDROOT
BRANCH   2   3
HETATM    3  C   UNL     1     -10.371   5.867  69.161  1.00  0.00    -0.303 C  
BRANCH   3   4
HETATM    4  C   UNL     1     -10.796   6.499  67.840  1.00  0.00    -0.304 C  
BRANCH   4   5
HETATM    5  O   UNL     1      -9.620   6.836  67.106  1.00  0.00    -0.134 OA 
BRANCH   5   6
HETATM    6  C   UNL     1      -8.968   7.976  67.663  1.00  0.00    -0.135 C  
BRANCH   6   7
HETATM    7  C   UNL     1      -9.728   9.222  67.284  1.00  0.00    -0.218 A  
HETATM    8  C   UNL     1     -10.567   9.850  68.224  1.00  0.00    -0.269 A  
HETATM    9  C   UNL     1     -11.322  10.968  67.864  1.00  0.00    -0.311 A  
HETATM   10  C   UNL     1     -11.221  11.456  66.557  1.00  0.00    -0.209 A  
HETATM   11  H   UNL     1     -11.889  12.875  65.281  1.00  0.00     0.000 HD 
HETATM   12  C   UNL     1     -10.387  10.860  65.619  1.00  0.00    -0.305 A  
HETATM   13  C   UNL     1      -9.643   9.739  65.982  1.00  0.00    -0.296 A  
HETATM   14  O   UNL     1     -11.957  12.543  66.168  1.00  0.00    -0.495 OA 
BRANCH   9  15
HETATM   15  O   UNL     1     -12.188  11.656  68.675  1.00  0.00    -0.455 OA 
HETATM   16  C   UNL     1     -11.687  12.051  69.947  1.00  0.00    -0.299 C  
ENDBRANCH   9  15
ENDBRANCH   6   7
ENDBRANCH   5   6
ENDBRANCH   4   5
ENDBRANCH   3   4
ENDBRANCH   2   3
TORSDOF 6
ENDMDL
MODEL      179
REMARK 921   NORMALIZED FREE ENERGY PREDICTED BY IDOCK:   -3.15 KCAL/MOL
REMARK 922        TOTAL FREE ENERGY PREDICTED BY IDOCK:   -4.58 KCAL/MOL
REMARK 923 INTER-LIGAND FREE ENERGY PREDICTED BY IDOCK:   -4.30 KCAL/MOL
REMARK 924 INTRA-LIGAND FREE ENERGY PREDICTED BY IDOCK:   -0.28 KCAL/MOL
REMARK 927      BINDING AFFINITY PREDICTED BY RF-SCORE:    0.00 PKD
ROOT
HETATM    1  C   UNL     1      -9.756   6.661  69.795  1.00  0.00    -0.168 C  
HETATM    2  C   UNL     1     -11.053   7.412  70.055  1.00  0.00    -0.238 C  
ENDROOT
BRANCH   2   3
HETATM    3  C   UNL     1     -10.842   8.923  70.003  1.00  0.00    -0.239 C  
BRANCH   3   4
HETATM    4  C   UNL     1      -9.660   9.293  69.115  1.00  0.00    -0.161 C  
BRANCH   4   5
HETATM    5  O   UNL     1      -9.884  10.602  68.594  1.00  0.00    -0.164 OA 
BRANCH   5   6
HETATM    6  C   UNL     1     -10.851  10.587  67.547  1.00  0.00    -0.301 C  
BRANCH   6   7
HETATM    7  C   UNL     1     -10.814  11.904  66.813  1.00  0.00    -0.307 A  
HETATM    8  C   UNL     1     -11.066  13.105  67.504  1.00  0.00    -0.296 A  
HETATM    9  C   UNL     1     -11.093  14.322  66.823  1.00  0.00    -0.314 A  
HETATM   10  C   UNL     1     -10.857  14.327  65.443  1.00  0.00    -0.342 A  
HETATM   11  H   UNL     1     -10.730  15.507  63.807  1.00  0.00     0.000 HD 
HETATM   12  C   UNL     1     -10.592  13.156  64.746  1.00  0.00    -0.390 A  
HETATM   13  C   UNL     1     -10.574  11.942  65.431  1.00  0.00    -0.315 A  
HETATM   14  O   UNL     1     -10.890  15.503  64.743  1.00  0.00    -0.430 OA 
BRANCH   9  15
HETATM   15  O   UNL     1     -11.347  15.553  67.372  1.00  0.00    -0.302 OA 
HETATM   16  C   UNL     1     -11.193  15.661  68.782  1.00  0.00    -0.332 C  
ENDBRANCH   9  15
ENDBRANCH   6   7
ENDBRANCH   5   6
ENDBRANCH   4   5
ENDBRANCH   3   4
ENDBRANCH   2   3
TORSDOF 6
ENDMDL
MODEL      180
REMARK 921   NORMALIZED FREE ENERGY PREDICTED BY IDOCK:   -3.14 KCAL/MOL
REMARK 922        TOTAL FREE ENERGY PREDICTED BY IDOCK:   -4.56 KCAL/MOL
REMARK 923 INTER-LIGAND FREE ENERGY PREDICTED BY IDOCK:   -4.19 KCAL/MOL
REMARK 924 INTRA-LIGAND FREE ENERGY PREDICTED BY IDOCK:   -0.37 KCAL/MOL
REMARK 927      BINDING AFFINITY PREDICTED BY RF-SCORE:    0.00 PKD
ROOT
HETATM    1  C   UNL     1     -10.365   5.283  70.434  1.00  0.00    -0.345 C  
HETATM    2  C   UNL     1      -9.699   6.533  69.881  1.00  0.00    -0.176 C  
ENDROOT
BRANCH   2   3
HETATM    3  C   UNL     1     -10.651   7.325  68.991  1.00  0.00    -0.214 C  
BRANCH   3   4
HETATM    4  C   UNL     1      -9.917   7.971  67.821  1.00  0.00    -0.175 C  
BRANCH   4   5
HETATM    5  O   UNL     1      -9.677   9.339  68.144  1.00  0.00    -0.145 OA 
BRANCH   5   6
HETATM    6  C   UNL     1     -10.402  10.213  67.281  1.00  0.00    -0.237 C  
BRANCH   6   7
HETATM    7  C   UNL     1     -10.939  11.373  68.081  1.00  0.00    -0.284 A  
HETATM    8  C   UNL     1     -11.425  11.166  69.386  1.00  0.00    -0.368 A  
HETATM    9  C   UNL     1     -11.980  12.222  70.111  1.00  0.00    -0.298 A  
HETATM   10  C   UNL     1     -12.033  13.489  69.520  1.00  0.00    -0.334 A  
HETATM   11  H   UNL     1     -12.619  15.404  69.799  1.00  0.00     0.000 HD 
HETATM   12  C   UNL     1     -11.545  13.718  68.240  1.00  0.00    -0.373 A  
HETATM   13  C   UNL     1     -11.000  12.657  67.518  1.00  0.00    -0.280 A  
HETATM   14  O   UNL     1     -12.583  14.544  70.200  1.00  0.00    -0.341 OA 
BRANCH   9  15
HETATM   15  O   UNL     1     -12.505  12.149  71.375  1.00  0.00    -0.252 OA 
HETATM   16  C   UNL     1     -13.216  10.959  71.698  1.00  0.00    -0.367 C  
ENDBRANCH   9  15
ENDBRANCH   6   7
ENDBRANCH   5   6
ENDBRANCH   4   5
ENDBRANCH   3   4
ENDBRANCH   2   3
TORSDOF 6
ENDMDL
MODEL      181
REMARK 921   NORMALIZED FREE ENERGY PREDICTED BY IDOCK:   -3.13 KCAL/MOL
REMARK 922        TOTAL FREE ENERGY PREDICTED BY IDOCK:   -4.55 KCAL/MOL
REMARK 923 INTER-LIGAND FREE ENERGY PREDICTED BY IDOCK:   -4.22 KCAL/MOL
REMARK 924 INTRA-LIGAND FREE ENERGY PREDICTED BY IDOCK:   -0.33 KCAL/MOL
REMARK 927      BINDING AFFINITY PREDICTED BY RF-SCORE:    0.00 PKD
ROOT
HETATM    1  C   UNL     1      -6.583  14.262  69.937  1.00  0.00    -0.109 C  
HETATM    2  C   UNL     1      -6.462  15.148  68.707  1.00  0.00    -0.086 C  
ENDROOT
BRANCH   2   3
HETATM    3  C   UNL     1      -7.562  14.846  67.693  1.00  0.00    -0.201 C  
BRANCH   3   4
HETATM    4  C   UNL     1      -8.946  14.940  68.323  1.00  0.00    -0.177 C  
BRANCH   4   5
HETATM    5  O   UNL     1      -9.919  14.816  67.287  1.00  0.00    -0.229 OA 
BRANCH   5   6
HETATM    6  C   UNL     1     -11.241  14.997  67.790  1.00  0.00    -0.321 C  
BRANCH   6   7
HETATM    7  C   UNL     1     -11.684  13.739  68.495  1.00  0.00    -0.391 A  
HETATM    8  C   UNL     1     -12.080  13.789  69.845  1.00  0.00    -0.412 A  
HETATM    9  C   UNL     1     -12.434  12.621  70.524  1.00  0.00    -0.193 A  
HETATM   10  C   UNL     1     -12.395  11.404  69.834  1.00  0.00    -0.214 A  
HETATM   11  H   UNL     1     -12.697   9.413  70.006  1.00  0.00     0.000 HD 
HETATM   12  C   UNL     1     -12.022  11.336  68.498  1.00  0.00    -0.288 A  
HETATM   13  C   UNL     1     -11.662  12.505  67.828  1.00  0.00    -0.419 A  
HETATM   14  O   UNL     1     -12.723  10.239  70.474  1.00  0.00    -0.311 OA 
BRANCH   9  15
HETATM   15  O   UNL     1     -12.815  12.531  71.838  1.00  0.00    -0.294 OA 
HETATM   16  C   UNL     1     -13.817  13.445  72.270  1.00  0.00    -0.573 C  
ENDBRANCH   9  15
ENDBRANCH   6   7
ENDBRANCH   5   6
ENDBRANCH   4   5
ENDBRANCH   3   4
ENDBRANCH   2   3
TORSDOF 6
ENDMDL
MODEL      182
REMARK 921   NORMALIZED FREE ENERGY PREDICTED BY IDOCK:   -3.12 KCAL/MOL
REMARK 922        TOTAL FREE ENERGY PREDICTED BY IDOCK:   -4.53 KCAL/MOL
REMARK 923 INTER-LIGAND FREE ENERGY PREDICTED BY IDOCK:   -4.28 KCAL/MOL
REMARK 924 INTRA-LIGAND FREE ENERGY PREDICTED BY IDOCK:   -0.26 KCAL/MOL
REMARK 927      BINDING AFFINITY PREDICTED BY RF-SCORE:    0.00 PKD
ROOT
HETATM    1  C   UNL     1     -13.040   9.551  71.856  1.00  0.00    -0.517 C  
HETATM    2  C   UNL     1     -11.557   9.696  71.550  1.00  0.00    -0.451 C  
ENDROOT
BRANCH   2   3
HETATM    3  C   UNL     1     -11.327  10.137  70.107  1.00  0.00    -0.372 C  
BRANCH   3   4
HETATM    4  C   UNL     1     -12.084  11.420  69.786  1.00  0.00    -0.320 C  
BRANCH   4   5
HETATM    5  O   UNL     1     -11.139  12.407  69.375  1.00  0.00    -0.188 OA 
BRANCH   5   6
HETATM    6  C   UNL     1     -11.769  13.460  68.649  1.00  0.00    -0.349 C  
BRANCH   6   7
HETATM    7  C   UNL     1     -10.817  14.623  68.529  1.00  0.00    -0.256 A  
HETATM    8  C   UNL     1      -9.440  14.435  68.755  1.00  0.00    -0.161 A  
HETATM    9  C   UNL     1      -8.559  15.516  68.706  1.00  0.00    -0.188 A  
HETATM   10  C   UNL     1      -9.069  16.787  68.419  1.00  0.00    -0.233 A  
HETATM   11  H   UNL     1      -8.580  18.734  68.181  1.00  0.00     0.000 HD 
HETATM   12  C   UNL     1     -10.422  16.992  68.178  1.00  0.00    -0.357 A  
HETATM   13  C   UNL     1     -11.297  15.909  68.237  1.00  0.00    -0.342 A  
HETATM   14  O   UNL     1      -8.234  17.871  68.376  1.00  0.00    -0.283 OA 
BRANCH   9  15
HETATM   15  O   UNL     1      -7.206  15.471  68.927  1.00  0.00    -0.124 OA 
HETATM   16  C   UNL     1      -6.774  14.716  70.053  1.00  0.00    -0.135 C  
ENDBRANCH   9  15
ENDBRANCH   6   7
ENDBRANCH   5   6
ENDBRANCH   4   5
ENDBRANCH   3   4
ENDBRANCH   2   3
TORSDOF 6
ENDMDL
MODEL      183
REMARK 921   NORMALIZED FREE ENERGY PREDICTED BY IDOCK:   -3.12 KCAL/MOL
REMARK 922        TOTAL FREE ENERGY PREDICTED BY IDOCK:   -4.53 KCAL/MOL
REMARK 923 INTER-LIGAND FREE ENERGY PREDICTED BY IDOCK:   -4.40 KCAL/MOL
REMARK 924 INTRA-LIGAND FREE ENERGY PREDICTED BY IDOCK:   -0.13 KCAL/MOL
REMARK 927      BINDING AFFINITY PREDICTED BY RF-SCORE:    0.00 PKD
ROOT
HETATM    1  C   UNL     1      -9.309   6.569  66.322  1.00  0.00    -0.144 C  
HETATM    2  C   UNL     1     -10.423   7.362  66.987  1.00  0.00    -0.404 C  
ENDROOT
BRANCH   2   3
HETATM    3  C   UNL     1     -10.063   8.840  67.104  1.00  0.00    -0.320 C  
BRANCH   3   4
HETATM    4  C   UNL     1     -11.177   9.637  67.773  1.00  0.00     0.137 C  
BRANCH   4   5
HETATM    5  O   UNL     1     -10.657  10.913  68.140  1.00  0.00    -0.177 OA 
BRANCH   5   6
HETATM    6  C   UNL     1     -11.371  11.969  67.501  1.00  0.00    -0.319 C  
BRANCH   6   7
HETATM    7  C   UNL     1     -11.628  13.073  68.496  1.00  0.00    -0.363 A  
HETATM    8  C   UNL     1     -11.979  12.760  69.822  1.00  0.00    -0.362 A  
HETATM    9  C   UNL     1     -12.278  13.773  70.735  1.00  0.00    -0.363 A  
HETATM   10  C   UNL     1     -12.212  15.104  70.307  1.00  0.00    -0.350 A  
HETATM   11  H   UNL     1     -12.467  17.025  70.884  1.00  0.00     0.000 HD 
HETATM   12  C   UNL     1     -11.852  15.435  69.007  1.00  0.00    -0.357 A  
HETATM   13  C   UNL     1     -11.563  14.417  68.099  1.00  0.00    -0.360 A  
HETATM   14  O   UNL     1     -12.512  16.121  71.174  1.00  0.00    -0.332 OA 
BRANCH   9  15
HETATM   15  O   UNL     1     -12.652  13.602  72.042  1.00  0.00    -0.225 OA 
HETATM   16  C   UNL     1     -14.048  13.481  72.291  1.00  0.00    -0.465 C  
ENDBRANCH   9  15
ENDBRANCH   6   7
ENDBRANCH   5   6
ENDBRANCH   4   5
ENDBRANCH   3   4
ENDBRANCH   2   3
TORSDOF 6
ENDMDL
MODEL      184
REMARK 921   NORMALIZED FREE ENERGY PREDICTED BY IDOCK:   -3.10 KCAL/MOL
REMARK 922        TOTAL FREE ENERGY PREDICTED BY IDOCK:   -4.51 KCAL/MOL
REMARK 923 INTER-LIGAND FREE ENERGY PREDICTED BY IDOCK:   -4.15 KCAL/MOL
REMARK 924 INTRA-LIGAND FREE ENERGY PREDICTED BY IDOCK:   -0.35 KCAL/MOL
REMARK 927      BINDING AFFINITY PREDICTED BY RF-SCORE:    0.00 PKD
ROOT
HETATM    1  C   UNL     1     -10.988   6.373  67.092  1.00  0.00    -0.476 C  
HETATM    2  C   UNL     1     -10.216   6.948  68.268  1.00  0.00    -0.201 C  
ENDROOT
BRANCH   2   3
HETATM    3  C   UNL     1     -10.164   8.472  68.209  1.00  0.00    -0.244 C  
BRANCH   3   4
HETATM    4  C   UNL     1     -10.784   9.102  69.452  1.00  0.00    -0.198 C  
BRANCH   4   5
HETATM    5  O   UNL     1     -11.199  10.427  69.123  1.00  0.00    -0.233 OA 
BRANCH   5   6
HETATM    6  C   UNL     1     -10.786  10.790  67.807  1.00  0.00    -0.269 C  
BRANCH   6   7
HETATM    7  C   UNL     1     -10.841  12.290  67.662  1.00  0.00    -0.262 A  
HETATM    8  C   UNL     1     -10.190  13.114  68.599  1.00  0.00    -0.177 A  
HETATM    9  C   UNL     1     -10.286  14.504  68.508  1.00  0.00    -0.240 A  
HETATM   10  C   UNL     1     -11.032  15.060  67.463  1.00  0.00    -0.307 A  
HETATM   11  H   UNL     1     -11.662  16.797  66.643  1.00  0.00     0.000 HD 
HETATM   12  C   UNL     1     -11.669  14.265  66.519  1.00  0.00    -0.409 A  
HETATM   13  C   UNL     1     -11.576  12.877  66.621  1.00  0.00    -0.428 A  
HETATM   14  O   UNL     1     -11.156  16.419  67.353  1.00  0.00    -0.209 OA 
BRANCH   9  15
HETATM   15  O   UNL     1      -9.720  15.413  69.365  1.00  0.00    -0.244 OA 
HETATM   16  C   UNL     1      -8.306  15.553  69.296  1.00  0.00    -0.257 C  
ENDBRANCH   9  15
ENDBRANCH   6   7
ENDBRANCH   5   6
ENDBRANCH   4   5
ENDBRANCH   3   4
ENDBRANCH   2   3
TORSDOF 6
ENDMDL
MODEL      185
REMARK 921   NORMALIZED FREE ENERGY PREDICTED BY IDOCK:   -3.09 KCAL/MOL
REMARK 922        TOTAL FREE ENERGY PREDICTED BY IDOCK:   -4.50 KCAL/MOL
REMARK 923 INTER-LIGAND FREE ENERGY PREDICTED BY IDOCK:   -4.19 KCAL/MOL
REMARK 924 INTRA-LIGAND FREE ENERGY PREDICTED BY IDOCK:   -0.31 KCAL/MOL
REMARK 927      BINDING AFFINITY PREDICTED BY RF-SCORE:    0.00 PKD
ROOT
HETATM    1  C   UNL     1      -6.571  16.278  69.535  1.00  0.00    -0.202 C  
HETATM    2  C   UNL     1      -7.412  15.021  69.375  1.00  0.00    -0.196 C  
ENDROOT
BRANCH   2   3
HETATM    3  C   UNL     1      -6.705  13.984  68.507  1.00  0.00    -0.099 C  
BRANCH   3   4
HETATM    4  C   UNL     1      -7.086  12.564  68.908  1.00  0.00    -0.073 C  
BRANCH   4   5
HETATM    5  O   UNL     1      -8.155  12.133  68.069  1.00  0.00    -0.136 OA 
BRANCH   5   6
HETATM    6  C   UNL     1      -8.209  12.892  66.863  1.00  0.00    -0.002 C  
BRANCH   6   7
HETATM    7  C   UNL     1      -9.649  13.155  66.501  1.00  0.00    -0.268 A  
HETATM    8  C   UNL     1     -10.088  12.974  65.176  1.00  0.00    -0.238 A  
HETATM    9  C   UNL     1     -11.404  13.272  64.818  1.00  0.00    -0.327 A  
HETATM   10  C   UNL     1     -12.279  13.744  65.803  1.00  0.00    -0.462 A  
HETATM   11  H   UNL     1     -14.167  14.377  66.152  1.00  0.00     0.000 HD 
HETATM   12  C   UNL     1     -11.870  13.914  67.120  1.00  0.00    -0.445 A  
HETATM   13  C   UNL     1     -10.552  13.622  67.468  1.00  0.00    -0.243 A  
HETATM   14  O   UNL     1     -13.573  14.058  65.483  1.00  0.00    -0.596 OA 
BRANCH   9  15
HETATM   15  O   UNL     1     -11.948  13.162  63.564  1.00  0.00    -0.516 OA 
HETATM   16  C   UNL     1     -12.456  11.882  63.205  1.00  0.00    -0.384 C  
ENDBRANCH   9  15
ENDBRANCH   6   7
ENDBRANCH   5   6
ENDBRANCH   4   5
ENDBRANCH   3   4
ENDBRANCH   2   3
TORSDOF 6
ENDMDL
MODEL      186
REMARK 921   NORMALIZED FREE ENERGY PREDICTED BY IDOCK:   -3.09 KCAL/MOL
REMARK 922        TOTAL FREE ENERGY PREDICTED BY IDOCK:   -4.48 KCAL/MOL
REMARK 923 INTER-LIGAND FREE ENERGY PREDICTED BY IDOCK:   -4.14 KCAL/MOL
REMARK 924 INTRA-LIGAND FREE ENERGY PREDICTED BY IDOCK:   -0.34 KCAL/MOL
REMARK 927      BINDING AFFINITY PREDICTED BY RF-SCORE:    0.00 PKD
ROOT
HETATM    1  C   UNL     1     -10.051   8.977  69.097  1.00  0.00    -0.201 C  
HETATM    2  C   UNL     1     -10.874   9.763  68.089  1.00  0.00    -0.264 C  
ENDROOT
BRANCH   2   3
HETATM    3  C   UNL     1     -10.215   9.767  66.713  1.00  0.00    -0.300 C  
BRANCH   3   4
HETATM    4  C   UNL     1      -8.983  10.664  66.684  1.00  0.00    -0.150 C  
BRANCH   4   5
HETATM    5  O   UNL     1      -9.330  11.920  67.264  1.00  0.00    -0.172 OA 
BRANCH   5   6
HETATM    6  C   UNL     1      -8.186  12.758  67.414  1.00  0.00    -0.186 C  
BRANCH   6   7
HETATM    7  C   UNL     1      -8.546  14.170  67.026  1.00  0.00    -0.204 A  
HETATM    8  C   UNL     1      -9.661  14.413  66.202  1.00  0.00    -0.335 A  
HETATM    9  C   UNL     1      -9.967  15.710  65.787  1.00  0.00    -0.359 A  
HETATM   10  C   UNL     1      -9.149  16.763  66.213  1.00  0.00    -0.285 A  
HETATM   11  H   UNL     1      -8.859  18.761  66.104  1.00  0.00     0.000 HD 
HETATM   12  C   UNL     1      -8.053  16.546  67.039  1.00  0.00    -0.235 A  
HETATM   13  C   UNL     1      -7.749  15.247  67.443  1.00  0.00    -0.225 A  
HETATM   14  O   UNL     1      -9.414  18.046  65.814  1.00  0.00    -0.495 OA 
BRANCH   9  15
HETATM   15  O   UNL     1     -11.007  16.077  64.972  1.00  0.00    -0.421 OA 
HETATM   16  C   UNL     1     -11.734  15.019  64.359  1.00  0.00    -0.312 C  
ENDBRANCH   9  15
ENDBRANCH   6   7
ENDBRANCH   5   6
ENDBRANCH   4   5
ENDBRANCH   3   4
ENDBRANCH   2   3
TORSDOF 6
ENDMDL
MODEL      187
REMARK 921   NORMALIZED FREE ENERGY PREDICTED BY IDOCK:   -3.06 KCAL/MOL
REMARK 922        TOTAL FREE ENERGY PREDICTED BY IDOCK:   -4.46 KCAL/MOL
REMARK 923 INTER-LIGAND FREE ENERGY PREDICTED BY IDOCK:   -3.81 KCAL/MOL
REMARK 924 INTRA-LIGAND FREE ENERGY PREDICTED BY IDOCK:   -0.65 KCAL/MOL
REMARK 927      BINDING AFFINITY PREDICTED BY RF-SCORE:    0.00 PKD
ROOT
HETATM    1  C   UNL     1     -11.412  10.568  69.497  1.00  0.00    -0.339 C  
HETATM    2  C   UNL     1     -12.326  11.247  70.505  1.00  0.00    -0.446 C  
ENDROOT
BRANCH   2   3
HETATM    3  C   UNL     1     -12.629  10.333  71.688  1.00  0.00    -0.534 C  
BRANCH   3   4
HETATM    4  C   UNL     1     -12.965   8.918  71.232  1.00  0.00    -0.211 C  
BRANCH   4   5
HETATM    5  O   UNL     1     -12.603   8.013  72.273  1.00  0.00    -0.296 OA 
BRANCH   5   6
HETATM    6  C   UNL     1     -11.202   8.053  72.533  1.00  0.00    -0.388 C  
BRANCH   6   7
HETATM    7  C   UNL     1     -10.478   7.221  71.504  1.00  0.00    -0.220 A  
HETATM    8  C   UNL     1      -9.457   7.795  70.723  1.00  0.00    -0.163 A  
HETATM    9  C   UNL     1      -8.823   7.051  69.727  1.00  0.00    -0.142 A  
HETATM   10  C   UNL     1      -9.216   5.723  69.527  1.00  0.00    -0.130 A  
HETATM   11  H   UNL     1      -8.890   4.068  68.412  1.00  0.00     0.000 HD 
HETATM   12  C   UNL     1     -10.210   5.133  70.296  1.00  0.00    -0.342 A  
HETATM   13  C   UNL     1     -10.845   5.885  71.284  1.00  0.00    -0.333 A  
HETATM   14  O   UNL     1      -8.623   4.970  68.549  1.00  0.00    -0.094 OA 
BRANCH   9  15
HETATM   15  O   UNL     1      -7.834   7.496  68.888  1.00  0.00    -0.118 OA 
HETATM   16  C   UNL     1      -7.052   8.589  69.355  1.00  0.00    -0.054 C  
ENDBRANCH   9  15
ENDBRANCH   6   7
ENDBRANCH   5   6
ENDBRANCH   4   5
ENDBRANCH   3   4
ENDBRANCH   2   3
TORSDOF 6
ENDMDL
MODEL      188
REMARK 921   NORMALIZED FREE ENERGY PREDICTED BY IDOCK:   -3.06 KCAL/MOL
REMARK 922        TOTAL FREE ENERGY PREDICTED BY IDOCK:   -4.45 KCAL/MOL
REMARK 923 INTER-LIGAND FREE ENERGY PREDICTED BY IDOCK:   -3.99 KCAL/MOL
REMARK 924 INTRA-LIGAND FREE ENERGY PREDICTED BY IDOCK:   -0.46 KCAL/MOL
REMARK 927      BINDING AFFINITY PREDICTED BY RF-SCORE:    0.00 PKD
ROOT
HETATM    1  C   UNL     1      -6.233  14.473  70.158  1.00  0.00    -0.167 C  
HETATM    2  C   UNL     1      -7.416  14.699  69.230  1.00  0.00    -0.132 C  
ENDROOT
BRANCH   2   3
HETATM    3  C   UNL     1      -7.659  13.489  68.331  1.00  0.00    -0.133 C  
BRANCH   3   4
HETATM    4  C   UNL     1      -8.934  13.648  67.511  1.00  0.00    -0.209 C  
BRANCH   4   5
HETATM    5  O   UNL     1      -9.235  12.392  66.905  1.00  0.00    -0.197 OA 
BRANCH   5   6
HETATM    6  C   UNL     1     -10.614  12.059  67.056  1.00  0.00    -0.227 C  
BRANCH   6   7
HETATM    7  C   UNL     1     -10.802  11.275  68.330  1.00  0.00    -0.249 A  
HETATM    8  C   UNL     1     -11.942  11.488  69.128  1.00  0.00    -0.386 A  
HETATM    9  C   UNL     1     -12.096  10.812  70.339  1.00  0.00    -0.354 A  
HETATM   10  C   UNL     1     -11.101   9.913  70.739  1.00  0.00    -0.347 A  
HETATM   11  H   UNL     1     -10.541   8.632  72.199  1.00  0.00     0.000 HD 
HETATM   12  C   UNL     1      -9.977   9.676  69.959  1.00  0.00    -0.288 A  
HETATM   13  C   UNL     1      -9.826  10.361  68.754  1.00  0.00    -0.190 A  
HETATM   14  O   UNL     1     -11.216   9.243  71.928  1.00  0.00    -0.370 OA 
BRANCH   9  15
HETATM   15  O   UNL     1     -13.143  10.945  71.215  1.00  0.00    -0.374 OA 
HETATM   16  C   UNL     1     -13.244  12.190  71.897  1.00  0.00    -0.369 C  
ENDBRANCH   9  15
ENDBRANCH   6   7
ENDBRANCH   5   6
ENDBRANCH   4   5
ENDBRANCH   3   4
ENDBRANCH   2   3
TORSDOF 6
ENDMDL
MODEL      189
REMARK 921   NORMALIZED FREE ENERGY PREDICTED BY IDOCK:   -3.03 KCAL/MOL
REMARK 922        TOTAL FREE ENERGY PREDICTED BY IDOCK:   -4.41 KCAL/MOL
REMARK 923 INTER-LIGAND FREE ENERGY PREDICTED BY IDOCK:   -3.74 KCAL/MOL
REMARK 924 INTRA-LIGAND FREE ENERGY PREDICTED BY IDOCK:   -0.67 KCAL/MOL
REMARK 927      BINDING AFFINITY PREDICTED BY RF-SCORE:    0.00 PKD
ROOT
HETATM    1  C   UNL     1     -11.139   8.921  71.716  1.00  0.00    -0.433 C  
HETATM    2  C   UNL     1     -10.826   9.886  70.584  1.00  0.00    -0.400 C  
ENDROOT
BRANCH   2   3
HETATM    3  C   UNL     1     -12.078  10.625  70.118  1.00  0.00    -0.414 C  
BRANCH   3   4
HETATM    4  C   UNL     1     -11.752  11.660  69.048  1.00  0.00    -0.324 C  
BRANCH   4   5
HETATM    5  O   UNL     1     -12.120  11.122  67.779  1.00  0.00    -0.606 OA 
BRANCH   5   6
HETATM    6  C   UNL     1     -11.139  11.414  66.786  1.00  0.00    -0.281 C  
BRANCH   6   7
HETATM    7  C   UNL     1      -9.939  10.524  66.992  1.00  0.00    -0.244 A  
HETATM    8  C   UNL     1     -10.096   9.125  67.036  1.00  0.00    -0.316 A  
HETATM    9  C   UNL     1      -9.001   8.297  67.287  1.00  0.00    -0.137 A  
HETATM   10  C   UNL     1      -7.746   8.882  67.485  1.00  0.00    -0.100 A  
HETATM   11  H   UNL     1      -5.801   8.495  67.880  1.00  0.00     0.000 HD 
HETATM   12  C   UNL     1      -7.566  10.258  67.430  1.00  0.00    -0.094 A  
HETATM   13  C   UNL     1      -8.666  11.081  67.187  1.00  0.00    -0.135 A  
HETATM   14  O   UNL     1      -6.654   8.098  67.746  1.00  0.00    -0.055 OA 
BRANCH   9  15
HETATM   15  O   UNL     1      -9.024   6.929  67.376  1.00  0.00    -0.117 OA 
HETATM   16  C   UNL     1      -9.289   6.220  66.171  1.00  0.00    -0.087 C  
ENDBRANCH   9  15
ENDBRANCH   6   7
ENDBRANCH   5   6
ENDBRANCH   4   5
ENDBRANCH   3   4
ENDBRANCH   2   3
TORSDOF 6
ENDMDL
MODEL      190
REMARK 921   NORMALIZED FREE ENERGY PREDICTED BY IDOCK:   -3.03 KCAL/MOL
REMARK 922        TOTAL FREE ENERGY PREDICTED BY IDOCK:   -4.41 KCAL/MOL
REMARK 923 INTER-LIGAND FREE ENERGY PREDICTED BY IDOCK:   -3.94 KCAL/MOL
REMARK 924 INTRA-LIGAND FREE ENERGY PREDICTED BY IDOCK:   -0.47 KCAL/MOL
REMARK 927      BINDING AFFINITY PREDICTED BY RF-SCORE:    0.00 PKD
ROOT
HETATM    1  C   UNL     1     -10.754  12.122  63.440  1.00  0.00    -0.461 C  
HETATM    2  C   UNL     1     -12.123  12.776  63.543  1.00  0.00    -0.642 C  
ENDROOT
BRANCH   2   3
HETATM    3  C   UNL     1     -12.458  13.145  64.985  1.00  0.00    -0.516 C  
BRANCH   3   4
HETATM    4  C   UNL     1     -12.123  14.602  65.283  1.00  0.00    -0.276 C  
BRANCH   4   5
HETATM    5  O   UNL     1     -11.283  14.642  66.435  1.00  0.00    -0.327 OA 
BRANCH   5   6
HETATM    6  C   UNL     1     -10.742  13.356  66.730  1.00  0.00    -0.277 C  
BRANCH   6   7
HETATM    7  C   UNL     1      -9.257  13.478  66.961  1.00  0.00    -0.248 A  
HETATM    8  C   UNL     1      -8.447  12.327  66.973  1.00  0.00    -0.181 A  
HETATM    9  C   UNL     1      -7.082  12.423  67.246  1.00  0.00    -0.128 A  
HETATM   10  C   UNL     1      -6.534  13.686  67.498  1.00  0.00    -0.085 A  
HETATM   11  H   UNL     1      -4.828  14.671  67.952  1.00  0.00     0.000 HD 
HETATM   12  C   UNL     1      -7.312  14.836  67.475  1.00  0.00    -0.225 A  
HETATM   13  C   UNL     1      -8.677  14.731  67.210  1.00  0.00    -0.226 A  
HETATM   14  O   UNL     1      -5.200  13.814  67.781  1.00  0.00    -0.226 OA 
BRANCH   9  15
HETATM   15  O   UNL     1      -6.192  11.382  67.309  1.00  0.00    -0.071 OA 
HETATM   16  C   UNL     1      -6.315  10.510  68.426  1.00  0.00    -0.054 C  
ENDBRANCH   9  15
ENDBRANCH   6   7
ENDBRANCH   5   6
ENDBRANCH   4   5
ENDBRANCH   3   4
ENDBRANCH   2   3
TORSDOF 6
ENDMDL
MODEL      191
REMARK 921   NORMALIZED FREE ENERGY PREDICTED BY IDOCK:   -3.02 KCAL/MOL
REMARK 922        TOTAL FREE ENERGY PREDICTED BY IDOCK:   -4.40 KCAL/MOL
REMARK 923 INTER-LIGAND FREE ENERGY PREDICTED BY IDOCK:   -3.74 KCAL/MOL
REMARK 924 INTRA-LIGAND FREE ENERGY PREDICTED BY IDOCK:   -0.66 KCAL/MOL
REMARK 927      BINDING AFFINITY PREDICTED BY RF-SCORE:    0.00 PKD
ROOT
HETATM    1  C   UNL     1      -8.626   5.468  67.990  1.00  0.00    -0.100 C  
HETATM    2  C   UNL     1     -10.138   5.334  68.070  1.00  0.00    -0.208 C  
ENDROOT
BRANCH   2   3
HETATM    3  C   UNL     1     -10.838   6.399  67.230  1.00  0.00    -0.463 C  
BRANCH   3   4
HETATM    4  C   UNL     1      -9.961   7.633  67.047  1.00  0.00    -0.240 C  
BRANCH   4   5
HETATM    5  O   UNL     1     -10.720   8.780  67.423  1.00  0.00    -0.267 OA 
BRANCH   5   6
HETATM    6  C   UNL     1     -10.003   9.601  68.343  1.00  0.00    -0.158 C  
BRANCH   6   7
HETATM    7  C   UNL     1     -10.254   9.113  69.748  1.00  0.00    -0.219 A  
HETATM    8  C   UNL     1      -9.228   9.172  70.710  1.00  0.00    -0.321 A  
HETATM    9  C   UNL     1      -9.431   8.669  71.995  1.00  0.00    -0.300 A  
HETATM   10  C   UNL     1     -10.676   8.113  72.311  1.00  0.00    -0.313 A  
HETATM   11  H   UNL     1     -11.750   7.222  73.774  1.00  0.00     0.000 HD 
HETATM   12  C   UNL     1     -11.707   8.060  71.382  1.00  0.00    -0.320 A  
HETATM   13  C   UNL     1     -11.494   8.558  70.097  1.00  0.00     0.002 A  
HETATM   14  O   UNL     1     -10.904   7.599  73.559  1.00  0.00    -0.340 OA 
BRANCH   9  15
HETATM   15  O   UNL     1      -8.511   8.646  73.012  1.00  0.00    -0.398 OA 
HETATM   16  C   UNL     1      -7.243   8.077  72.707  1.00  0.00    -0.095 C  
ENDBRANCH   9  15
ENDBRANCH   6   7
ENDBRANCH   5   6
ENDBRANCH   4   5
ENDBRANCH   3   4
ENDBRANCH   2   3
TORSDOF 6
ENDMDL
MODEL      192
REMARK 921   NORMALIZED FREE ENERGY PREDICTED BY IDOCK:   -3.01 KCAL/MOL
REMARK 922        TOTAL FREE ENERGY PREDICTED BY IDOCK:   -4.38 KCAL/MOL
REMARK 923 INTER-LIGAND FREE ENERGY PREDICTED BY IDOCK:   -3.68 KCAL/MOL
REMARK 924 INTRA-LIGAND FREE ENERGY PREDICTED BY IDOCK:   -0.70 KCAL/MOL
REMARK 927      BINDING AFFINITY PREDICTED BY RF-SCORE:    0.00 PKD
ROOT
HETATM    1  C   UNL     1      -8.528   6.593  66.614  1.00  0.00    -0.120 C  
HETATM    2  C   UNL     1      -9.987   6.182  66.490  1.00  0.00    -0.179 C  
ENDROOT
BRANCH   2   3
HETATM    3  C   UNL     1     -10.138   4.664  66.465  1.00  0.00    -0.279 C  
BRANCH   3   4
HETATM    4  C   UNL     1      -9.199   3.990  67.458  1.00  0.00    -0.164 C  
BRANCH   4   5
HETATM    5  O   UNL     1      -9.852   3.935  68.725  1.00  0.00    -0.102 OA 
BRANCH   5   6
HETATM    6  C   UNL     1      -9.070   4.560  69.742  1.00  0.00    -0.108 C  
BRANCH   6   7
HETATM    7  C   UNL     1      -9.911   5.585  70.461  1.00  0.00    -0.276 A  
HETATM    8  C   UNL     1      -9.516   6.061  71.725  1.00  0.00    -0.165 A  
HETATM    9  C   UNL     1     -10.318   6.964  72.425  1.00  0.00    -0.202 A  
HETATM   10  C   UNL     1     -11.516   7.392  71.842  1.00  0.00    -0.266 A  
HETATM   11  H   UNL     1     -13.145   8.557  72.112  1.00  0.00     0.000 HD 
HETATM   12  C   UNL     1     -11.917   6.946  70.589  1.00  0.00    -0.400 A  
HETATM   13  C   UNL     1     -11.114   6.038  69.899  1.00  0.00    -0.469 A  
HETATM   14  O   UNL     1     -12.332   8.267  72.508  1.00  0.00    -0.353 OA 
BRANCH   9  15
HETATM   15  O   UNL     1     -10.058   7.485  73.666  1.00  0.00    -0.327 OA 
HETATM   16  C   UNL     1      -8.719   7.899  73.912  1.00  0.00    -0.272 C  
ENDBRANCH   9  15
ENDBRANCH   6   7
ENDBRANCH   5   6
ENDBRANCH   4   5
ENDBRANCH   3   4
ENDBRANCH   2   3
TORSDOF 6
ENDMDL
MODEL      193
REMARK 921   NORMALIZED FREE ENERGY PREDICTED BY IDOCK:   -3.01 KCAL/MOL
REMARK 922        TOTAL FREE ENERGY PREDICTED BY IDOCK:   -4.38 KCAL/MOL
REMARK 923 INTER-LIGAND FREE ENERGY PREDICTED BY IDOCK:   -4.09 KCAL/MOL
REMARK 924 INTRA-LIGAND FREE ENERGY PREDICTED BY IDOCK:   -0.29 KCAL/MOL
REMARK 927      BINDING AFFINITY PREDICTED BY RF-SCORE:    0.00 PKD
ROOT
HETATM    1  C   UNL     1      -5.873  20.114  71.443  1.00  0.00    -0.356 C  
HETATM    2  C   UNL     1      -5.458  20.138  69.981  1.00  0.00    -0.298 C  
ENDROOT
BRANCH   2   3
HETATM    3  C   UNL     1      -5.382  18.729  69.399  1.00  0.00    -0.206 C  
BRANCH   3   4
HETATM    4  C   UNL     1      -6.410  18.524  68.292  1.00  0.00    -0.202 C  
BRANCH   4   5
HETATM    5  O   UNL     1      -7.594  17.982  68.875  1.00  0.00    -0.279 OA 
BRANCH   5   6
HETATM    6  C   UNL     1      -8.726  18.178  68.031  1.00  0.00    -0.269 C  
BRANCH   6   7
HETATM    7  C   UNL     1      -9.553  16.917  68.004  1.00  0.00    -0.247 A  
HETATM    8  C   UNL     1      -9.087  15.782  67.314  1.00  0.00    -0.219 A  
HETATM    9  C   UNL     1      -9.872  14.630  67.231  1.00  0.00    -0.231 A  
HETATM   10  C   UNL     1     -11.124  14.624  67.855  1.00  0.00    -0.291 A  
HETATM   11  H   UNL     1     -12.775  13.510  68.207  1.00  0.00     0.000 HD 
HETATM   12  C   UNL     1     -11.596  15.727  68.555  1.00  0.00    -0.367 A  
HETATM   13  C   UNL     1     -10.810  16.877  68.626  1.00  0.00    -0.314 A  
HETATM   14  O   UNL     1     -11.924  13.515  67.783  1.00  0.00    -0.354 OA 
BRANCH   9  15
HETATM   15  O   UNL     1      -9.545  13.472  66.575  1.00  0.00    -0.269 OA 
HETATM   16  C   UNL     1      -8.442  12.739  67.095  1.00  0.00    -0.181 C  
ENDBRANCH   9  15
ENDBRANCH   6   7
ENDBRANCH   5   6
ENDBRANCH   4   5
ENDBRANCH   3   4
ENDBRANCH   2   3
TORSDOF 6
ENDMDL
MODEL      194
REMARK 921   NORMALIZED FREE ENERGY PREDICTED BY IDOCK:   -3.01 KCAL/MOL
REMARK 922        TOTAL FREE ENERGY PREDICTED BY IDOCK:   -4.38 KCAL/MOL
REMARK 923 INTER-LIGAND FREE ENERGY PREDICTED BY IDOCK:   -4.15 KCAL/MOL
REMARK 924 INTRA-LIGAND FREE ENERGY PREDICTED BY IDOCK:   -0.23 KCAL/MOL
REMARK 927      BINDING AFFINITY PREDICTED BY RF-SCORE:    0.00 PKD
ROOT
HETATM    1  C   UNL     1      -6.592  20.242  69.654  1.00  0.00    -0.213 C  
HETATM    2  C   UNL     1      -6.394  19.239  68.528  1.00  0.00    -0.275 C  
ENDROOT
BRANCH   2   3
HETATM    3  C   UNL     1      -7.519  18.208  68.495  1.00  0.00    -0.289 C  
BRANCH   3   4
HETATM    4  C   UNL     1      -7.034  16.867  67.955  1.00  0.00    -0.152 C  
BRANCH   4   5
HETATM    5  O   UNL     1      -8.096  15.923  68.082  1.00  0.00    -0.141 OA 
BRANCH   5   6
HETATM    6  C   UNL     1      -8.431  15.345  66.822  1.00  0.00    -0.272 C  
BRANCH   6   7
HETATM    7  C   UNL     1      -9.355  14.173  67.040  1.00  0.00    -0.253 A  
HETATM    8  C   UNL     1     -10.301  13.827  66.056  1.00  0.00    -0.311 A  
HETATM    9  C   UNL     1     -11.201  12.783  66.274  1.00  0.00    -0.300 A  
HETATM   10  C   UNL     1     -11.139  12.082  67.483  1.00  0.00    -0.275 A  
HETATM   11  H   UNL     1     -11.974  10.585  68.555  1.00  0.00     0.000 HD 
HETATM   12  C   UNL     1     -10.203  12.397  68.460  1.00  0.00    -0.213 A  
HETATM   13  C   UNL     1      -9.312  13.447  68.240  1.00  0.00    -0.205 A  
HETATM   14  O   UNL     1     -12.016  11.061  67.734  1.00  0.00    -0.609 OA 
BRANCH   9  15
HETATM   15  O   UNL     1     -12.179  12.363  65.410  1.00  0.00    -0.533 OA 
HETATM   16  C   UNL     1     -12.992  13.377  64.831  1.00  0.00    -0.109 C  
ENDBRANCH   9  15
ENDBRANCH   6   7
ENDBRANCH   5   6
ENDBRANCH   4   5
ENDBRANCH   3   4
ENDBRANCH   2   3
TORSDOF 6
ENDMDL
MODEL      195
REMARK 921   NORMALIZED FREE ENERGY PREDICTED BY IDOCK:   -2.99 KCAL/MOL
REMARK 922        TOTAL FREE ENERGY PREDICTED BY IDOCK:   -4.36 KCAL/MOL
REMARK 923 INTER-LIGAND FREE ENERGY PREDICTED BY IDOCK:   -4.07 KCAL/MOL
REMARK 924 INTRA-LIGAND FREE ENERGY PREDICTED BY IDOCK:   -0.29 KCAL/MOL
REMARK 927      BINDING AFFINITY PREDICTED BY RF-SCORE:    0.00 PKD
ROOT
HETATM    1  C   UNL     1      -5.170  14.605  69.494  1.00  0.00    -0.087 C  
HETATM    2  C   UNL     1      -5.312  15.910  70.261  1.00  0.00    -0.154 C  
ENDROOT
BRANCH   2   3
HETATM    3  C   UNL     1      -6.387  16.802  69.648  1.00  0.00    -0.217 C  
BRANCH   3   4
HETATM    4  C   UNL     1      -6.522  16.567  68.148  1.00  0.00    -0.136 C  
BRANCH   4   5
HETATM    5  O   UNL     1      -7.873  16.201  67.872  1.00  0.00    -0.137 OA 
BRANCH   5   6
HETATM    6  C   UNL     1      -8.031  15.772  66.521  1.00  0.00    -0.137 C  
BRANCH   6   7
HETATM    7  C   UNL     1      -9.457  15.336  66.298  1.00  0.00    -0.341 A  
HETATM    8  C   UNL     1     -10.047  14.386  67.154  1.00  0.00    -0.253 A  
HETATM    9  C   UNL     1     -11.345  13.931  66.920  1.00  0.00    -0.328 A  
HETATM   10  C   UNL     1     -12.051  14.443  65.825  1.00  0.00    -0.355 A  
HETATM   11  H   UNL     1     -13.801  14.355  64.817  1.00  0.00     0.000 HD 
HETATM   12  C   UNL     1     -11.493  15.392  64.978  1.00  0.00    -0.263 A  
HETATM   13  C   UNL     1     -10.192  15.836  65.213  1.00  0.00    -0.323 A  
HETATM   14  O   UNL     1     -13.322  14.007  65.560  1.00  0.00    -0.673 OA 
BRANCH   9  15
HETATM   15  O   UNL     1     -12.023  12.998  67.662  1.00  0.00    -0.353 OA 
HETATM   16  C   UNL     1     -11.899  13.101  69.075  1.00  0.00    -0.313 C  
ENDBRANCH   9  15
ENDBRANCH   6   7
ENDBRANCH   5   6
ENDBRANCH   4   5
ENDBRANCH   3   4
ENDBRANCH   2   3
TORSDOF 6
ENDMDL
MODEL      196
REMARK 921   NORMALIZED FREE ENERGY PREDICTED BY IDOCK:   -2.99 KCAL/MOL
REMARK 922        TOTAL FREE ENERGY PREDICTED BY IDOCK:   -4.35 KCAL/MOL
REMARK 923 INTER-LIGAND FREE ENERGY PREDICTED BY IDOCK:   -3.91 KCAL/MOL
REMARK 924 INTRA-LIGAND FREE ENERGY PREDICTED BY IDOCK:   -0.44 KCAL/MOL
REMARK 927      BINDING AFFINITY PREDICTED BY RF-SCORE:    0.00 PKD
ROOT
HETATM    1  C   UNL     1     -12.098  15.957  70.882  1.00  0.00    -0.414 C  
HETATM    2  C   UNL     1     -11.507  14.571  70.674  1.00  0.00    -0.216 C  
ENDROOT
BRANCH   2   3
HETATM    3  C   UNL     1     -12.293  13.781  69.632  1.00  0.00    -0.284 C  
BRANCH   3   4
HETATM    4  C   UNL     1     -11.482  13.570  68.359  1.00  0.00    -0.311 C  
BRANCH   4   5
HETATM    5  O   UNL     1     -11.013  12.223  68.344  1.00  0.00    -0.211 OA 
BRANCH   5   6
HETATM    6  C   UNL     1     -12.025  11.315  68.774  1.00  0.00    -0.282 C  
BRANCH   6   7
HETATM    7  C   UNL     1     -11.389  10.189  69.551  1.00  0.00    -0.260 A  
HETATM    8  C   UNL     1     -10.519   9.289  68.906  1.00  0.00    -0.235 A  
HETATM    9  C   UNL     1      -9.974   8.209  69.602  1.00  0.00    -0.193 A  
HETATM   10  C   UNL     1     -10.302   8.044  70.952  1.00  0.00    -0.200 A  
HETATM   11  H   UNL     1     -10.016   6.875  72.577  1.00  0.00     0.000 HD 
HETATM   12  C   UNL     1     -11.145   8.929  71.611  1.00  0.00    -0.420 A  
HETATM   13  C   UNL     1     -11.693  10.002  70.908  1.00  0.00    -0.462 A  
HETATM   14  O   UNL     1      -9.794   6.988  71.660  1.00  0.00    -0.165 OA 
BRANCH   9  15
HETATM   15  O   UNL     1      -9.135   7.254  69.088  1.00  0.00    -0.138 OA 
HETATM   16  C   UNL     1      -9.536   6.653  67.862  1.00  0.00    -0.119 C  
ENDBRANCH   9  15
ENDBRANCH   6   7
ENDBRANCH   5   6
ENDBRANCH   4   5
ENDBRANCH   3   4
ENDBRANCH   2   3
TORSDOF 6
ENDMDL
MODEL      197
REMARK 921   NORMALIZED FREE ENERGY PREDICTED BY IDOCK:   -2.98 KCAL/MOL
REMARK 922        TOTAL FREE ENERGY PREDICTED BY IDOCK:   -4.34 KCAL/MOL
REMARK 923 INTER-LIGAND FREE ENERGY PREDICTED BY IDOCK:   -4.15 KCAL/MOL
REMARK 924 INTRA-LIGAND FREE ENERGY PREDICTED BY IDOCK:   -0.19 KCAL/MOL
REMARK 927      BINDING AFFINITY PREDICTED BY RF-SCORE:    0.00 PKD
ROOT
HETATM    1  C   UNL     1      -7.504  17.518  68.499  1.00  0.00    -0.264 C  
HETATM    2  C   UNL     1      -8.972  17.145  68.361  1.00  0.00    -0.259 C  
ENDROOT
BRANCH   2   3
HETATM    3  C   UNL     1      -9.229  16.357  67.080  1.00  0.00    -0.236 C  
BRANCH   3   4
HETATM    4  C   UNL     1      -9.551  14.897  67.375  1.00  0.00    -0.206 C  
BRANCH   4   5
HETATM    5  O   UNL     1     -10.813  14.589  66.785  1.00  0.00    -0.294 OA 
BRANCH   5   6
HETATM    6  C   UNL     1     -11.755  14.159  67.766  1.00  0.00    -0.373 C  
BRANCH   6   7
HETATM    7  C   UNL     1     -11.481  12.721  68.126  1.00  0.00    -0.357 A  
HETATM    8  C   UNL     1     -10.986  11.831  67.154  1.00  0.00    -0.326 A  
HETATM    9  C   UNL     1     -10.786  10.484  67.462  1.00  0.00    -0.301 A  
HETATM   10  C   UNL     1     -11.078  10.039  68.756  1.00  0.00    -0.173 A  
HETATM   11  H   UNL     1     -11.103   8.419  69.965  1.00  0.00     0.000 HD 
HETATM   12  C   UNL     1     -11.552  10.904  69.734  1.00  0.00    -0.399 A  
HETATM   13  C   UNL     1     -11.757  12.246  69.418  1.00  0.00    -0.392 A  
HETATM   14  O   UNL     1     -10.906   8.722  69.087  1.00  0.00    -0.173 OA 
BRANCH   9  15
HETATM   15  O   UNL     1     -10.332   9.515  66.604  1.00  0.00    -0.243 OA 
HETATM   16  C   UNL     1      -9.000   9.667  66.126  1.00  0.00    -0.154 C  
ENDBRANCH   9  15
ENDBRANCH   6   7
ENDBRANCH   5   6
ENDBRANCH   4   5
ENDBRANCH   3   4
ENDBRANCH   2   3
TORSDOF 6
ENDMDL
MODEL      198
REMARK 921   NORMALIZED FREE ENERGY PREDICTED BY IDOCK:   -2.98 KCAL/MOL
REMARK 922        TOTAL FREE ENERGY PREDICTED BY IDOCK:   -4.34 KCAL/MOL
REMARK 923 INTER-LIGAND FREE ENERGY PREDICTED BY IDOCK:   -4.05 KCAL/MOL
REMARK 924 INTRA-LIGAND FREE ENERGY PREDICTED BY IDOCK:   -0.29 KCAL/MOL
REMARK 927      BINDING AFFINITY PREDICTED BY RF-SCORE:    0.00 PKD
ROOT
HETATM    1  C   UNL     1      -9.912   8.334  69.135  1.00  0.00    -0.196 C  
HETATM    2  C   UNL     1     -10.794   9.419  69.732  1.00  0.00    -0.250 C  
ENDROOT
BRANCH   2   3
HETATM    3  C   UNL     1     -11.647  10.095  68.663  1.00  0.00    -0.009 C  
BRANCH   3   4
HETATM    4  C   UNL     1     -10.922  11.279  68.034  1.00  0.00    -0.247 C  
BRANCH   4   5
HETATM    5  O   UNL     1     -11.842  12.365  67.932  1.00  0.00    -0.351 OA 
BRANCH   5   6
HETATM    6  C   UNL     1     -11.754  13.230  69.063  1.00  0.00    -0.322 C  
BRANCH   6   7
HETATM    7  C   UNL     1     -11.142  14.542  68.642  1.00  0.00    -0.272 A  
HETATM    8  C   UNL     1     -11.241  14.971  67.305  1.00  0.00    -0.339 A  
HETATM    9  C   UNL     1     -10.627  16.154  66.893  1.00  0.00    -0.283 A  
HETATM   10  C   UNL     1      -9.920  16.909  67.835  1.00  0.00    -0.274 A  
HETATM   11  H   UNL     1      -8.816  18.582  68.100  1.00  0.00     0.000 HD 
HETATM   12  C   UNL     1      -9.824  16.513  69.163  1.00  0.00    -0.254 A  
HETATM   13  C   UNL     1     -10.433  15.325  69.566  1.00  0.00    -0.265 A  
HETATM   14  O   UNL     1      -9.295  18.069  67.460  1.00  0.00    -0.255 OA 
BRANCH   9  15
HETATM   15  O   UNL     1     -10.629  16.669  65.621  1.00  0.00    -0.381 OA 
HETATM   16  C   UNL     1     -11.270  15.884  64.622  1.00  0.00    -0.351 C  
ENDBRANCH   9  15
ENDBRANCH   6   7
ENDBRANCH   5   6
ENDBRANCH   4   5
ENDBRANCH   3   4
ENDBRANCH   2   3
TORSDOF 6
ENDMDL
MODEL      199
REMARK 921   NORMALIZED FREE ENERGY PREDICTED BY IDOCK:   -2.98 KCAL/MOL
REMARK 922        TOTAL FREE ENERGY PREDICTED BY IDOCK:   -4.34 KCAL/MOL
REMARK 923 INTER-LIGAND FREE ENERGY PREDICTED BY IDOCK:   -4.02 KCAL/MOL
REMARK 924 INTRA-LIGAND FREE ENERGY PREDICTED BY IDOCK:   -0.32 KCAL/MOL
REMARK 927      BINDING AFFINITY PREDICTED BY RF-SCORE:    0.00 PKD
ROOT
HETATM    1  C   UNL     1      -6.125  11.591  70.097  1.00  0.00    -0.156 C  
HETATM    2  C   UNL     1      -6.574  12.698  69.156  1.00  0.00    -0.099 C  
ENDROOT
BRANCH   2   3
HETATM    3  C   UNL     1      -6.277  14.078  69.736  1.00  0.00    -0.137 C  
BRANCH   3   4
HETATM    4  C   UNL     1      -6.737  15.190  68.800  1.00  0.00    -0.099 C  
BRANCH   4   5
HETATM    5  O   UNL     1      -7.738  15.954  69.471  1.00  0.00    -0.223 OA 
BRANCH   5   6
HETATM    6  C   UNL     1      -9.010  15.312  69.411  1.00  0.00    -0.225 C  
BRANCH   6   7
HETATM    7  C   UNL     1      -9.628  15.551  68.057  1.00  0.00    -0.203 A  
HETATM    8  C   UNL     1      -9.662  14.515  67.104  1.00  0.00    -0.240 A  
HETATM    9  C   UNL     1     -10.177  14.744  65.827  1.00  0.00    -0.338 A  
HETATM   10  C   UNL     1     -10.666  16.018  65.516  1.00  0.00    -0.361 A  
HETATM   11  H   UNL     1     -11.498  17.144  64.058  1.00  0.00     0.000 HD 
HETATM   12  C   UNL     1     -10.656  17.049  66.447  1.00  0.00    -0.172 A  
HETATM   13  C   UNL     1     -10.133  16.816  67.719  1.00  0.00    -0.281 A  
HETATM   14  O   UNL     1     -11.166  16.279  64.269  1.00  0.00    -0.770 OA 
BRANCH   9  15
HETATM   15  O   UNL     1     -10.248  13.831  64.806  1.00  0.00    -0.403 OA 
HETATM   16  C   UNL     1     -11.371  12.958  64.814  1.00  0.00    -0.315 C  
ENDBRANCH   9  15
ENDBRANCH   6   7
ENDBRANCH   5   6
ENDBRANCH   4   5
ENDBRANCH   3   4
ENDBRANCH   2   3
TORSDOF 6
ENDMDL
MODEL      200
REMARK 921   NORMALIZED FREE ENERGY PREDICTED BY IDOCK:   -2.97 KCAL/MOL
REMARK 922        TOTAL FREE ENERGY PREDICTED BY IDOCK:   -4.33 KCAL/MOL
REMARK 923 INTER-LIGAND FREE ENERGY PREDICTED BY IDOCK:   -3.95 KCAL/MOL
REMARK 924 INTRA-LIGAND FREE ENERGY PREDICTED BY IDOCK:   -0.37 KCAL/MOL
REMARK 927      BINDING AFFINITY PREDICTED BY RF-SCORE:    0.00 PKD
ROOT
HETATM    1  C   UNL     1     -11.354  15.057  64.881  1.00  0.00    -0.419 C  
HETATM    2  C   UNL     1     -10.449  13.865  65.147  1.00  0.00    -0.409 C  
ENDROOT
BRANCH   2   3
HETATM    3  C   UNL     1     -11.103  12.558  64.709  1.00  0.00    -0.338 C  
BRANCH   3   4
HETATM    4  C   UNL     1     -10.062  11.493  64.381  1.00  0.00    -0.282 C  
BRANCH   4   5
HETATM    5  O   UNL     1     -10.496  10.256  64.942  1.00  0.00    -0.212 OA 
BRANCH   5   6
HETATM    6  C   UNL     1      -9.392   9.471  65.388  1.00  0.00    -0.261 C  
BRANCH   6   7
HETATM    7  C   UNL     1      -9.422   9.374  66.893  1.00  0.00    -0.204 A  
HETATM    8  C   UNL     1     -10.332   8.507  67.527  1.00  0.00    -0.334 A  
HETATM    9  C   UNL     1     -10.410   8.456  68.919  1.00  0.00    -0.215 A  
HETATM   10  C   UNL     1      -9.559   9.274  69.671  1.00  0.00    -0.183 A  
HETATM   11  H   UNL     1      -9.041   9.812  71.550  1.00  0.00     0.000 HD 
HETATM   12  C   UNL     1      -8.643  10.124  69.065  1.00  0.00    -0.156 A  
HETATM   13  C   UNL     1      -8.577  10.177  67.674  1.00  0.00    -0.118 A  
HETATM   14  O   UNL     1      -9.619   9.257  71.039  1.00  0.00    -0.271 OA 
BRANCH   9  15
HETATM   15  O   UNL     1     -11.263   7.675  69.655  1.00  0.00    -0.129 OA 
HETATM   16  C   UNL     1     -11.247   6.280  69.374  1.00  0.00    -0.420 C  
ENDBRANCH   9  15
ENDBRANCH   6   7
ENDBRANCH   5   6
ENDBRANCH   4   5
ENDBRANCH   3   4
ENDBRANCH   2   3
TORSDOF 6
ENDMDL
MODEL      201
REMARK 921   NORMALIZED FREE ENERGY PREDICTED BY IDOCK:   -2.96 KCAL/MOL
REMARK 922        TOTAL FREE ENERGY PREDICTED BY IDOCK:   -4.32 KCAL/MOL
REMARK 923 INTER-LIGAND FREE ENERGY PREDICTED BY IDOCK:   -3.85 KCAL/MOL
REMARK 924 INTRA-LIGAND FREE ENERGY PREDICTED BY IDOCK:   -0.47 KCAL/MOL
REMARK 927      BINDING AFFINITY PREDICTED BY RF-SCORE:    0.00 PKD
ROOT
HETATM    1  C   UNL     1      -7.967   4.978  70.480  1.00  0.00    -0.081 C  
HETATM    2  C   UNL     1      -9.429   5.329  70.707  1.00  0.00    -0.221 C  
ENDROOT
BRANCH   2   3
HETATM    3  C   UNL     1      -9.966   4.684  71.982  1.00  0.00    -0.251 C  
BRANCH   3   4
HETATM    4  C   UNL     1     -10.289   5.728  73.044  1.00  0.00    -0.204 C  
BRANCH   4   5
HETATM    5  O   UNL     1      -9.528   6.902  72.764  1.00  0.00    -0.141 OA 
BRANCH   5   6
HETATM    6  C   UNL     1     -10.320   8.081  72.903  1.00  0.00    -0.327 C  
BRANCH   6   7
HETATM    7  C   UNL     1     -10.129   8.957  71.690  1.00  0.00    -0.411 A  
HETATM    8  C   UNL     1     -11.205   9.712  71.188  1.00  0.00    -0.454 A  
HETATM    9  C   UNL     1     -11.055  10.479  70.032  1.00  0.00    -0.308 A  
HETATM   10  C   UNL     1      -9.813  10.488  69.387  1.00  0.00    -0.182 A  
HETATM   11  H   UNL     1      -8.793  11.227  67.806  1.00  0.00     0.000 HD 
HETATM   12  C   UNL     1      -8.734   9.762  69.875  1.00  0.00    -0.238 A  
HETATM   13  C   UNL     1      -8.893   8.992  71.026  1.00  0.00    -0.291 A  
HETATM   14  O   UNL     1      -9.636  11.220  68.243  1.00  0.00    -0.178 OA 
BRANCH   9  15
HETATM   15  O   UNL     1     -12.026  11.239  69.431  1.00  0.00    -0.310 OA 
HETATM   16  C   UNL     1     -12.115  12.597  69.848  1.00  0.00    -0.252 C  
ENDBRANCH   9  15
ENDBRANCH   6   7
ENDBRANCH   5   6
ENDBRANCH   4   5
ENDBRANCH   3   4
ENDBRANCH   2   3
TORSDOF 6
ENDMDL
MODEL      202
REMARK 921   NORMALIZED FREE ENERGY PREDICTED BY IDOCK:   -2.96 KCAL/MOL
REMARK 922        TOTAL FREE ENERGY PREDICTED BY IDOCK:   -4.31 KCAL/MOL
REMARK 923 INTER-LIGAND FREE ENERGY PREDICTED BY IDOCK:   -4.00 KCAL/MOL
REMARK 924 INTRA-LIGAND FREE ENERGY PREDICTED BY IDOCK:   -0.32 KCAL/MOL
REMARK 927      BINDING AFFINITY PREDICTED BY RF-SCORE:    0.00 PKD
ROOT
HETATM    1  C   UNL     1     -11.997  11.151  69.074  1.00  0.00    -0.389 C  
HETATM    2  C   UNL     1     -12.237  11.578  70.513  1.00  0.00    -0.469 C  
ENDROOT
BRANCH   2   3
HETATM    3  C   UNL     1     -12.607  10.387  71.393  1.00  0.00    -0.539 C  
BRANCH   3   4
HETATM    4  C   UNL     1     -11.472   9.372  71.469  1.00  0.00    -0.397 C  
BRANCH   4   5
HETATM    5  O   UNL     1     -11.951   8.127  70.963  1.00  0.00    -0.295 OA 
BRANCH   5   6
HETATM    6  C   UNL     1     -10.883   7.321  70.471  1.00  0.00    -0.243 C  
BRANCH   6   7
HETATM    7  C   UNL     1     -10.613   6.200  71.443  1.00  0.00    -0.294 A  
HETATM    8  C   UNL     1      -9.380   5.521  71.414  1.00  0.00    -0.174 A  
HETATM    9  C   UNL     1      -9.144   4.443  72.269  1.00  0.00    -0.121 A  
HETATM   10  C   UNL     1     -10.151   4.058  73.161  1.00  0.00    -0.144 A  
HETATM   11  H   UNL     1     -10.640   2.736  74.610  1.00  0.00     0.000 HD 
HETATM   12  C   UNL     1     -11.368   4.725  73.217  1.00  0.00    -0.408 A  
HETATM   13  C   UNL     1     -11.601   5.796  72.354  1.00  0.00    -0.320 A  
HETATM   14  O   UNL     1      -9.956   2.997  74.004  1.00  0.00    -0.098 OA 
BRANCH   9  15
HETATM   15  O   UNL     1      -8.001   3.688  72.324  1.00  0.00    -0.066 OA 
HETATM   16  C   UNL     1      -7.659   2.969  71.145  1.00  0.00    -0.040 C  
ENDBRANCH   9  15
ENDBRANCH   6   7
ENDBRANCH   5   6
ENDBRANCH   4   5
ENDBRANCH   3   4
ENDBRANCH   2   3
TORSDOF 6
ENDMDL
MODEL      203
REMARK 921   NORMALIZED FREE ENERGY PREDICTED BY IDOCK:   -2.95 KCAL/MOL
REMARK 922        TOTAL FREE ENERGY PREDICTED BY IDOCK:   -4.31 KCAL/MOL
REMARK 923 INTER-LIGAND FREE ENERGY PREDICTED BY IDOCK:   -4.01 KCAL/MOL
REMARK 924 INTRA-LIGAND FREE ENERGY PREDICTED BY IDOCK:   -0.29 KCAL/MOL
REMARK 927      BINDING AFFINITY PREDICTED BY RF-SCORE:    0.00 PKD
ROOT
HETATM    1  C   UNL     1     -12.818  13.709  65.435  1.00  0.00    -0.440 C  
HETATM    2  C   UNL     1     -12.089  14.191  66.679  1.00  0.00    -0.480 C  
ENDROOT
BRANCH   2   3
HETATM    3  C   UNL     1     -12.005  13.094  67.737  1.00  0.00    -0.352 C  
BRANCH   3   4
HETATM    4  C   UNL     1     -10.663  12.373  67.690  1.00  0.00    -0.221 C  
BRANCH   4   5
HETATM    5  O   UNL     1     -10.893  11.025  67.285  1.00  0.00    -0.248 OA 
BRANCH   5   6
HETATM    6  C   UNL     1      -9.724  10.447  66.709  1.00  0.00    -0.181 C  
BRANCH   6   7
HETATM    7  C   UNL     1      -9.810   8.944  66.802  1.00  0.00    -0.308 A  
HETATM    8  C   UNL     1     -10.639   8.343  67.769  1.00  0.00    -0.238 A  
HETATM    9  C   UNL     1     -10.679   6.955  67.903  1.00  0.00    -0.232 A  
HETATM   10  C   UNL     1      -9.888   6.173  67.054  1.00  0.00    -0.149 A  
HETATM   11  H   UNL     1      -9.357   4.278  66.592  1.00  0.00     0.000 HD 
HETATM   12  C   UNL     1      -9.075   6.746  66.084  1.00  0.00    -0.138 A  
HETATM   13  C   UNL     1      -9.033   8.134  65.961  1.00  0.00    -0.213 A  
HETATM   14  O   UNL     1      -9.894   4.809  67.169  1.00  0.00    -0.170 OA 
BRANCH   9  15
HETATM   15  O   UNL     1     -11.424   6.250  68.813  1.00  0.00    -0.294 OA 
HETATM   16  C   UNL     1     -11.135   6.486  70.186  1.00  0.00    -0.351 C  
ENDBRANCH   9  15
ENDBRANCH   6   7
ENDBRANCH   5   6
ENDBRANCH   4   5
ENDBRANCH   3   4
ENDBRANCH   2   3
TORSDOF 6
ENDMDL
MODEL      204
REMARK 921   NORMALIZED FREE ENERGY PREDICTED BY IDOCK:   -2.94 KCAL/MOL
REMARK 922        TOTAL FREE ENERGY PREDICTED BY IDOCK:   -4.29 KCAL/MOL
REMARK 923 INTER-LIGAND FREE ENERGY PREDICTED BY IDOCK:   -4.13 KCAL/MOL
REMARK 924 INTRA-LIGAND FREE ENERGY PREDICTED BY IDOCK:   -0.16 KCAL/MOL
REMARK 927      BINDING AFFINITY PREDICTED BY RF-SCORE:    0.00 PKD
ROOT
HETATM    1  C   UNL     1     -11.114  12.312  65.502  1.00  0.00    -0.348 C  
HETATM    2  C   UNL     1     -10.476  11.176  66.286  1.00  0.00    -0.312 C  
ENDROOT
BRANCH   2   3
HETATM    3  C   UNL     1     -10.281  11.550  67.752  1.00  0.00    -0.200 C  
BRANCH   3   4
HETATM    4  C   UNL     1     -11.504  11.192  68.589  1.00  0.00    -0.298 C  
BRANCH   4   5
HETATM    5  O   UNL     1     -11.206  10.014  69.336  1.00  0.00    -0.231 OA 
BRANCH   5   6
HETATM    6  C   UNL     1     -11.369  10.230  70.736  1.00  0.00    -0.337 C  
BRANCH   6   7
HETATM    7  C   UNL     1     -11.234   8.916  71.464  1.00  0.00    -0.396 A  
HETATM    8  C   UNL     1     -10.103   8.666  72.264  1.00  0.00    -0.363 A  
HETATM    9  C   UNL     1      -9.939   7.431  72.893  1.00  0.00    -0.232 A  
HETATM   10  C   UNL     1     -10.923   6.451  72.719  1.00  0.00    -0.257 A  
HETATM   11  H   UNL     1     -11.454   4.559  73.194  1.00  0.00     0.000 HD 
HETATM   12  C   UNL     1     -12.054   6.683  71.946  1.00  0.00    -0.385 A  
HETATM   13  C   UNL     1     -12.207   7.917  71.315  1.00  0.00    -0.314 A  
HETATM   14  O   UNL     1     -10.786   5.224  73.312  1.00  0.00    -0.228 OA 
BRANCH   9  15
HETATM   15  O   UNL     1      -8.879   7.055  73.677  1.00  0.00    -0.132 OA 
HETATM   16  C   UNL     1      -7.748   6.520  73.000  1.00  0.00    -0.097 C  
ENDBRANCH   9  15
ENDBRANCH   6   7
ENDBRANCH   5   6
ENDBRANCH   4   5
ENDBRANCH   3   4
ENDBRANCH   2   3
TORSDOF 6
ENDMDL
MODEL      205
REMARK 921   NORMALIZED FREE ENERGY PREDICTED BY IDOCK:   -2.92 KCAL/MOL
REMARK 922        TOTAL FREE ENERGY PREDICTED BY IDOCK:   -4.26 KCAL/MOL
REMARK 923 INTER-LIGAND FREE ENERGY PREDICTED BY IDOCK:   -3.86 KCAL/MOL
REMARK 924 INTRA-LIGAND FREE ENERGY PREDICTED BY IDOCK:   -0.40 KCAL/MOL
REMARK 927      BINDING AFFINITY PREDICTED BY RF-SCORE:    0.00 PKD
ROOT
HETATM    1  C   UNL     1     -11.597  14.315  67.885  1.00  0.00    -0.367 C  
HETATM    2  C   UNL     1     -12.273  14.207  66.527  1.00  0.00    -0.463 C  
ENDROOT
BRANCH   2   3
HETATM    3  C   UNL     1     -11.967  12.871  65.857  1.00  0.00    -0.504 C  
BRANCH   3   4
HETATM    4  C   UNL     1     -10.830  12.996  64.850  1.00  0.00    -0.323 C  
BRANCH   4   5
HETATM    5  O   UNL     1      -9.822  12.047  65.194  1.00  0.00    -0.248 OA 
BRANCH   5   6
HETATM    6  C   UNL     1     -10.352  10.988  65.988  1.00  0.00    -0.254 C  
BRANCH   6   7
HETATM    7  C   UNL     1      -9.564   9.728  65.731  1.00  0.00    -0.318 A  
HETATM    8  C   UNL     1      -9.892   8.539  66.410  1.00  0.00    -0.327 A  
HETATM    9  C   UNL     1      -9.131   7.384  66.226  1.00  0.00    -0.156 A  
HETATM   10  C   UNL     1      -8.043   7.429  65.347  1.00  0.00    -0.133 A  
HETATM   11  H   UNL     1      -6.530   6.346  64.556  1.00  0.00     0.000 HD 
HETATM   12  C   UNL     1      -7.712   8.587  64.655  1.00  0.00    -0.116 A  
HETATM   13  C   UNL     1      -8.471   9.739  64.851  1.00  0.00    -0.165 A  
HETATM   14  O   UNL     1      -7.268   6.316  65.153  1.00  0.00    -0.065 OA 
BRANCH   9  15
HETATM   15  O   UNL     1      -9.331   6.175  66.840  1.00  0.00    -0.126 OA 
HETATM   16  C   UNL     1     -10.667   5.874  67.227  1.00  0.00    -0.297 C  
ENDBRANCH   9  15
ENDBRANCH   6   7
ENDBRANCH   5   6
ENDBRANCH   4   5
ENDBRANCH   3   4
ENDBRANCH   2   3
TORSDOF 6
ENDMDL
MODEL      206
REMARK 921   NORMALIZED FREE ENERGY PREDICTED BY IDOCK:   -2.89 KCAL/MOL
REMARK 922        TOTAL FREE ENERGY PREDICTED BY IDOCK:   -4.22 KCAL/MOL
REMARK 923 INTER-LIGAND FREE ENERGY PREDICTED BY IDOCK:   -3.99 KCAL/MOL
REMARK 924 INTRA-LIGAND FREE ENERGY PREDICTED BY IDOCK:   -0.23 KCAL/MOL
REMARK 927      BINDING AFFINITY PREDICTED BY RF-SCORE:    0.00 PKD
ROOT
HETATM    1  C   UNL     1     -11.515   6.484  70.170  1.00  0.00    -0.477 C  
HETATM    2  C   UNL     1     -10.909   6.800  71.528  1.00  0.00    -0.265 C  
ENDROOT
BRANCH   2   3
HETATM    3  C   UNL     1     -10.572   8.282  71.656  1.00  0.00    -0.306 C  
BRANCH   3   4
HETATM    4  C   UNL     1     -11.767   9.161  71.305  1.00  0.00    -0.326 C  
BRANCH   4   5
HETATM    5  O   UNL     1     -11.278  10.381  70.750  1.00  0.00    -0.326 OA 
BRANCH   5   6
HETATM    6  C   UNL     1     -12.159  10.887  69.749  1.00  0.00    -0.338 C  
BRANCH   6   7
HETATM    7  C   UNL     1     -11.885  12.356  69.540  1.00  0.00    -0.368 A  
HETATM    8  C   UNL     1     -10.715  12.768  68.875  1.00  0.00    -0.199 A  
HETATM    9  C   UNL     1     -10.424  14.125  68.729  1.00  0.00    -0.247 A  
HETATM   10  C   UNL     1     -11.321  15.066  69.248  1.00  0.00    -0.296 A  
HETATM   11  H   UNL     1     -11.667  17.043  69.486  1.00  0.00     0.000 HD 
HETATM   12  C   UNL     1     -12.488  14.680  69.894  1.00  0.00    -0.290 A  
HETATM   13  C   UNL     1     -12.769  13.322  70.043  1.00  0.00     0.095 A  
HETATM   14  O   UNL     1     -11.058  16.405  69.134  1.00  0.00    -0.312 OA 
BRANCH   9  15
HETATM   15  O   UNL     1      -9.313  14.656  68.125  1.00  0.00    -0.186 OA 
HETATM   16  C   UNL     1      -8.099  14.594  68.864  1.00  0.00    -0.147 C  
ENDBRANCH   9  15
ENDBRANCH   6   7
ENDBRANCH   5   6
ENDBRANCH   4   5
ENDBRANCH   3   4
ENDBRANCH   2   3
TORSDOF 6
ENDMDL
MODEL      207
REMARK 921   NORMALIZED FREE ENERGY PREDICTED BY IDOCK:   -2.87 KCAL/MOL
REMARK 922        TOTAL FREE ENERGY PREDICTED BY IDOCK:   -4.19 KCAL/MOL
REMARK 923 INTER-LIGAND FREE ENERGY PREDICTED BY IDOCK:   -3.96 KCAL/MOL
REMARK 924 INTRA-LIGAND FREE ENERGY PREDICTED BY IDOCK:   -0.23 KCAL/MOL
REMARK 927      BINDING AFFINITY PREDICTED BY RF-SCORE:    0.00 PKD
ROOT
HETATM    1  C   UNL     1     -12.351  14.021  70.269  1.00  0.00    -0.425 C  
HETATM    2  C   UNL     1     -12.818  14.295  71.690  1.00  0.00    -0.424 C  
ENDROOT
BRANCH   2   3
HETATM    3  C   UNL     1     -13.621  13.125  72.249  1.00  0.00    -0.677 C  
BRANCH   3   4
HETATM    4  C   UNL     1     -13.642  11.947  71.281  1.00  0.00     0.718 C  
BRANCH   4   5
HETATM    5  O   UNL     1     -12.594  11.050  71.646  1.00  0.00    -0.358 OA 
BRANCH   5   6
HETATM    6  C   UNL     1     -13.108   9.770  72.010  1.00  0.00    -0.452 C  
BRANCH   6   7
HETATM    7  C   UNL     1     -12.277   8.694  71.357  1.00  0.00    -0.348 A  
HETATM    8  C   UNL     1     -11.474   9.001  70.242  1.00  0.00    -0.147 A  
HETATM    9  C   UNL     1     -10.749   8.000  69.594  1.00  0.00    -0.207 A  
HETATM   10  C   UNL     1     -10.830   6.689  70.079  1.00  0.00    -0.280 A  
HETATM   11  H   UNL     1     -10.196   4.792  69.786  1.00  0.00     0.000 HD 
HETATM   12  C   UNL     1     -11.604   6.369  71.186  1.00  0.00    -0.378 A  
HETATM   13  C   UNL     1     -12.332   7.372  71.824  1.00  0.00    -0.365 A  
HETATM   14  O   UNL     1     -10.141   5.682  69.457  1.00  0.00    -0.185 OA 
BRANCH   9  15
HETATM   15  O   UNL     1      -9.950   8.162  68.491  1.00  0.00    -0.178 OA 
HETATM   16  C   UNL     1     -10.614   8.446  67.265  1.00  0.00    -0.257 C  
ENDBRANCH   9  15
ENDBRANCH   6   7
ENDBRANCH   5   6
ENDBRANCH   4   5
ENDBRANCH   3   4
ENDBRANCH   2   3
TORSDOF 6
ENDMDL
MODEL      208
REMARK 921   NORMALIZED FREE ENERGY PREDICTED BY IDOCK:   -2.86 KCAL/MOL
REMARK 922        TOTAL FREE ENERGY PREDICTED BY IDOCK:   -4.18 KCAL/MOL
REMARK 923 INTER-LIGAND FREE ENERGY PREDICTED BY IDOCK:   -3.58 KCAL/MOL
REMARK 924 INTRA-LIGAND FREE ENERGY PREDICTED BY IDOCK:   -0.60 KCAL/MOL
REMARK 927      BINDING AFFINITY PREDICTED BY RF-SCORE:    0.00 PKD
ROOT
HETATM    1  C   UNL     1     -11.685  12.333  68.883  1.00  0.00    -0.380 C  
HETATM    2  C   UNL     1     -11.753  12.943  67.492  1.00  0.00    -0.422 C  
ENDROOT
BRANCH   2   3
HETATM    3  C   UNL     1     -11.368  11.929  66.418  1.00  0.00    -0.400 C  
BRANCH   3   4
HETATM    4  C   UNL     1      -9.862  11.911  66.180  1.00  0.00    -0.232 C  
BRANCH   4   5
HETATM    5  O   UNL     1      -9.379  10.600  66.467  1.00  0.00    -0.162 OA 
BRANCH   5   6
HETATM    6  C   UNL     1      -8.274  10.638  67.367  1.00  0.00    -0.115 C  
BRANCH   6   7
HETATM    7  C   UNL     1      -8.622   9.874  68.620  1.00  0.00    -0.119 A  
HETATM    8  C   UNL     1      -9.767   9.055  68.652  1.00  0.00    -0.168 A  
HETATM    9  C   UNL     1     -10.132   8.391  69.824  1.00  0.00    -0.197 A  
HETATM   10  C   UNL     1      -9.333   8.548  70.962  1.00  0.00    -0.185 A  
HETATM   11  H   UNL     1      -9.127   8.028  72.905  1.00  0.00     0.000 HD 
HETATM   12  C   UNL     1      -8.191   9.339  70.947  1.00  0.00    -0.179 A  
HETATM   13  C   UNL     1      -7.837  10.006  69.775  1.00  0.00    -0.185 A  
HETATM   14  O   UNL     1      -9.670   7.921  72.132  1.00  0.00    -0.173 OA 
BRANCH   9  15
HETATM   15  O   UNL     1     -11.229   7.586  69.992  1.00  0.00    -0.243 OA 
HETATM   16  C   UNL     1     -11.052   6.205  69.698  1.00  0.00    -0.419 C  
ENDBRANCH   9  15
ENDBRANCH   6   7
ENDBRANCH   5   6
ENDBRANCH   4   5
ENDBRANCH   3   4
ENDBRANCH   2   3
TORSDOF 6
ENDMDL
MODEL      209
REMARK 921   NORMALIZED FREE ENERGY PREDICTED BY IDOCK:   -2.83 KCAL/MOL
REMARK 922        TOTAL FREE ENERGY PREDICTED BY IDOCK:   -4.14 KCAL/MOL
REMARK 923 INTER-LIGAND FREE ENERGY PREDICTED BY IDOCK:   -3.92 KCAL/MOL
REMARK 924 INTRA-LIGAND FREE ENERGY PREDICTED BY IDOCK:   -0.22 KCAL/MOL
REMARK 927      BINDING AFFINITY PREDICTED BY RF-SCORE:    0.00 PKD
ROOT
HETATM    1  C   UNL     1      -9.511   3.013  64.630  1.00  0.00    -0.150 C  
HETATM    2  C   UNL     1      -8.699   4.255  64.299  1.00  0.00    -0.136 C  
ENDROOT
BRANCH   2   3
HETATM    3  C   UNL     1      -8.893   5.345  65.348  1.00  0.00    -0.144 C  
BRANCH   3   4
HETATM    4  C   UNL     1      -9.669   4.829  66.555  1.00  0.00    -0.193 C  
BRANCH   4   5
HETATM    5  O   UNL     1     -10.728   5.743  66.831  1.00  0.00    -0.285 OA 
BRANCH   5   6
HETATM    6  C   UNL     1     -10.226   7.027  67.197  1.00  0.00    -0.248 C  
BRANCH   6   7
HETATM    7  C   UNL     1     -10.768   7.408  68.552  1.00  0.00    -0.138 A  
HETATM    8  C   UNL     1     -10.622   8.726  69.026  1.00  0.00    -0.191 A  
HETATM    9  C   UNL     1     -11.066   9.073  70.302  1.00  0.00    -0.235 A  
HETATM   10  C   UNL     1     -11.666   8.090  71.097  1.00  0.00    -0.284 A  
HETATM   11  H   UNL     1     -12.508   7.727  72.899  1.00  0.00     0.000 HD 
HETATM   12  C   UNL     1     -11.833   6.788  70.642  1.00  0.00    -0.442 A  
HETATM   13  C   UNL     1     -11.380   6.446  69.369  1.00  0.00    -0.443 A  
HETATM   14  O   UNL     1     -12.101   8.395  72.359  1.00  0.00    -0.371 OA 
BRANCH   9  15
HETATM   15  O   UNL     1     -10.965  10.309  70.887  1.00  0.00    -0.281 OA 
HETATM   16  C   UNL     1     -12.047  11.206  70.663  1.00  0.00    -0.379 C  
ENDBRANCH   9  15
ENDBRANCH   6   7
ENDBRANCH   5   6
ENDBRANCH   4   5
ENDBRANCH   3   4
ENDBRANCH   2   3
TORSDOF 6
ENDMDL
MODEL      210
REMARK 921   NORMALIZED FREE ENERGY PREDICTED BY IDOCK:   -2.82 KCAL/MOL
REMARK 922        TOTAL FREE ENERGY PREDICTED BY IDOCK:   -4.12 KCAL/MOL
REMARK 923 INTER-LIGAND FREE ENERGY PREDICTED BY IDOCK:   -3.63 KCAL/MOL
REMARK 924 INTRA-LIGAND FREE ENERGY PREDICTED BY IDOCK:   -0.49 KCAL/MOL
REMARK 927      BINDING AFFINITY PREDICTED BY RF-SCORE:    0.00 PKD
ROOT
HETATM    1  C   UNL     1     -11.551  16.000  70.010  1.00  0.00    -0.316 C  
HETATM    2  C   UNL     1     -11.449  14.485  70.093  1.00  0.00    -0.297 C  
ENDROOT
BRANCH   2   3
HETATM    3  C   UNL     1     -12.268  13.810  68.997  1.00  0.00    -0.259 C  
BRANCH   3   4
HETATM    4  C   UNL     1     -11.570  13.892  67.645  1.00  0.00    -0.348 C  
BRANCH   4   5
HETATM    5  O   UNL     1     -10.749  12.735  67.494  1.00  0.00    -0.225 OA 
BRANCH   5   6
HETATM    6  C   UNL     1     -11.462  11.544  67.823  1.00  0.00    -0.286 C  
BRANCH   6   7
HETATM    7  C   UNL     1     -10.572  10.638  68.636  1.00  0.00    -0.229 A  
HETATM    8  C   UNL     1     -11.120   9.843  69.661  1.00  0.00    -0.279 A  
HETATM    9  C   UNL     1     -10.296   9.047  70.458  1.00  0.00    -0.218 A  
HETATM   10  C   UNL     1      -8.919   9.046  70.212  1.00  0.00    -0.198 A  
HETATM   11  H   UNL     1      -7.146   8.285  70.817  1.00  0.00     0.000 HD 
HETATM   12  C   UNL     1      -8.360   9.810  69.195  1.00  0.00    -0.137 A  
HETATM   13  C   UNL     1      -9.187  10.610  68.408  1.00  0.00    -0.159 A  
HETATM   14  O   UNL     1      -8.081   8.286  70.984  1.00  0.00    -0.095 OA 
BRANCH   9  15
HETATM   15  O   UNL     1     -10.700   8.248  71.497  1.00  0.00    -0.217 OA 
HETATM   16  C   UNL     1     -11.813   8.710  72.254  1.00  0.00    -0.366 C  
ENDBRANCH   9  15
ENDBRANCH   6   7
ENDBRANCH   5   6
ENDBRANCH   4   5
ENDBRANCH   3   4
ENDBRANCH   2   3
TORSDOF 6
ENDMDL
MODEL      211
REMARK 921   NORMALIZED FREE ENERGY PREDICTED BY IDOCK:   -2.80 KCAL/MOL
REMARK 922        TOTAL FREE ENERGY PREDICTED BY IDOCK:   -4.10 KCAL/MOL
REMARK 923 INTER-LIGAND FREE ENERGY PREDICTED BY IDOCK:   -3.50 KCAL/MOL
REMARK 924 INTRA-LIGAND FREE ENERGY PREDICTED BY IDOCK:   -0.60 KCAL/MOL
REMARK 927      BINDING AFFINITY PREDICTED BY RF-SCORE:    0.00 PKD
ROOT
HETATM    1  C   UNL     1     -10.968  10.080  69.912  1.00  0.00    -0.339 C  
HETATM    2  C   UNL     1     -11.820  10.043  71.170  1.00  0.00    -0.481 C  
ENDROOT
BRANCH   2   3
HETATM    3  C   UNL     1     -11.377   8.926  72.111  1.00  0.00    -0.369 C  
BRANCH   3   4
HETATM    4  C   UNL     1     -11.995   7.588  71.723  1.00  0.00    -0.301 C  
BRANCH   4   5
HETATM    5  O   UNL     1     -11.116   6.548  72.150  1.00  0.00    -0.238 OA 
BRANCH   5   6
HETATM    6  C   UNL     1      -9.806   6.721  71.615  1.00  0.00    -0.165 C  
BRANCH   6   7
HETATM    7  C   UNL     1      -9.661   5.889  70.366  1.00  0.00    -0.217 A  
HETATM    8  C   UNL     1      -9.588   6.513  69.106  1.00  0.00    -0.137 A  
HETATM    9  C   UNL     1      -9.515   5.749  67.940  1.00  0.00    -0.110 A  
HETATM   10  C   UNL     1      -9.508   4.354  68.049  1.00  0.00    -0.156 A  
HETATM   11  H   UNL     1      -9.446   2.629  66.997  1.00  0.00     0.000 HD 
HETATM   12  C   UNL     1      -9.564   3.719  69.283  1.00  0.00    -0.209 A  
HETATM   13  C   UNL     1      -9.645   4.488  70.443  1.00  0.00    -0.270 A  
HETATM   14  O   UNL     1      -9.451   3.576  66.923  1.00  0.00    -0.197 OA 
BRANCH   9  15
HETATM   15  O   UNL     1      -9.461   6.231  66.657  1.00  0.00    -0.146 OA 
HETATM   16  C   UNL     1      -9.060   7.588  66.507  1.00  0.00    -0.166 C  
ENDBRANCH   9  15
ENDBRANCH   6   7
ENDBRANCH   5   6
ENDBRANCH   4   5
ENDBRANCH   3   4
ENDBRANCH   2   3
TORSDOF 6
ENDMDL
MODEL      212
REMARK 921   NORMALIZED FREE ENERGY PREDICTED BY IDOCK:   -2.79 KCAL/MOL
REMARK 922        TOTAL FREE ENERGY PREDICTED BY IDOCK:   -4.09 KCAL/MOL
REMARK 923 INTER-LIGAND FREE ENERGY PREDICTED BY IDOCK:   -3.75 KCAL/MOL
REMARK 924 INTRA-LIGAND FREE ENERGY PREDICTED BY IDOCK:   -0.34 KCAL/MOL
REMARK 927      BINDING AFFINITY PREDICTED BY RF-SCORE:    0.00 PKD
ROOT
HETATM    1  C   UNL     1      -7.606  10.186  69.610  1.00  0.00    -0.158 C  
HETATM    2  C   UNL     1      -8.159   9.457  68.395  1.00  0.00    -0.109 C  
ENDROOT
BRANCH   2   3
HETATM    3  C   UNL     1      -9.477   8.758  68.716  1.00  0.00    -0.142 C  
BRANCH   3   4
HETATM    4  C   UNL     1     -10.645   9.736  68.712  1.00  0.00    -0.219 C  
BRANCH   4   5
HETATM    5  O   UNL     1     -10.625  10.452  67.479  1.00  0.00    -0.223 OA 
BRANCH   5   6
HETATM    6  C   UNL     1     -11.102  11.787  67.643  1.00  0.00    -0.252 C  
BRANCH   6   7
HETATM    7  C   UNL     1     -11.436  12.368  66.292  1.00  0.00    -0.423 A  
HETATM    8  C   UNL     1     -11.474  13.765  66.115  1.00  0.00    -0.350 A  
HETATM    9  C   UNL     1     -11.840  14.313  64.885  1.00  0.00    -0.410 A  
HETATM   10  C   UNL     1     -12.160  13.449  63.832  1.00  0.00    -0.455 A  
HETATM   11  H   UNL     1     -12.753  13.369  61.900  1.00  0.00     0.000 HD 
HETATM   12  C   UNL     1     -12.113  12.069  63.981  1.00  0.00    -0.506 A  
HETATM   13  C   UNL     1     -11.754  11.528  65.215  1.00  0.00     0.113 A  
HETATM   14  O   UNL     1     -12.536  13.955  62.616  1.00  0.00    -0.170 OA 
BRANCH   9  15
HETATM   15  O   UNL     1     -11.937  15.648  64.590  1.00  0.00    -0.200 OA 
HETATM   16  C   UNL     1     -10.809  16.452  64.916  1.00  0.00    -0.250 C  
ENDBRANCH   9  15
ENDBRANCH   6   7
ENDBRANCH   5   6
ENDBRANCH   4   5
ENDBRANCH   3   4
ENDBRANCH   2   3
TORSDOF 6
ENDMDL
MODEL      213
REMARK 921   NORMALIZED FREE ENERGY PREDICTED BY IDOCK:   -2.77 KCAL/MOL
REMARK 922        TOTAL FREE ENERGY PREDICTED BY IDOCK:   -4.06 KCAL/MOL
REMARK 923 INTER-LIGAND FREE ENERGY PREDICTED BY IDOCK:   -3.79 KCAL/MOL
REMARK 924 INTRA-LIGAND FREE ENERGY PREDICTED BY IDOCK:   -0.27 KCAL/MOL
REMARK 927      BINDING AFFINITY PREDICTED BY RF-SCORE:    0.00 PKD
ROOT
HETATM    1  C   UNL     1      -8.070   3.778  66.487  1.00  0.00    -0.096 C  
HETATM    2  C   UNL     1      -8.315   5.148  65.874  1.00  0.00    -0.118 C  
ENDROOT
BRANCH   2   3
HETATM    3  C   UNL     1      -9.222   5.999  66.758  1.00  0.00    -0.143 C  
BRANCH   3   4
HETATM    4  C   UNL     1      -8.613   7.370  67.029  1.00  0.00    -0.119 C  
BRANCH   4   5
HETATM    5  O   UNL     1      -9.630   8.213  67.567  1.00  0.00    -0.148 OA 
BRANCH   5   6
HETATM    6  C   UNL     1      -9.835   7.960  68.956  1.00  0.00    -0.171 C  
BRANCH   6   7
HETATM    7  C   UNL     1     -10.651   9.079  69.553  1.00  0.00    -0.231 A  
HETATM    8  C   UNL     1     -11.412   8.855  70.716  1.00  0.00    -0.319 A  
HETATM    9  C   UNL     1     -12.217   9.867  71.242  1.00  0.00    -0.387 A  
HETATM   10  C   UNL     1     -12.246  11.108  70.596  1.00  0.00    -0.397 A  
HETATM   11  H   UNL     1     -13.054  12.960  70.641  1.00  0.00     0.000 HD 
HETATM   12  C   UNL     1     -11.490  11.354  69.457  1.00  0.00    -0.381 A  
HETATM   13  C   UNL     1     -10.694  10.337  68.933  1.00  0.00    -0.256 A  
HETATM   14  O   UNL     1     -13.035  12.117  71.079  1.00  0.00    -0.217 OA 
BRANCH   9  15
HETATM   15  O   UNL     1     -13.018   9.771  72.350  1.00  0.00    -0.363 OA 
HETATM   16  C   UNL     1     -14.012   8.752  72.327  1.00  0.00    -0.447 C  
ENDBRANCH   9  15
ENDBRANCH   6   7
ENDBRANCH   5   6
ENDBRANCH   4   5
ENDBRANCH   3   4
ENDBRANCH   2   3
TORSDOF 6
ENDMDL
MODEL      214
REMARK 921   NORMALIZED FREE ENERGY PREDICTED BY IDOCK:   -2.76 KCAL/MOL
REMARK 922        TOTAL FREE ENERGY PREDICTED BY IDOCK:   -4.05 KCAL/MOL
REMARK 923 INTER-LIGAND FREE ENERGY PREDICTED BY IDOCK:   -3.80 KCAL/MOL
REMARK 924 INTRA-LIGAND FREE ENERGY PREDICTED BY IDOCK:   -0.25 KCAL/MOL
REMARK 927      BINDING AFFINITY PREDICTED BY RF-SCORE:    0.00 PKD
ROOT
HETATM    1  C   UNL     1      -9.997   8.366  68.581  1.00  0.00    -0.197 C  
HETATM    2  C   UNL     1     -10.662   9.618  68.032  1.00  0.00    -0.284 C  
ENDROOT
BRANCH   2   3
HETATM    3  C   UNL     1     -10.232   9.894  66.594  1.00  0.00    -0.293 C  
BRANCH   3   4
HETATM    4  C   UNL     1      -8.837  10.504  66.534  1.00  0.00    -0.144 C  
BRANCH   4   5
HETATM    5  O   UNL     1      -8.964  11.875  66.159  1.00  0.00    -0.195 OA 
BRANCH   5   6
HETATM    6  C   UNL     1     -10.325  12.299  66.189  1.00  0.00    -0.242 C  
BRANCH   6   7
HETATM    7  C   UNL     1     -10.485  13.394  67.214  1.00  0.00    -0.248 A  
HETATM    8  C   UNL     1      -9.355  13.921  67.867  1.00  0.00    -0.208 A  
HETATM    9  C   UNL     1      -9.497  14.891  68.860  1.00  0.00    -0.209 A  
HETATM   10  C   UNL     1     -10.783  15.335  69.187  1.00  0.00    -0.251 A  
HETATM   11  H   UNL     1     -11.832  16.579  70.387  1.00  0.00     0.000 HD 
HETATM   12  C   UNL     1     -11.911  14.839  68.544  1.00  0.00    -0.340 A  
HETATM   13  C   UNL     1     -11.761  13.864  67.559  1.00  0.00    -0.416 A  
HETATM   14  O   UNL     1     -10.959  16.277  70.165  1.00  0.00    -0.344 OA 
BRANCH   9  15
HETATM   15  O   UNL     1      -8.484  15.467  69.582  1.00  0.00    -0.247 OA 
HETATM   16  C   UNL     1      -7.168  15.000  69.310  1.00  0.00    -0.179 C  
ENDBRANCH   9  15
ENDBRANCH   6   7
ENDBRANCH   5   6
ENDBRANCH   4   5
ENDBRANCH   3   4
ENDBRANCH   2   3
TORSDOF 6
ENDMDL
MODEL      215
REMARK 921   NORMALIZED FREE ENERGY PREDICTED BY IDOCK:   -2.76 KCAL/MOL
REMARK 922        TOTAL FREE ENERGY PREDICTED BY IDOCK:   -4.05 KCAL/MOL
REMARK 923 INTER-LIGAND FREE ENERGY PREDICTED BY IDOCK:   -3.98 KCAL/MOL
REMARK 924 INTRA-LIGAND FREE ENERGY PREDICTED BY IDOCK:   -0.07 KCAL/MOL
REMARK 927      BINDING AFFINITY PREDICTED BY RF-SCORE:    0.00 PKD
ROOT
HETATM    1  C   UNL     1      -6.356  11.007  69.998  1.00  0.00    -0.146 C  
HETATM    2  C   UNL     1      -6.779  11.872  68.821  1.00  0.00    -0.088 C  
ENDROOT
BRANCH   2   3
HETATM    3  C   UNL     1      -6.444  13.341  69.060  1.00  0.00    -0.102 C  
BRANCH   3   4
HETATM    4  C   UNL     1      -6.864  14.210  67.880  1.00  0.00    -0.165 C  
BRANCH   4   5
HETATM    5  O   UNL     1      -6.434  15.547  68.134  1.00  0.00    -0.107 OA 
BRANCH   5   6
HETATM    6  C   UNL     1      -7.285  16.198  69.074  1.00  0.00    -0.195 C  
BRANCH   6   7
HETATM    7  C   UNL     1      -8.213  17.135  68.343  1.00  0.00    -0.253 A  
HETATM    8  C   UNL     1      -8.933  16.684  67.220  1.00  0.00    -0.211 A  
HETATM    9  C   UNL     1      -9.747  17.560  66.501  1.00  0.00    -0.295 A  
HETATM   10  C   UNL     1      -9.842  18.890  66.923  1.00  0.00    -0.329 A  
HETATM   11  H   UNL     1     -10.687  20.682  66.518  1.00  0.00     0.000 HD 
HETATM   12  C   UNL     1      -9.153  19.352  68.037  1.00  0.00    -0.382 A  
HETATM   13  C   UNL     1      -8.335  18.474  68.746  1.00  0.00    -0.274 A  
HETATM   14  O   UNL     1     -10.622  19.778  66.231  1.00  0.00    -0.472 OA 
BRANCH   9  15
HETATM   15  O   UNL     1     -10.479  17.252  65.383  1.00  0.00    -0.635 OA 
HETATM   16  C   UNL     1     -11.013  15.935  65.318  1.00  0.00    -0.324 C  
ENDBRANCH   9  15
ENDBRANCH   6   7
ENDBRANCH   5   6
ENDBRANCH   4   5
ENDBRANCH   3   4
ENDBRANCH   2   3
TORSDOF 6
ENDMDL
MODEL      216
REMARK 921   NORMALIZED FREE ENERGY PREDICTED BY IDOCK:   -2.73 KCAL/MOL
REMARK 922        TOTAL FREE ENERGY PREDICTED BY IDOCK:   -4.01 KCAL/MOL
REMARK 923 INTER-LIGAND FREE ENERGY PREDICTED BY IDOCK:   -3.79 KCAL/MOL
REMARK 924 INTRA-LIGAND FREE ENERGY PREDICTED BY IDOCK:   -0.22 KCAL/MOL
REMARK 927      BINDING AFFINITY PREDICTED BY RF-SCORE:    0.00 PKD
ROOT
HETATM    1  C   UNL     1     -11.571  15.337  64.992  1.00  0.00    -0.239 C  
HETATM    2  C   UNL     1     -10.992  14.647  66.217  1.00  0.00    -0.327 C  
ENDROOT
BRANCH   2   3
HETATM    3  C   UNL     1     -11.435  13.189  66.297  1.00  0.00    -0.372 C  
BRANCH   3   4
HETATM    4  C   UNL     1     -10.300  12.284  66.762  1.00  0.00    -0.217 C  
BRANCH   4   5
HETATM    5  O   UNL     1     -10.869  11.160  67.431  1.00  0.00    -0.232 OA 
BRANCH   5   6
HETATM    6  C   UNL     1      -9.941  10.081  67.519  1.00  0.00    -0.190 C  
BRANCH   6   7
HETATM    7  C   UNL     1     -10.401   9.110  68.577  1.00  0.00    -0.236 A  
HETATM    8  C   UNL     1     -10.315   7.723  68.348  1.00  0.00    -0.231 A  
HETATM    9  C   UNL     1     -10.795   6.817  69.295  1.00  0.00    -0.264 A  
HETATM   10  C   UNL     1     -11.353   7.313  70.478  1.00  0.00    -0.280 A  
HETATM   11  H   UNL     1     -12.223   6.788  72.226  1.00  0.00     0.000 HD 
HETATM   12  C   UNL     1     -11.433   8.677  70.731  1.00  0.00    -0.293 A  
HETATM   13  C   UNL     1     -10.959   9.577  69.776  1.00  0.00    -0.245 A  
HETATM   14  O   UNL     1     -11.844   6.451  71.422  1.00  0.00    -0.317 OA 
BRANCH   9  15
HETATM   15  O   UNL     1     -10.790   5.451  69.184  1.00  0.00    -0.193 OA 
HETATM   16  C   UNL     1      -9.666   4.872  68.531  1.00  0.00    -0.155 C  
ENDBRANCH   9  15
ENDBRANCH   6   7
ENDBRANCH   5   6
ENDBRANCH   4   5
ENDBRANCH   3   4
ENDBRANCH   2   3
TORSDOF 6
ENDMDL
MODEL      217
REMARK 921   NORMALIZED FREE ENERGY PREDICTED BY IDOCK:   -2.72 KCAL/MOL
REMARK 922        TOTAL FREE ENERGY PREDICTED BY IDOCK:   -4.00 KCAL/MOL
REMARK 923 INTER-LIGAND FREE ENERGY PREDICTED BY IDOCK:   -3.69 KCAL/MOL
REMARK 924 INTRA-LIGAND FREE ENERGY PREDICTED BY IDOCK:   -0.30 KCAL/MOL
REMARK 927      BINDING AFFINITY PREDICTED BY RF-SCORE:    0.00 PKD
ROOT
HETATM    1  C   UNL     1     -12.120  12.720  63.465  1.00  0.00    -0.642 C  
HETATM    2  C   UNL     1     -10.721  12.135  63.570  1.00  0.00    -0.509 C  
ENDROOT
BRANCH   2   3
HETATM    3  C   UNL     1     -10.643  11.064  64.654  1.00  0.00    -0.369 C  
BRANCH   3   4
HETATM    4  C   UNL     1      -9.480  10.108  64.414  1.00  0.00    -0.308 C  
BRANCH   4   5
HETATM    5  O   UNL     1      -9.467   9.147  65.468  1.00  0.00    -0.250 OA 
BRANCH   5   6
HETATM    6  C   UNL     1      -9.018   9.723  66.693  1.00  0.00    -0.142 C  
BRANCH   6   7
HETATM    7  C   UNL     1      -9.371   8.805  67.836  1.00  0.00    -0.155 A  
HETATM    8  C   UNL     1      -8.731   7.557  67.964  1.00  0.00    -0.121 A  
HETATM    9  C   UNL     1      -9.094   6.675  68.983  1.00  0.00    -0.133 A  
HETATM   10  C   UNL     1     -10.098   7.059  69.879  1.00  0.00    -0.193 A  
HETATM   11  H   UNL     1     -11.168   6.471  71.490  1.00  0.00     0.000 HD 
HETATM   12  C   UNL     1     -10.731   8.291  69.779  1.00  0.00    -0.221 A  
HETATM   13  C   UNL     1     -10.370   9.164  68.754  1.00  0.00    -0.235 A  
HETATM   14  O   UNL     1     -10.487   6.211  70.882  1.00  0.00    -0.210 OA 
BRANCH   9  15
HETATM   15  O   UNL     1      -8.566   5.429  69.202  1.00  0.00    -0.101 OA 
HETATM   16  C   UNL     1      -8.594   4.527  68.102  1.00  0.00    -0.101 C  
ENDBRANCH   9  15
ENDBRANCH   6   7
ENDBRANCH   5   6
ENDBRANCH   4   5
ENDBRANCH   3   4
ENDBRANCH   2   3
TORSDOF 6
ENDMDL
MODEL      218
REMARK 921   NORMALIZED FREE ENERGY PREDICTED BY IDOCK:   -2.68 KCAL/MOL
REMARK 922        TOTAL FREE ENERGY PREDICTED BY IDOCK:   -3.94 KCAL/MOL
REMARK 923 INTER-LIGAND FREE ENERGY PREDICTED BY IDOCK:   -3.67 KCAL/MOL
REMARK 924 INTRA-LIGAND FREE ENERGY PREDICTED BY IDOCK:   -0.27 KCAL/MOL
REMARK 927      BINDING AFFINITY PREDICTED BY RF-SCORE:    0.00 PKD
ROOT
HETATM    1  C   UNL     1     -10.523  15.894  65.865  1.00  0.00    -0.373 C  
HETATM    2  C   UNL     1      -9.011  15.868  66.028  1.00  0.00    -0.337 C  
ENDROOT
BRANCH   2   3
HETATM    3  C   UNL     1      -8.578  14.806  67.035  1.00  0.00    -0.260 C  
BRANCH   3   4
HETATM    4  C   UNL     1      -9.726  13.868  67.389  1.00  0.00    -0.234 C  
BRANCH   4   5
HETATM    5  O   UNL     1      -9.594  12.683  66.605  1.00  0.00    -0.236 OA 
BRANCH   5   6
HETATM    6  C   UNL     1     -10.657  11.768  66.862  1.00  0.00    -0.235 C  
BRANCH   6   7
HETATM    7  C   UNL     1     -10.190  10.364  66.568  1.00  0.00    -0.289 A  
HETATM    8  C   UNL     1     -10.893   9.262  67.090  1.00  0.00    -0.113 A  
HETATM    9  C   UNL     1     -10.434   7.962  66.873  1.00  0.00    -0.318 A  
HETATM   10  C   UNL     1      -9.269   7.775  66.121  1.00  0.00    -0.128 A  
HETATM   11  H   UNL     1      -7.995   6.387  65.390  1.00  0.00     0.000 HD 
HETATM   12  C   UNL     1      -8.569   8.848  65.584  1.00  0.00    -0.188 A  
HETATM   13  C   UNL     1      -9.029  10.145  65.811  1.00  0.00    -0.187 A  
HETATM   14  O   UNL     1      -8.785   6.513  65.901  1.00  0.00    -0.149 OA 
BRANCH   9  15
HETATM   15  O   UNL     1     -11.012   6.810  67.343  1.00  0.00    -0.318 OA 
HETATM   16  C   UNL     1     -10.923   6.582  68.744  1.00  0.00    -0.305 C  
ENDBRANCH   9  15
ENDBRANCH   6   7
ENDBRANCH   5   6
ENDBRANCH   4   5
ENDBRANCH   3   4
ENDBRANCH   2   3
TORSDOF 6
ENDMDL
MODEL      219
REMARK 921   NORMALIZED FREE ENERGY PREDICTED BY IDOCK:   -2.68 KCAL/MOL
REMARK 922        TOTAL FREE ENERGY PREDICTED BY IDOCK:   -3.94 KCAL/MOL
REMARK 923 INTER-LIGAND FREE ENERGY PREDICTED BY IDOCK:   -3.65 KCAL/MOL
REMARK 924 INTRA-LIGAND FREE ENERGY PREDICTED BY IDOCK:   -0.29 KCAL/MOL
REMARK 927      BINDING AFFINITY PREDICTED BY RF-SCORE:    0.00 PKD
ROOT
HETATM    1  C   UNL     1     -11.878  11.825  68.945  1.00  0.00    -0.381 C  
HETATM    2  C   UNL     1     -12.088  11.777  70.450  1.00  0.00    -0.440 C  
ENDROOT
BRANCH   2   3
HETATM    3  C   UNL     1     -12.550  10.396  70.905  1.00  0.00    -0.478 C  
BRANCH   3   4
HETATM    4  C   UNL     1     -11.370   9.498  71.258  1.00  0.00    -0.376 C  
BRANCH   4   5
HETATM    5  O   UNL     1     -11.544   8.248  70.595  1.00  0.00    -0.271 OA 
BRANCH   5   6
HETATM    6  C   UNL     1     -10.421   7.391  70.795  1.00  0.00    -0.212 C  
BRANCH   6   7
HETATM    7  C   UNL     1     -10.180   6.583  69.545  1.00  0.00    -0.219 A  
HETATM    8  C   UNL     1      -8.995   5.836  69.405  1.00  0.00    -0.121 A  
HETATM    9  C   UNL     1      -8.735   5.133  68.227  1.00  0.00    -0.101 A  
HETATM   10  C   UNL     1      -9.679   5.178  67.195  1.00  0.00    -0.157 A  
HETATM   11  H   UNL     1     -10.089   4.540  65.321  1.00  0.00     0.000 HD 
HETATM   12  C   UNL     1     -10.861   5.896  67.319  1.00  0.00    -0.351 A  
HETATM   13  C   UNL     1     -11.110   6.602  68.495  1.00  0.00    -0.284 A  
HETATM   14  O   UNL     1      -9.448   4.510  66.022  1.00  0.00    -0.146 OA 
BRANCH   9  15
HETATM   15  O   UNL     1      -7.615   4.389  67.958  1.00  0.00    -0.068 OA 
HETATM   16  C   UNL     1      -7.133   3.565  69.013  1.00  0.00    -0.049 C  
ENDBRANCH   9  15
ENDBRANCH   6   7
ENDBRANCH   5   6
ENDBRANCH   4   5
ENDBRANCH   3   4
ENDBRANCH   2   3
TORSDOF 6
ENDMDL
MODEL      220
REMARK 921   NORMALIZED FREE ENERGY PREDICTED BY IDOCK:   -2.65 KCAL/MOL
REMARK 922        TOTAL FREE ENERGY PREDICTED BY IDOCK:   -3.90 KCAL/MOL
REMARK 923 INTER-LIGAND FREE ENERGY PREDICTED BY IDOCK:   -3.32 KCAL/MOL
REMARK 924 INTRA-LIGAND FREE ENERGY PREDICTED BY IDOCK:   -0.58 KCAL/MOL
REMARK 927      BINDING AFFINITY PREDICTED BY RF-SCORE:    0.00 PKD
ROOT
HETATM    1  C   UNL     1      -8.186   5.114  67.717  1.00  0.00    -0.098 C  
HETATM    2  C   UNL     1      -9.548   4.437  67.724  1.00  0.00    -0.211 C  
ENDROOT
BRANCH   2   3
HETATM    3  C   UNL     1     -10.542   5.174  66.832  1.00  0.00    -0.234 C  
BRANCH   3   4
HETATM    4  C   UNL     1     -10.079   6.595  66.532  1.00  0.00    -0.072 C  
BRANCH   4   5
HETATM    5  O   UNL     1     -11.097   7.498  66.961  1.00  0.00    -0.224 OA 
BRANCH   5   6
HETATM    6  C   UNL     1     -10.551   8.766  67.316  1.00  0.00    -0.233 C  
BRANCH   6   7
HETATM    7  C   UNL     1     -10.045   8.713  68.736  1.00  0.00    -0.210 A  
HETATM    8  C   UNL     1     -10.760   7.996  69.714  1.00  0.00    -0.231 A  
HETATM    9  C   UNL     1     -10.332   7.990  71.043  1.00  0.00    -0.201 A  
HETATM   10  C   UNL     1      -9.175   8.702  71.380  1.00  0.00    -0.235 A  
HETATM   11  H   UNL     1      -7.951   9.210  72.906  1.00  0.00     0.000 HD 
HETATM   12  C   UNL     1      -8.447   9.403  70.427  1.00  0.00    -0.247 A  
HETATM   13  C   UNL     1      -8.884   9.411  69.104  1.00  0.00    -0.143 A  
HETATM   14  O   UNL     1      -8.736   8.728  72.677  1.00  0.00    -0.408 OA 
BRANCH   9  15
HETATM   15  O   UNL     1     -10.947   7.354  72.090  1.00  0.00    -0.228 OA 
HETATM   16  C   UNL     1     -12.053   6.519  71.762  1.00  0.00    -0.342 C  
ENDBRANCH   9  15
ENDBRANCH   6   7
ENDBRANCH   5   6
ENDBRANCH   4   5
ENDBRANCH   3   4
ENDBRANCH   2   3
TORSDOF 6
ENDMDL
MODEL      221
REMARK 921   NORMALIZED FREE ENERGY PREDICTED BY IDOCK:   -2.65 KCAL/MOL
REMARK 922        TOTAL FREE ENERGY PREDICTED BY IDOCK:   -3.89 KCAL/MOL
REMARK 923 INTER-LIGAND FREE ENERGY PREDICTED BY IDOCK:   -3.51 KCAL/MOL
REMARK 924 INTRA-LIGAND FREE ENERGY PREDICTED BY IDOCK:   -0.38 KCAL/MOL
REMARK 927      BINDING AFFINITY PREDICTED BY RF-SCORE:    0.00 PKD
ROOT
HETATM    1  C   UNL     1      -8.020  17.091  66.782  1.00  0.00    -0.274 C  
HETATM    2  C   UNL     1      -9.070  18.186  66.891  1.00  0.00    -0.276 C  
ENDROOT
BRANCH   2   3
HETATM    3  C   UNL     1     -10.294  17.871  66.037  1.00  0.00    -0.318 C  
BRANCH   3   4
HETATM    4  C   UNL     1     -10.637  16.386  66.073  1.00  0.00    -0.269 C  
BRANCH   4   5
HETATM    5  O   UNL     1     -11.032  16.050  67.402  1.00  0.00    -0.315 OA 
BRANCH   5   6
HETATM    6  C   UNL     1     -11.639  14.761  67.454  1.00  0.00    -0.360 C  
BRANCH   6   7
HETATM    7  C   UNL     1     -10.577  13.701  67.299  1.00  0.00    -0.267 A  
HETATM    8  C   UNL     1      -9.442  13.712  68.133  1.00  0.00    -0.217 A  
HETATM    9  C   UNL     1      -8.425  12.772  67.957  1.00  0.00    -0.177 A  
HETATM   10  C   UNL     1      -8.560  11.816  66.945  1.00  0.00    -0.177 A  
HETATM   11  H   UNL     1      -7.666  10.238  66.051  1.00  0.00     0.000 HD 
HETATM   12  C   UNL     1      -9.679  11.778  66.122  1.00  0.00    -0.250 A  
HETATM   13  C   UNL     1     -10.687  12.725  66.297  1.00  0.00    -0.291 A  
HETATM   14  O   UNL     1      -7.575  10.888  66.738  1.00  0.00    -0.121 OA 
BRANCH   9  15
HETATM   15  O   UNL     1      -7.266  12.688  68.684  1.00  0.00    -0.104 OA 
HETATM   16  C   UNL     1      -6.817  13.888  69.303  1.00  0.00    -0.094 C  
ENDBRANCH   9  15
ENDBRANCH   6   7
ENDBRANCH   5   6
ENDBRANCH   4   5
ENDBRANCH   3   4
ENDBRANCH   2   3
TORSDOF 6
ENDMDL
MODEL      222
REMARK 921   NORMALIZED FREE ENERGY PREDICTED BY IDOCK:   -2.65 KCAL/MOL
REMARK 922        TOTAL FREE ENERGY PREDICTED BY IDOCK:   -3.89 KCAL/MOL
REMARK 923 INTER-LIGAND FREE ENERGY PREDICTED BY IDOCK:   -3.59 KCAL/MOL
REMARK 924 INTRA-LIGAND FREE ENERGY PREDICTED BY IDOCK:   -0.31 KCAL/MOL
REMARK 927      BINDING AFFINITY PREDICTED BY RF-SCORE:    0.00 PKD
ROOT
HETATM    1  C   UNL     1      -6.353  11.007  69.995  1.00  0.00    -0.146 C  
HETATM    2  C   UNL     1      -6.733  11.869  68.802  1.00  0.00    -0.088 C  
ENDROOT
BRANCH   2   3
HETATM    3  C   UNL     1      -6.372  13.334  69.034  1.00  0.00    -0.098 C  
BRANCH   3   4
HETATM    4  C   UNL     1      -6.721  14.195  67.826  1.00  0.00    -0.177 C  
BRANCH   4   5
HETATM    5  O   UNL     1      -6.267  15.524  68.077  1.00  0.00    -0.117 OA 
BRANCH   5   6
HETATM    6  C   UNL     1      -7.150  16.218  68.955  1.00  0.00    -0.196 C  
BRANCH   6   7
HETATM    7  C   UNL     1      -7.997  17.178  68.157  1.00  0.00    -0.216 A  
HETATM    8  C   UNL     1      -7.385  18.143  67.334  1.00  0.00    -0.219 A  
HETATM    9  C   UNL     1      -8.158  19.074  66.639  1.00  0.00    -0.274 A  
HETATM   10  C   UNL     1      -9.550  19.024  66.769  1.00  0.00    -0.333 A  
HETATM   11  H   UNL     1     -11.282  19.897  66.198  1.00  0.00     0.000 HD 
HETATM   12  C   UNL     1     -10.174  18.070  67.563  1.00  0.00    -0.376 A  
HETATM   13  C   UNL     1      -9.396  17.148  68.261  1.00  0.00    -0.265 A  
HETATM   14  O   UNL     1     -10.337  19.931  66.110  1.00  0.00    -0.465 OA 
BRANCH   9  15
HETATM   15  O   UNL     1      -7.687  20.073  65.826  1.00  0.00    -0.333 OA 
HETATM   16  C   UNL     1      -6.502  19.787  65.093  1.00  0.00    -0.281 C  
ENDBRANCH   9  15
ENDBRANCH   6   7
ENDBRANCH   5   6
ENDBRANCH   4   5
ENDBRANCH   3   4
ENDBRANCH   2   3
TORSDOF 6
ENDMDL
MODEL      223
REMARK 921   NORMALIZED FREE ENERGY PREDICTED BY IDOCK:   -2.63 KCAL/MOL
REMARK 922        TOTAL FREE ENERGY PREDICTED BY IDOCK:   -3.88 KCAL/MOL
REMARK 923 INTER-LIGAND FREE ENERGY PREDICTED BY IDOCK:   -3.50 KCAL/MOL
REMARK 924 INTRA-LIGAND FREE ENERGY PREDICTED BY IDOCK:   -0.37 KCAL/MOL
REMARK 927      BINDING AFFINITY PREDICTED BY RF-SCORE:    0.00 PKD
ROOT
HETATM    1  C   UNL     1      -8.952   6.473  66.310  1.00  0.00    -0.168 C  
HETATM    2  C   UNL     1      -7.891   7.368  66.929  1.00  0.00    -0.115 C  
ENDROOT
BRANCH   2   3
HETATM    3  C   UNL     1      -8.194   8.844  66.684  1.00  0.00    -0.111 C  
BRANCH   3   4
HETATM    4  C   UNL     1      -8.075   9.660  67.966  1.00  0.00    -0.105 C  
BRANCH   4   5
HETATM    5  O   UNL     1      -8.828  10.860  67.804  1.00  0.00    -0.132 OA 
BRANCH   5   6
HETATM    6  C   UNL     1      -8.503  11.519  66.581  1.00  0.00    -0.172 C  
BRANCH   6   7
HETATM    7  C   UNL     1      -9.664  12.381  66.154  1.00  0.00    -0.254 A  
HETATM    8  C   UNL     1     -10.712  11.828  65.394  1.00  0.00    -0.333 A  
HETATM    9  C   UNL     1     -11.760  12.631  64.942  1.00  0.00    -0.353 A  
HETATM   10  C   UNL     1     -11.753  13.992  65.266  1.00  0.00    -0.346 A  
HETATM   11  H   UNL     1     -12.756  15.734  65.048  1.00  0.00     0.000 HD 
HETATM   12  C   UNL     1     -10.737  14.555  66.028  1.00  0.00    -0.306 A  
HETATM   13  C   UNL     1      -9.689  13.748  66.469  1.00  0.00    -0.301 A  
HETATM   14  O   UNL     1     -12.760  14.810  64.828  1.00  0.00    -0.471 OA 
BRANCH   9  15
HETATM   15  O   UNL     1     -12.825  12.222  64.180  1.00  0.00    -0.678 OA 
HETATM   16  C   UNL     1     -12.512  11.563  62.958  1.00  0.00     0.344 C  
ENDBRANCH   9  15
ENDBRANCH   6   7
ENDBRANCH   5   6
ENDBRANCH   4   5
ENDBRANCH   3   4
ENDBRANCH   2   3
TORSDOF 6
ENDMDL
MODEL      224
REMARK 921   NORMALIZED FREE ENERGY PREDICTED BY IDOCK:   -2.62 KCAL/MOL
REMARK 922        TOTAL FREE ENERGY PREDICTED BY IDOCK:   -3.85 KCAL/MOL
REMARK 923 INTER-LIGAND FREE ENERGY PREDICTED BY IDOCK:   -3.51 KCAL/MOL
REMARK 924 INTRA-LIGAND FREE ENERGY PREDICTED BY IDOCK:   -0.35 KCAL/MOL
REMARK 927      BINDING AFFINITY PREDICTED BY RF-SCORE:    0.00 PKD
ROOT
HETATM    1  C   UNL     1      -9.435   3.050  64.957  1.00  0.00    -0.121 C  
HETATM    2  C   UNL     1      -8.817   4.378  64.550  1.00  0.00    -0.148 C  
ENDROOT
BRANCH   2   3
HETATM    3  C   UNL     1      -9.007   5.437  65.633  1.00  0.00    -0.160 C  
BRANCH   3   4
HETATM    4  C   UNL     1      -9.256   4.805  66.997  1.00  0.00    -0.126 C  
BRANCH   4   5
HETATM    5  O   UNL     1     -10.524   5.252  67.473  1.00  0.00    -0.187 OA 
BRANCH   5   6
HETATM    6  C   UNL     1     -10.559   6.672  67.606  1.00  0.00    -0.263 C  
BRANCH   6   7
HETATM    7  C   UNL     1     -10.732   7.034  69.060  1.00  0.00    -0.234 A  
HETATM    8  C   UNL     1     -11.011   6.031  70.009  1.00  0.00    -0.450 A  
HETATM    9  C   UNL     1     -11.233   6.363  71.346  1.00  0.00    -0.288 A  
HETATM   10  C   UNL     1     -11.164   7.708  71.726  1.00  0.00    -0.247 A  
HETATM   11  H   UNL     1     -11.343   8.982  73.286  1.00  0.00     0.000 HD 
HETATM   12  C   UNL     1     -10.875   8.711  70.809  1.00  0.00    -0.272 A  
HETATM   13  C   UNL     1     -10.663   8.373  69.473  1.00  0.00    -0.181 A  
HETATM   14  O   UNL     1     -11.390   8.069  73.028  1.00  0.00    -0.386 OA 
BRANCH   9  15
HETATM   15  O   UNL     1     -11.533   5.489  72.359  1.00  0.00    -0.267 OA 
HETATM   16  C   UNL     1     -10.570   4.478  72.629  1.00  0.00    -0.179 C  
ENDBRANCH   9  15
ENDBRANCH   6   7
ENDBRANCH   5   6
ENDBRANCH   4   5
ENDBRANCH   3   4
ENDBRANCH   2   3
TORSDOF 6
ENDMDL
MODEL      225
REMARK 921   NORMALIZED FREE ENERGY PREDICTED BY IDOCK:   -2.61 KCAL/MOL
REMARK 922        TOTAL FREE ENERGY PREDICTED BY IDOCK:   -3.84 KCAL/MOL
REMARK 923 INTER-LIGAND FREE ENERGY PREDICTED BY IDOCK:   -3.47 KCAL/MOL
REMARK 924 INTRA-LIGAND FREE ENERGY PREDICTED BY IDOCK:   -0.36 KCAL/MOL
REMARK 927      BINDING AFFINITY PREDICTED BY RF-SCORE:    0.00 PKD
ROOT
HETATM    1  C   UNL     1      -6.444  11.410  66.614  1.00  0.00    -0.117 C  
HETATM    2  C   UNL     1      -7.804  10.731  66.564  1.00  0.00    -0.145 C  
ENDROOT
BRANCH   2   3
HETATM    3  C   UNL     1      -8.266  10.306  67.955  1.00  0.00    -0.113 C  
BRANCH   3   4
HETATM    4  C   UNL     1      -9.768  10.497  68.128  1.00  0.00    -0.153 C  
BRANCH   4   5
HETATM    5  O   UNL     1     -10.176  11.598  67.320  1.00  0.00    -0.197 OA 
BRANCH   5   6
HETATM    6  C   UNL     1     -10.492  12.739  68.115  1.00  0.00    -0.236 C  
BRANCH   6   7
HETATM    7  C   UNL     1      -9.929  13.976  67.462  1.00  0.00    -0.236 A  
HETATM    8  C   UNL     1      -8.885  14.689  68.082  1.00  0.00    -0.173 A  
HETATM    9  C   UNL     1      -8.398  15.868  67.517  1.00  0.00    -0.163 A  
HETATM   10  C   UNL     1      -8.960  16.321  66.317  1.00  0.00    -0.331 A  
HETATM   11  H   UNL     1      -8.894  17.789  64.929  1.00  0.00     0.000 HD 
HETATM   12  C   UNL     1      -9.979  15.624  65.681  1.00  0.00    -0.388 A  
HETATM   13  C   UNL     1     -10.466  14.452  66.256  1.00  0.00    -0.292 A  
HETATM   14  O   UNL     1      -8.513  17.481  65.743  1.00  0.00    -0.530 OA 
BRANCH   9  15
HETATM   15  O   UNL     1      -7.406  16.664  68.029  1.00  0.00    -0.149 OA 
HETATM   16  C   UNL     1      -7.826  17.839  68.713  1.00  0.00    -0.250 C  
ENDBRANCH   9  15
ENDBRANCH   6   7
ENDBRANCH   5   6
ENDBRANCH   4   5
ENDBRANCH   3   4
ENDBRANCH   2   3
TORSDOF 6
ENDMDL
MODEL      226
REMARK 921   NORMALIZED FREE ENERGY PREDICTED BY IDOCK:   -2.59 KCAL/MOL
REMARK 922        TOTAL FREE ENERGY PREDICTED BY IDOCK:   -3.81 KCAL/MOL
REMARK 923 INTER-LIGAND FREE ENERGY PREDICTED BY IDOCK:   -3.56 KCAL/MOL
REMARK 924 INTRA-LIGAND FREE ENERGY PREDICTED BY IDOCK:   -0.24 KCAL/MOL
REMARK 927      BINDING AFFINITY PREDICTED BY RF-SCORE:    0.00 PKD
ROOT
HETATM    1  C   UNL     1     -12.286  13.052  64.669  1.00  0.00    -0.480 C  
HETATM    2  C   UNL     1     -11.814  13.841  65.880  1.00  0.00    -0.405 C  
ENDROOT
BRANCH   2   3
HETATM    3  C   UNL     1     -11.806  12.977  67.139  1.00  0.00    -0.431 C  
BRANCH   3   4
HETATM    4  C   UNL     1     -10.386  12.621  67.564  1.00  0.00    -0.218 C  
BRANCH   4   5
HETATM    5  O   UNL     1     -10.259  11.200  67.554  1.00  0.00    -0.179 OA 
BRANCH   5   6
HETATM    6  C   UNL     1      -9.138  10.772  68.324  1.00  0.00    -0.157 C  
BRANCH   6   7
HETATM    7  C   UNL     1      -9.402   9.391  68.867  1.00  0.00    -0.154 A  
HETATM    8  C   UNL     1      -9.755   9.219  70.219  1.00  0.00    -0.274 A  
HETATM    9  C   UNL     1      -9.942   7.940  70.746  1.00  0.00    -0.184 A  
HETATM   10  C   UNL     1      -9.782   6.835  69.903  1.00  0.00    -0.158 A  
HETATM   11  H   UNL     1      -9.838   4.816  69.819  1.00  0.00     0.000 HD 
HETATM   12  C   UNL     1      -9.450   6.983  68.562  1.00  0.00    -0.134 A  
HETATM   13  C   UNL     1      -9.256   8.263  68.045  1.00  0.00    -0.142 A  
HETATM   14  O   UNL     1      -9.946   5.566  70.391  1.00  0.00    -0.186 OA 
BRANCH   9  15
HETATM   15  O   UNL     1     -10.265   7.637  72.044  1.00  0.00    -0.188 OA 
HETATM   16  C   UNL     1      -9.321   8.021  73.037  1.00  0.00    -0.275 C  
ENDBRANCH   9  15
ENDBRANCH   6   7
ENDBRANCH   5   6
ENDBRANCH   4   5
ENDBRANCH   3   4
ENDBRANCH   2   3
TORSDOF 6
ENDMDL
MODEL      227
REMARK 921   NORMALIZED FREE ENERGY PREDICTED BY IDOCK:   -2.56 KCAL/MOL
REMARK 922        TOTAL FREE ENERGY PREDICTED BY IDOCK:   -3.77 KCAL/MOL
REMARK 923 INTER-LIGAND FREE ENERGY PREDICTED BY IDOCK:   -3.53 KCAL/MOL
REMARK 924 INTRA-LIGAND FREE ENERGY PREDICTED BY IDOCK:   -0.24 KCAL/MOL
REMARK 927      BINDING AFFINITY PREDICTED BY RF-SCORE:    0.00 PKD
ROOT
HETATM    1  C   UNL     1      -7.853   3.224  66.417  1.00  0.00    -0.081 C  
HETATM    2  C   UNL     1      -9.040   4.069  65.980  1.00  0.00    -0.144 C  
ENDROOT
BRANCH   2   3
HETATM    3  C   UNL     1      -9.300   5.212  66.956  1.00  0.00    -0.127 C  
BRANCH   3   4
HETATM    4  C   UNL     1      -9.347   6.558  66.242  1.00  0.00    -0.109 C  
BRANCH   4   5
HETATM    5  O   UNL     1     -10.193   7.432  66.988  1.00  0.00    -0.231 OA 
BRANCH   5   6
HETATM    6  C   UNL     1      -9.447   8.201  67.929  1.00  0.00    -0.146 C  
BRANCH   6   7
HETATM    7  C   UNL     1     -10.398   8.943  68.834  1.00  0.00    -0.229 A  
HETATM    8  C   UNL     1     -10.885  10.210  68.461  1.00  0.00    -0.278 A  
HETATM    9  C   UNL     1     -11.717  10.930  69.319  1.00  0.00    -0.324 A  
HETATM   10  C   UNL     1     -12.064  10.365  70.551  1.00  0.00    -0.332 A  
HETATM   11  H   UNL     1     -13.105  10.668  72.258  1.00  0.00     0.000 HD 
HETATM   12  C   UNL     1     -11.607   9.110  70.932  1.00  0.00    -0.350 A  
HETATM   13  C   UNL     1     -10.770   8.399  70.073  1.00  0.00    -0.236 A  
HETATM   14  O   UNL     1     -12.869  11.051  71.421  1.00  0.00    -0.400 OA 
BRANCH   9  15
HETATM   15  O   UNL     1     -12.239  12.176  69.085  1.00  0.00    -0.202 OA 
HETATM   16  C   UNL     1     -11.555  12.981  68.131  1.00  0.00    -0.341 C  
ENDBRANCH   9  15
ENDBRANCH   6   7
ENDBRANCH   5   6
ENDBRANCH   4   5
ENDBRANCH   3   4
ENDBRANCH   2   3
TORSDOF 6
ENDMDL
MODEL      228
REMARK 921   NORMALIZED FREE ENERGY PREDICTED BY IDOCK:   -2.55 KCAL/MOL
REMARK 922        TOTAL FREE ENERGY PREDICTED BY IDOCK:   -3.77 KCAL/MOL
REMARK 923 INTER-LIGAND FREE ENERGY PREDICTED BY IDOCK:   -3.42 KCAL/MOL
REMARK 924 INTRA-LIGAND FREE ENERGY PREDICTED BY IDOCK:   -0.35 KCAL/MOL
REMARK 927      BINDING AFFINITY PREDICTED BY RF-SCORE:    0.00 PKD
ROOT
HETATM    1  C   UNL     1      -5.628  11.936  69.283  1.00  0.00    -0.059 C  
HETATM    2  C   UNL     1      -6.676  11.635  68.224  1.00  0.00    -0.064 C  
ENDROOT
BRANCH   2   3
HETATM    3  C   UNL     1      -8.082  11.625  68.817  1.00  0.00    -0.072 C  
BRANCH   3   4
HETATM    4  C   UNL     1      -8.474  10.235  69.306  1.00  0.00    -0.166 C  
BRANCH   4   5
HETATM    5  O   UNL     1      -8.080   9.286  68.317  1.00  0.00    -0.105 OA 
BRANCH   5   6
HETATM    6  C   UNL     1      -9.211   8.724  67.654  1.00  0.00    -0.134 C  
BRANCH   6   7
HETATM    7  C   UNL     1      -9.596   9.604  66.491  1.00  0.00    -0.252 A  
HETATM    8  C   UNL     1     -10.620  10.559  66.637  1.00  0.00    -0.263 A  
HETATM    9  C   UNL     1     -11.025  11.335  65.550  1.00  0.00    -0.131 A  
HETATM   10  C   UNL     1     -10.388  11.152  64.318  1.00  0.00    -0.351 A  
HETATM   11  H   UNL     1     -10.337  11.765  62.392  1.00  0.00     0.000 HD 
HETATM   12  C   UNL     1      -9.364  10.227  64.157  1.00  0.00    -0.336 A  
HETATM   13  C   UNL     1      -8.970   9.449  65.245  1.00  0.00    -0.250 A  
HETATM   14  O   UNL     1     -10.770  11.889  63.228  1.00  0.00    -0.394 OA 
BRANCH   9  15
HETATM   15  O   UNL     1     -12.019  12.279  65.554  1.00  0.00    -0.449 OA 
HETATM   16  C   UNL     1     -11.911  13.309  66.530  1.00  0.00    -0.391 C  
ENDBRANCH   9  15
ENDBRANCH   6   7
ENDBRANCH   5   6
ENDBRANCH   4   5
ENDBRANCH   3   4
ENDBRANCH   2   3
TORSDOF 6
ENDMDL
MODEL      229
REMARK 921   NORMALIZED FREE ENERGY PREDICTED BY IDOCK:   -2.54 KCAL/MOL
REMARK 922        TOTAL FREE ENERGY PREDICTED BY IDOCK:   -3.75 KCAL/MOL
REMARK 923 INTER-LIGAND FREE ENERGY PREDICTED BY IDOCK:   -3.43 KCAL/MOL
REMARK 924 INTRA-LIGAND FREE ENERGY PREDICTED BY IDOCK:   -0.32 KCAL/MOL
REMARK 927      BINDING AFFINITY PREDICTED BY RF-SCORE:    0.00 PKD
ROOT
HETATM    1  C   UNL     1     -10.946   6.487  67.121  1.00  0.00    -0.480 C  
HETATM    2  C   UNL     1     -10.343   7.443  68.139  1.00  0.00    -0.235 C  
ENDROOT
BRANCH   2   3
HETATM    3  C   UNL     1     -10.534   8.897  67.719  1.00  0.00    -0.300 C  
BRANCH   3   4
HETATM    4  C   UNL     1      -9.704   9.237  66.486  1.00  0.00    -0.240 C  
BRANCH   4   5
HETATM    5  O   UNL     1      -9.746  10.650  66.294  1.00  0.00    -0.186 OA 
BRANCH   5   6
HETATM    6  C   UNL     1      -8.434  11.209  66.256  1.00  0.00    -0.168 C  
BRANCH   6   7
HETATM    7  C   UNL     1      -8.414  12.492  67.048  1.00  0.00    -0.161 A  
HETATM    8  C   UNL     1      -9.604  13.219  67.246  1.00  0.00    -0.234 A  
HETATM    9  C   UNL     1      -9.585  14.437  67.926  1.00  0.00    -0.219 A  
HETATM   10  C   UNL     1      -8.365  14.917  68.414  1.00  0.00    -0.153 A  
HETATM   11  H   UNL     1      -7.482  16.441  69.407  1.00  0.00     0.000 HD 
HETATM   12  C   UNL     1      -7.183  14.208  68.244  1.00  0.00    -0.116 A  
HETATM   13  C   UNL     1      -7.207  12.995  67.556  1.00  0.00    -0.154 A  
HETATM   14  O   UNL     1      -8.310  16.115  69.075  1.00  0.00    -0.227 OA 
BRANCH   9  15
HETATM   15  O   UNL     1     -10.665  15.248  68.165  1.00  0.00    -0.245 OA 
HETATM   16  C   UNL     1     -11.817  14.622  68.717  1.00  0.00    -0.313 C  
ENDBRANCH   9  15
ENDBRANCH   6   7
ENDBRANCH   5   6
ENDBRANCH   4   5
ENDBRANCH   3   4
ENDBRANCH   2   3
TORSDOF 6
ENDMDL
MODEL      230
REMARK 921   NORMALIZED FREE ENERGY PREDICTED BY IDOCK:   -2.54 KCAL/MOL
REMARK 922        TOTAL FREE ENERGY PREDICTED BY IDOCK:   -3.75 KCAL/MOL
REMARK 923 INTER-LIGAND FREE ENERGY PREDICTED BY IDOCK:   -3.28 KCAL/MOL
REMARK 924 INTRA-LIGAND FREE ENERGY PREDICTED BY IDOCK:   -0.47 KCAL/MOL
REMARK 927      BINDING AFFINITY PREDICTED BY RF-SCORE:    0.00 PKD
ROOT
HETATM    1  C   UNL     1      -8.913  11.294  65.886  1.00  0.00    -0.206 C  
HETATM    2  C   UNL     1     -10.035  10.281  66.049  1.00  0.00    -0.308 C  
ENDROOT
BRANCH   2   3
HETATM    3  C   UNL     1     -10.140   9.792  67.491  1.00  0.00    -0.246 C  
BRANCH   3   4
HETATM    4  C   UNL     1     -11.535  10.022  68.060  1.00  0.00     0.194 C  
BRANCH   4   5
HETATM    5  O   UNL     1     -11.844  11.410  67.942  1.00  0.00    -0.588 OA 
BRANCH   5   6
HETATM    6  C   UNL     1     -11.378  12.145  69.072  1.00  0.00    -0.276 C  
BRANCH   6   7
HETATM    7  C   UNL     1     -11.139  13.579  68.671  1.00  0.00    -0.299 A  
HETATM    8  C   UNL     1     -10.119  14.325  69.293  1.00  0.00     0.014 A  
HETATM    9  C   UNL     1      -9.929  15.670  68.972  1.00  0.00    -0.233 A  
HETATM   10  C   UNL     1     -10.764  16.258  68.016  1.00  0.00    -0.331 A  
HETATM   11  H   UNL     1     -11.179  17.979  67.038  1.00  0.00     0.000 HD 
HETATM   12  C   UNL     1     -11.765  15.536  67.379  1.00  0.00     0.047 A  
HETATM   13  C   UNL     1     -11.955  14.194  67.710  1.00  0.00    -0.389 A  
HETATM   14  O   UNL     1     -10.612  17.579  67.688  1.00  0.00    -0.364 OA 
BRANCH   9  15
HETATM   15  O   UNL     1      -8.992  16.508  69.518  1.00  0.00    -0.058 OA 
HETATM   16  C   UNL     1      -7.748  16.601  68.832  1.00  0.00    -0.239 C  
ENDBRANCH   9  15
ENDBRANCH   6   7
ENDBRANCH   5   6
ENDBRANCH   4   5
ENDBRANCH   3   4
ENDBRANCH   2   3
TORSDOF 6
ENDMDL
MODEL      231
REMARK 921   NORMALIZED FREE ENERGY PREDICTED BY IDOCK:   -2.54 KCAL/MOL
REMARK 922        TOTAL FREE ENERGY PREDICTED BY IDOCK:   -3.74 KCAL/MOL
REMARK 923 INTER-LIGAND FREE ENERGY PREDICTED BY IDOCK:   -3.65 KCAL/MOL
REMARK 924 INTRA-LIGAND FREE ENERGY PREDICTED BY IDOCK:   -0.09 KCAL/MOL
REMARK 927      BINDING AFFINITY PREDICTED BY RF-SCORE:    0.00 PKD
ROOT
HETATM    1  C   UNL     1      -5.597  17.952  66.844  1.00  0.00    -0.170 C  
HETATM    2  C   UNL     1      -5.751  19.434  66.538  1.00  0.00    -0.170 C  
ENDROOT
BRANCH   2   3
HETATM    3  C   UNL     1      -7.215  19.860  66.568  1.00  0.00    -0.275 C  
BRANCH   3   4
HETATM    4  C   UNL     1      -7.873  19.515  67.899  1.00  0.00    -0.295 C  
BRANCH   4   5
HETATM    5  O   UNL     1      -9.287  19.524  67.715  1.00  0.00    -0.307 OA 
BRANCH   5   6
HETATM    6  C   UNL     1      -9.957  18.881  68.798  1.00  0.00    -0.408 C  
BRANCH   6   7
HETATM    7  C   UNL     1      -9.812  17.387  68.659  1.00  0.00    -0.322 A  
HETATM    8  C   UNL     1      -8.622  16.752  69.064  1.00  0.00    -0.156 A  
HETATM    9  C   UNL     1      -8.454  15.379  68.883  1.00  0.00    -0.205 A  
HETATM   10  C   UNL     1      -9.494  14.645  68.302  1.00  0.00    -0.211 A  
HETATM   11  H   UNL     1     -10.063  12.799  67.704  1.00  0.00     0.000 HD 
HETATM   12  C   UNL     1     -10.682  15.249  67.910  1.00  0.00    -0.275 A  
HETATM   13  C   UNL     1     -10.839  16.623  68.086  1.00  0.00    -0.348 A  
HETATM   14  O   UNL     1      -9.357  13.297  68.099  1.00  0.00    -0.211 OA 
BRANCH   9  15
HETATM   15  O   UNL     1      -7.342  14.647  69.213  1.00  0.00    -0.146 OA 
HETATM   16  C   UNL     1      -6.260  15.367  69.793  1.00  0.00    -0.157 C  
ENDBRANCH   9  15
ENDBRANCH   6   7
ENDBRANCH   5   6
ENDBRANCH   4   5
ENDBRANCH   3   4
ENDBRANCH   2   3
TORSDOF 6
ENDMDL
MODEL      232
REMARK 921   NORMALIZED FREE ENERGY PREDICTED BY IDOCK:   -2.53 KCAL/MOL
REMARK 922        TOTAL FREE ENERGY PREDICTED BY IDOCK:   -3.73 KCAL/MOL
REMARK 923 INTER-LIGAND FREE ENERGY PREDICTED BY IDOCK:   -3.75 KCAL/MOL
REMARK 924 INTRA-LIGAND FREE ENERGY PREDICTED BY IDOCK:    0.02 KCAL/MOL
REMARK 927      BINDING AFFINITY PREDICTED BY RF-SCORE:    0.00 PKD
ROOT
HETATM    1  C   UNL     1     -12.983  12.759  64.887  1.00  0.00    -0.187 C  
HETATM    2  C   UNL     1     -12.117  12.199  63.770  1.00  0.00    -0.620 C  
ENDROOT
BRANCH   2   3
HETATM    3  C   UNL     1     -10.632  12.373  64.076  1.00  0.00    -0.444 C  
BRANCH   3   4
HETATM    4  C   UNL     1     -10.401  12.760  65.532  1.00  0.00    -0.284 C  
BRANCH   4   5
HETATM    5  O   UNL     1      -9.663  13.980  65.559  1.00  0.00    -0.226 OA 
BRANCH   5   6
HETATM    6  C   UNL     1     -10.188  14.884  66.529  1.00  0.00    -0.275 C  
BRANCH   6   7
HETATM    7  C   UNL     1      -9.065  15.713  67.100  1.00  0.00    -0.227 A  
HETATM    8  C   UNL     1      -7.932  16.003  66.315  1.00  0.00    -0.049 A  
HETATM    9  C   UNL     1      -6.861  16.717  66.853  1.00  0.00    -0.220 A  
HETATM   10  C   UNL     1      -6.939  17.147  68.183  1.00  0.00    -0.178 A  
HETATM   11  H   UNL     1      -5.953  18.132  69.647  1.00  0.00     0.000 HD 
HETATM   12  C   UNL     1      -8.054  16.886  68.969  1.00  0.00    -0.162 A  
HETATM   13  C   UNL     1      -9.117  16.164  68.427  1.00  0.00    -0.199 A  
HETATM   14  O   UNL     1      -5.900  17.839  68.745  1.00  0.00    -0.174 OA 
BRANCH   9  15
HETATM   15  O   UNL     1      -5.698  17.044  66.205  1.00  0.00    -0.321 OA 
HETATM   16  C   UNL     1      -5.540  18.410  65.837  1.00  0.00    -0.181 C  
ENDBRANCH   9  15
ENDBRANCH   6   7
ENDBRANCH   5   6
ENDBRANCH   4   5
ENDBRANCH   3   4
ENDBRANCH   2   3
TORSDOF 6
ENDMDL
MODEL      233
REMARK 921   NORMALIZED FREE ENERGY PREDICTED BY IDOCK:   -2.52 KCAL/MOL
REMARK 922        TOTAL FREE ENERGY PREDICTED BY IDOCK:   -3.72 KCAL/MOL
REMARK 923 INTER-LIGAND FREE ENERGY PREDICTED BY IDOCK:   -3.11 KCAL/MOL
REMARK 924 INTRA-LIGAND FREE ENERGY PREDICTED BY IDOCK:   -0.60 KCAL/MOL
REMARK 927      BINDING AFFINITY PREDICTED BY RF-SCORE:    0.00 PKD
ROOT
HETATM    1  C   UNL     1     -11.360  10.279  69.893  1.00  0.00    -0.354 C  
HETATM    2  C   UNL     1     -11.840   9.964  71.301  1.00  0.00    -0.479 C  
ENDROOT
BRANCH   2   3
HETATM    3  C   UNL     1     -11.024   8.838  71.929  1.00  0.00    -0.435 C  
BRANCH   3   4
HETATM    4  C   UNL     1     -11.179   7.535  71.155  1.00  0.00    -0.257 C  
BRANCH   4   5
HETATM    5  O   UNL     1      -9.935   6.837  71.198  1.00  0.00    -0.182 OA 
BRANCH   5   6
HETATM    6  C   UNL     1      -8.885   7.608  70.618  1.00  0.00    -0.145 C  
BRANCH   6   7
HETATM    7  C   UNL     1      -8.714   7.212  69.173  1.00  0.00    -0.133 A  
HETATM    8  C   UNL     1      -9.027   8.126  68.148  1.00  0.00    -0.135 A  
HETATM    9  C   UNL     1      -8.930   7.749  66.808  1.00  0.00    -0.139 A  
HETATM   10  C   UNL     1      -8.508   6.450  66.503  1.00  0.00    -0.118 A  
HETATM   11  H   UNL     1      -8.127   5.162  64.992  1.00  0.00     0.000 HD 
HETATM   12  C   UNL     1      -8.179   5.538  67.499  1.00  0.00    -0.101 A  
HETATM   13  C   UNL     1      -8.286   5.919  68.836  1.00  0.00    -0.102 A  
HETATM   14  O   UNL     1      -8.415   6.044  65.199  1.00  0.00    -0.148 OA 
BRANCH   9  15
HETATM   15  O   UNL     1      -9.225   8.532  65.722  1.00  0.00    -0.198 OA 
HETATM   16  C   UNL     1      -9.377   9.925  65.969  1.00  0.00    -0.188 C  
ENDBRANCH   9  15
ENDBRANCH   6   7
ENDBRANCH   5   6
ENDBRANCH   4   5
ENDBRANCH   3   4
ENDBRANCH   2   3
TORSDOF 6
ENDMDL
MODEL      234
REMARK 921   NORMALIZED FREE ENERGY PREDICTED BY IDOCK:   -2.50 KCAL/MOL
REMARK 922        TOTAL FREE ENERGY PREDICTED BY IDOCK:   -3.70 KCAL/MOL
REMARK 923 INTER-LIGAND FREE ENERGY PREDICTED BY IDOCK:   -3.41 KCAL/MOL
REMARK 924 INTRA-LIGAND FREE ENERGY PREDICTED BY IDOCK:   -0.29 KCAL/MOL
REMARK 927      BINDING AFFINITY PREDICTED BY RF-SCORE:    0.00 PKD
ROOT
HETATM    1  C   UNL     1      -6.131  10.229  65.059  1.00  0.00    -0.130 C  
HETATM    2  C   UNL     1      -7.482  10.107  65.745  1.00  0.00    -0.131 C  
ENDROOT
BRANCH   2   3
HETATM    3  C   UNL     1      -7.343  10.148  67.264  1.00  0.00    -0.090 C  
BRANCH   3   4
HETATM    4  C   UNL     1      -8.431   9.328  67.948  1.00  0.00    -0.117 C  
BRANCH   4   5
HETATM    5  O   UNL     1      -7.916   8.850  69.190  1.00  0.00    -0.101 OA 
BRANCH   5   6
HETATM    6  C   UNL     1      -8.423   9.606  70.288  1.00  0.00    -0.188 C  
BRANCH   6   7
HETATM    7  C   UNL     1      -9.739   9.020  70.734  1.00  0.00    -0.306 A  
HETATM    8  C   UNL     1      -9.792   7.707  71.241  1.00  0.00    -0.187 A  
HETATM    9  C   UNL     1     -11.013   7.135  71.599  1.00  0.00    -0.228 A  
HETATM   10  C   UNL     1     -12.180   7.893  71.454  1.00  0.00    -0.313 A  
HETATM   11  H   UNL     1     -14.188   7.871  71.687  1.00  0.00     0.000 HD 
HETATM   12  C   UNL     1     -12.148   9.195  70.971  1.00  0.00    -0.324 A  
HETATM   13  C   UNL     1     -10.925   9.758  70.607  1.00  0.00    -0.398 A  
HETATM   14  O   UNL     1     -13.396   7.356  71.785  1.00  0.00    -0.349 OA 
BRANCH   9  15
HETATM   15  O   UNL     1     -11.203   5.865  72.082  1.00  0.00    -0.266 OA 
HETATM   16  C   UNL     1     -10.681   5.596  73.378  1.00  0.00    -0.278 C  
ENDBRANCH   9  15
ENDBRANCH   6   7
ENDBRANCH   5   6
ENDBRANCH   4   5
ENDBRANCH   3   4
ENDBRANCH   2   3
TORSDOF 6
ENDMDL
MODEL      235
REMARK 921   NORMALIZED FREE ENERGY PREDICTED BY IDOCK:   -2.46 KCAL/MOL
REMARK 922        TOTAL FREE ENERGY PREDICTED BY IDOCK:   -3.64 KCAL/MOL
REMARK 923 INTER-LIGAND FREE ENERGY PREDICTED BY IDOCK:   -3.34 KCAL/MOL
REMARK 924 INTRA-LIGAND FREE ENERGY PREDICTED BY IDOCK:   -0.30 KCAL/MOL
REMARK 927      BINDING AFFINITY PREDICTED BY RF-SCORE:    0.00 PKD
ROOT
HETATM    1  C   UNL     1      -8.232  10.208  65.938  1.00  0.00    -0.138 C  
HETATM    2  C   UNL     1      -8.295   8.695  66.081  1.00  0.00    -0.127 C  
ENDROOT
BRANCH   2   3
HETATM    3  C   UNL     1      -9.692   8.230  66.482  1.00  0.00    -0.323 C  
BRANCH   3   4
HETATM    4  C   UNL     1      -9.742   7.805  67.945  1.00  0.00    -0.153 C  
BRANCH   4   5
HETATM    5  O   UNL     1     -10.210   6.458  68.004  1.00  0.00    -0.138 OA 
BRANCH   5   6
HETATM    6  C   UNL     1     -11.405   6.356  68.775  1.00  0.00    -0.162 C  
BRANCH   6   7
HETATM    7  C   UNL     1     -11.053   6.331  70.241  1.00  0.00    -0.430 A  
HETATM    8  C   UNL     1     -10.197   5.334  70.745  1.00  0.00    -0.317 A  
HETATM    9  C   UNL     1      -9.914   5.266  72.110  1.00  0.00    -0.184 A  
HETATM   10  C   UNL     1     -10.490   6.213  72.965  1.00  0.00    -0.226 A  
HETATM   11  H   UNL     1     -10.633   6.809  74.891  1.00  0.00     0.000 HD 
HETATM   12  C   UNL     1     -11.325   7.214  72.485  1.00  0.00    -0.318 A  
HETATM   13  C   UNL     1     -11.610   7.271  71.122  1.00  0.00    -0.323 A  
HETATM   14  O   UNL     1     -10.243   6.166  74.311  1.00  0.00    -0.277 OA 
BRANCH   9  15
HETATM   15  O   UNL     1      -9.117   4.336  72.728  1.00  0.00    -0.112 OA 
HETATM   16  C   UNL     1      -9.462   2.971  72.522  1.00  0.00    -0.110 C  
ENDBRANCH   9  15
ENDBRANCH   6   7
ENDBRANCH   5   6
ENDBRANCH   4   5
ENDBRANCH   3   4
ENDBRANCH   2   3
TORSDOF 6
ENDMDL
MODEL      236
REMARK 921   NORMALIZED FREE ENERGY PREDICTED BY IDOCK:   -2.46 KCAL/MOL
REMARK 922        TOTAL FREE ENERGY PREDICTED BY IDOCK:   -3.63 KCAL/MOL
REMARK 923 INTER-LIGAND FREE ENERGY PREDICTED BY IDOCK:   -3.34 KCAL/MOL
REMARK 924 INTRA-LIGAND FREE ENERGY PREDICTED BY IDOCK:   -0.30 KCAL/MOL
REMARK 927      BINDING AFFINITY PREDICTED BY RF-SCORE:    0.00 PKD
ROOT
HETATM    1  C   UNL     1      -7.787   3.176  66.320  1.00  0.00    -0.078 C  
HETATM    2  C   UNL     1      -8.843   4.165  65.853  1.00  0.00    -0.121 C  
ENDROOT
BRANCH   2   3
HETATM    3  C   UNL     1      -9.097   5.245  66.901  1.00  0.00    -0.113 C  
BRANCH   3   4
HETATM    4  C   UNL     1      -8.849   6.640  66.338  1.00  0.00    -0.144 C  
BRANCH   4   5
HETATM    5  O   UNL     1      -9.583   7.577  67.124  1.00  0.00    -0.143 OA 
BRANCH   5   6
HETATM    6  C   UNL     1      -8.891   7.903  68.328  1.00  0.00    -0.129 C  
BRANCH   6   7
HETATM    7  C   UNL     1      -9.840   8.583  69.282  1.00  0.00    -0.185 A  
HETATM    8  C   UNL     1     -10.459   7.846  70.309  1.00  0.00    -0.225 A  
HETATM    9  C   UNL     1     -11.384   8.453  71.159  1.00  0.00    -0.268 A  
HETATM   10  C   UNL     1     -11.677   9.809  70.976  1.00  0.00    -0.370 A  
HETATM   11  H   UNL     1     -12.788  11.353  71.662  1.00  0.00     0.000 HD 
HETATM   12  C   UNL     1     -11.065  10.559  69.980  1.00  0.00    -0.376 A  
HETATM   13  C   UNL     1     -10.148   9.944  69.129  1.00  0.00    -0.210 A  
HETATM   14  O   UNL     1     -12.590  10.432  71.785  1.00  0.00    -0.408 OA 
BRANCH   9  15
HETATM   15  O   UNL     1     -12.070   7.844  72.179  1.00  0.00    -0.308 OA 
HETATM   16  C   UNL     1     -12.864   6.718  71.824  1.00  0.00    -0.259 C  
ENDBRANCH   9  15
ENDBRANCH   6   7
ENDBRANCH   5   6
ENDBRANCH   4   5
ENDBRANCH   3   4
ENDBRANCH   2   3
TORSDOF 6
ENDMDL
MODEL      237
REMARK 921   NORMALIZED FREE ENERGY PREDICTED BY IDOCK:   -2.45 KCAL/MOL
REMARK 922        TOTAL FREE ENERGY PREDICTED BY IDOCK:   -3.63 KCAL/MOL
REMARK 923 INTER-LIGAND FREE ENERGY PREDICTED BY IDOCK:   -3.13 KCAL/MOL
REMARK 924 INTRA-LIGAND FREE ENERGY PREDICTED BY IDOCK:   -0.50 KCAL/MOL
REMARK 927      BINDING AFFINITY PREDICTED BY RF-SCORE:    0.00 PKD
ROOT
HETATM    1  C   UNL     1      -6.718   3.038  66.355  1.00  0.00    -0.047 C  
HETATM    2  C   UNL     1      -7.864   2.834  65.377  1.00  0.00    -0.081 C  
ENDROOT
BRANCH   2   3
HETATM    3  C   UNL     1      -8.945   3.896  65.555  1.00  0.00    -0.133 C  
BRANCH   3   4
HETATM    4  C   UNL     1      -8.342   5.265  65.848  1.00  0.00    -0.120 C  
BRANCH   4   5
HETATM    5  O   UNL     1      -9.336   6.066  66.483  1.00  0.00    -0.146 OA 
BRANCH   5   6
HETATM    6  C   UNL     1     -10.422   5.271  66.955  1.00  0.00    -0.229 C  
BRANCH   6   7
HETATM    7  C   UNL     1     -10.483   5.350  68.460  1.00  0.00    -0.192 A  
HETATM    8  C   UNL     1     -11.089   6.456  69.085  1.00  0.00    -0.428 A  
HETATM    9  C   UNL     1     -11.097   6.568  70.476  1.00  0.00    -0.319 A  
HETATM   10  C   UNL     1     -10.499   5.556  71.236  1.00  0.00    -0.239 A  
HETATM   11  H   UNL     1     -10.073   4.954  73.118  1.00  0.00     0.000 HD 
HETATM   12  C   UNL     1      -9.910   4.448  70.639  1.00  0.00    -0.280 A  
HETATM   13  C   UNL     1      -9.899   4.347  69.249  1.00  0.00    -0.218 A  
HETATM   14  O   UNL     1     -10.478   5.642  72.602  1.00  0.00    -0.192 OA 
BRANCH   9  15
HETATM   15  O   UNL     1     -11.632   7.600  71.203  1.00  0.00    -0.271 OA 
HETATM   16  C   UNL     1     -13.051   7.699  71.212  1.00  0.00    -0.233 C  
ENDBRANCH   9  15
ENDBRANCH   6   7
ENDBRANCH   5   6
ENDBRANCH   4   5
ENDBRANCH   3   4
ENDBRANCH   2   3
TORSDOF 6
ENDMDL
MODEL      238
REMARK 921   NORMALIZED FREE ENERGY PREDICTED BY IDOCK:   -2.44 KCAL/MOL
REMARK 922        TOTAL FREE ENERGY PREDICTED BY IDOCK:   -3.62 KCAL/MOL
REMARK 923 INTER-LIGAND FREE ENERGY PREDICTED BY IDOCK:   -3.33 KCAL/MOL
REMARK 924 INTRA-LIGAND FREE ENERGY PREDICTED BY IDOCK:   -0.29 KCAL/MOL
REMARK 927      BINDING AFFINITY PREDICTED BY RF-SCORE:    0.00 PKD
ROOT
HETATM    1  C   UNL     1      -6.173  10.397  64.804  1.00  0.00    -0.090 C  
HETATM    2  C   UNL     1      -7.609  10.004  65.115  1.00  0.00    -0.138 C  
ENDROOT
BRANCH   2   3
HETATM    3  C   UNL     1      -7.892  10.067  66.613  1.00  0.00    -0.111 C  
BRANCH   3   4
HETATM    4  C   UNL     1      -8.982   9.081  67.019  1.00  0.00    -0.126 C  
BRANCH   4   5
HETATM    5  O   UNL     1      -8.435   8.181  67.981  1.00  0.00    -0.130 OA 
BRANCH   5   6
HETATM    6  C   UNL     1      -8.496   8.726  69.297  1.00  0.00    -0.122 C  
BRANCH   6   7
HETATM    7  C   UNL     1      -9.605   8.051  70.066  1.00  0.00    -0.171 A  
HETATM    8  C   UNL     1     -10.401   8.796  70.957  1.00  0.00    -0.297 A  
HETATM    9  C   UNL     1     -11.389   8.170  71.718  1.00  0.00    -0.278 A  
HETATM   10  C   UNL     1     -11.579   6.792  71.571  1.00  0.00    -0.300 A  
HETATM   11  H   UNL     1     -12.660   5.209  72.213  1.00  0.00     0.000 HD 
HETATM   12  C   UNL     1     -10.815   6.041  70.686  1.00  0.00    -0.364 A  
HETATM   13  C   UNL     1      -9.824   6.672  69.935  1.00  0.00    -0.180 A  
HETATM   14  O   UNL     1     -12.531   6.145  72.312  1.00  0.00    -0.236 OA 
BRANCH   9  15
HETATM   15  O   UNL     1     -12.213   8.775  72.632  1.00  0.00    -0.333 OA 
HETATM   16  C   UNL     1     -13.272   9.565  72.105  1.00  0.00    -0.451 C  
ENDBRANCH   9  15
ENDBRANCH   6   7
ENDBRANCH   5   6
ENDBRANCH   4   5
ENDBRANCH   3   4
ENDBRANCH   2   3
TORSDOF 6
ENDMDL
MODEL      239
REMARK 921   NORMALIZED FREE ENERGY PREDICTED BY IDOCK:   -2.44 KCAL/MOL
REMARK 922        TOTAL FREE ENERGY PREDICTED BY IDOCK:   -3.61 KCAL/MOL
REMARK 923 INTER-LIGAND FREE ENERGY PREDICTED BY IDOCK:   -3.34 KCAL/MOL
REMARK 924 INTRA-LIGAND FREE ENERGY PREDICTED BY IDOCK:   -0.27 KCAL/MOL
REMARK 927      BINDING AFFINITY PREDICTED BY RF-SCORE:    0.00 PKD
ROOT
HETATM    1  C   UNL     1     -10.403  12.416  65.517  1.00  0.00    -0.298 C  
HETATM    2  C   UNL     1      -9.151  11.624  65.860  1.00  0.00    -0.155 C  
ENDROOT
BRANCH   2   3
HETATM    3  C   UNL     1      -8.854  11.671  67.356  1.00  0.00    -0.160 C  
BRANCH   3   4
HETATM    4  C   UNL     1      -9.816  10.792  68.146  1.00  0.00    -0.158 C  
BRANCH   4   5
HETATM    5  O   UNL     1      -9.100   9.650  68.612  1.00  0.00    -0.130 OA 
BRANCH   5   6
HETATM    6  C   UNL     1      -8.935   9.681  70.028  1.00  0.00    -0.237 C  
BRANCH   6   7
HETATM    7  C   UNL     1      -9.866   8.678  70.662  1.00  0.00    -0.220 A  
HETATM    8  C   UNL     1      -9.593   7.301  70.563  1.00  0.00    -0.168 A  
HETATM    9  C   UNL     1     -10.480   6.363  71.094  1.00  0.00    -0.221 A  
HETATM   10  C   UNL     1     -11.638   6.818  71.733  1.00  0.00    -0.297 A  
HETATM   11  H   UNL     1     -13.321   6.233  72.688  1.00  0.00     0.000 HD 
HETATM   12  C   UNL     1     -11.918   8.173  71.856  1.00  0.00    -0.367 A  
HETATM   13  C   UNL     1     -11.032   9.105  71.316  1.00  0.00    -0.400 A  
HETATM   14  O   UNL     1     -12.535   5.924  72.254  1.00  0.00    -0.150 OA 
BRANCH   9  15
HETATM   15  O   UNL     1     -10.342   4.999  71.045  1.00  0.00    -0.223 OA 
HETATM   16  C   UNL     1     -10.015   4.441  69.778  1.00  0.00    -0.154 C  
ENDBRANCH   9  15
ENDBRANCH   6   7
ENDBRANCH   5   6
ENDBRANCH   4   5
ENDBRANCH   3   4
ENDBRANCH   2   3
TORSDOF 6
ENDMDL
MODEL      240
REMARK 921   NORMALIZED FREE ENERGY PREDICTED BY IDOCK:   -2.42 KCAL/MOL
REMARK 922        TOTAL FREE ENERGY PREDICTED BY IDOCK:   -3.59 KCAL/MOL
REMARK 923 INTER-LIGAND FREE ENERGY PREDICTED BY IDOCK:   -3.16 KCAL/MOL
REMARK 924 INTRA-LIGAND FREE ENERGY PREDICTED BY IDOCK:   -0.43 KCAL/MOL
REMARK 927      BINDING AFFINITY PREDICTED BY RF-SCORE:    0.00 PKD
ROOT
HETATM    1  C   UNL     1      -6.624   5.746  65.430  1.00  0.00    -0.043 C  
HETATM    2  C   UNL     1      -7.343   7.085  65.467  1.00  0.00    -0.079 C  
ENDROOT
BRANCH   2   3
HETATM    3  C   UNL     1      -8.735   6.954  66.080  1.00  0.00    -0.151 C  
BRANCH   3   4
HETATM    4  C   UNL     1      -9.091   5.498  66.355  1.00  0.00    -0.144 C  
BRANCH   4   5
HETATM    5  O   UNL     1     -10.305   5.468  67.102  1.00  0.00    -0.201 OA 
BRANCH   5   6
HETATM    6  C   UNL     1     -10.139   4.777  68.339  1.00  0.00    -0.041 C  
BRANCH   6   7
HETATM    7  C   UNL     1     -10.215   5.764  69.476  1.00  0.00    -0.306 A  
HETATM    8  C   UNL     1     -11.427   6.422  69.761  1.00  0.00    -0.468 A  
HETATM    9  C   UNL     1     -11.492   7.381  70.772  1.00  0.00    -0.288 A  
HETATM   10  C   UNL     1     -10.334   7.668  71.503  1.00  0.00    -0.196 A  
HETATM   11  H   UNL     1      -9.575   8.808  72.990  1.00  0.00     0.000 HD 
HETATM   12  C   UNL     1      -9.132   7.019  71.249  1.00  0.00    -0.152 A  
HETATM   13  C   UNL     1      -9.072   6.068  70.232  1.00  0.00    -0.159 A  
HETATM   14  O   UNL     1     -10.361   8.613  72.494  1.00  0.00    -0.295 OA 
BRANCH   9  15
HETATM   15  O   UNL     1     -12.599   8.105  71.132  1.00  0.00    -0.263 OA 
HETATM   16  C   UNL     1     -13.698   7.366  71.653  1.00  0.00    -0.373 C  
ENDBRANCH   9  15
ENDBRANCH   6   7
ENDBRANCH   5   6
ENDBRANCH   4   5
ENDBRANCH   3   4
ENDBRANCH   2   3
TORSDOF 6
ENDMDL
MODEL      241
REMARK 921   NORMALIZED FREE ENERGY PREDICTED BY IDOCK:   -2.41 KCAL/MOL
REMARK 922        TOTAL FREE ENERGY PREDICTED BY IDOCK:   -3.57 KCAL/MOL
REMARK 923 INTER-LIGAND FREE ENERGY PREDICTED BY IDOCK:   -2.94 KCAL/MOL
REMARK 924 INTRA-LIGAND FREE ENERGY PREDICTED BY IDOCK:   -0.63 KCAL/MOL
REMARK 927      BINDING AFFINITY PREDICTED BY RF-SCORE:    0.00 PKD
ROOT
HETATM    1  C   UNL     1      -8.172   5.126  67.726  1.00  0.00    -0.098 C  
HETATM    2  C   UNL     1      -9.551   4.486  67.742  1.00  0.00    -0.208 C  
ENDROOT
BRANCH   2   3
HETATM    3  C   UNL     1     -10.523   5.233  66.833  1.00  0.00    -0.313 C  
BRANCH   3   4
HETATM    4  C   UNL     1     -10.010   6.627  66.490  1.00  0.00    -0.084 C  
BRANCH   4   5
HETATM    5  O   UNL     1     -10.999   7.577  66.882  1.00  0.00    -0.292 OA 
BRANCH   5   6
HETATM    6  C   UNL     1     -10.418   8.849  67.160  1.00  0.00    -0.274 C  
BRANCH   6   7
HETATM    7  C   UNL     1      -9.919   8.871  68.583  1.00  0.00    -0.192 A  
HETATM    8  C   UNL     1      -8.617   9.324  68.868  1.00  0.00    -0.130 A  
HETATM    9  C   UNL     1      -8.125   9.291  70.174  1.00  0.00    -0.145 A  
HETATM   10  C   UNL     1      -8.953   8.808  71.193  1.00  0.00    -0.222 A  
HETATM   11  H   UNL     1      -9.059   8.424  73.175  1.00  0.00     0.000 HD 
HETATM   12  C   UNL     1     -10.247   8.372  70.936  1.00  0.00    -0.234 A  
HETATM   13  C   UNL     1     -10.729   8.400  69.628  1.00  0.00    -0.201 A  
HETATM   14  O   UNL     1      -8.497   8.751  72.483  1.00  0.00    -0.403 OA 
BRANCH   9  15
HETATM   15  O   UNL     1      -6.874   9.680  70.579  1.00  0.00    -0.099 OA 
HETATM   16  C   UNL     1      -6.051  10.292  69.592  1.00  0.00    -0.049 C  
ENDBRANCH   9  15
ENDBRANCH   6   7
ENDBRANCH   5   6
ENDBRANCH   4   5
ENDBRANCH   3   4
ENDBRANCH   2   3
TORSDOF 6
ENDMDL
MODEL      242
REMARK 921   NORMALIZED FREE ENERGY PREDICTED BY IDOCK:   -2.40 KCAL/MOL
REMARK 922        TOTAL FREE ENERGY PREDICTED BY IDOCK:   -3.56 KCAL/MOL
REMARK 923 INTER-LIGAND FREE ENERGY PREDICTED BY IDOCK:   -3.13 KCAL/MOL
REMARK 924 INTRA-LIGAND FREE ENERGY PREDICTED BY IDOCK:   -0.43 KCAL/MOL
REMARK 927      BINDING AFFINITY PREDICTED BY RF-SCORE:    0.00 PKD
ROOT
HETATM    1  C   UNL     1      -9.108   4.729  64.939  1.00  0.00    -0.141 C  
HETATM    2  C   UNL     1      -9.223   4.478  66.435  1.00  0.00    -0.137 C  
ENDROOT
BRANCH   2   3
HETATM    3  C   UNL     1     -10.447   5.173  67.024  1.00  0.00    -0.256 C  
BRANCH   3   4
HETATM    4  C   UNL     1     -10.134   6.607  67.436  1.00  0.00    -0.164 C  
BRANCH   4   5
HETATM    5  O   UNL     1     -11.155   7.050  68.327  1.00  0.00    -0.122 OA 
BRANCH   5   6
HETATM    6  C   UNL     1     -11.227   6.226  69.488  1.00  0.00    -0.430 C  
BRANCH   6   7
HETATM    7  C   UNL     1     -10.430   6.858  70.601  1.00  0.00    -0.233 A  
HETATM    8  C   UNL     1      -9.259   6.235  71.073  1.00  0.00    -0.160 A  
HETATM    9  C   UNL     1      -8.548   6.781  72.143  1.00  0.00    -0.117 A  
HETATM   10  C   UNL     1      -9.015   7.962  72.729  1.00  0.00    -0.198 A  
HETATM   11  H   UNL     1      -8.665   9.319  74.186  1.00  0.00     0.000 HD 
HETATM   12  C   UNL     1     -10.159   8.601  72.268  1.00  0.00    -0.363 A  
HETATM   13  C   UNL     1     -10.869   8.046  71.204  1.00  0.00    -0.267 A  
HETATM   14  O   UNL     1      -8.348   8.516  73.788  1.00  0.00    -0.362 OA 
BRANCH   9  15
HETATM   15  O   UNL     1      -7.411   6.263  72.709  1.00  0.00    -0.094 OA 
HETATM   16  C   UNL     1      -7.525   4.968  73.287  1.00  0.00    -0.088 C  
ENDBRANCH   9  15
ENDBRANCH   6   7
ENDBRANCH   5   6
ENDBRANCH   4   5
ENDBRANCH   3   4
ENDBRANCH   2   3
TORSDOF 6
ENDMDL
MODEL      243
REMARK 921   NORMALIZED FREE ENERGY PREDICTED BY IDOCK:   -2.39 KCAL/MOL
REMARK 922        TOTAL FREE ENERGY PREDICTED BY IDOCK:   -3.55 KCAL/MOL
REMARK 923 INTER-LIGAND FREE ENERGY PREDICTED BY IDOCK:   -2.57 KCAL/MOL
REMARK 924 INTRA-LIGAND FREE ENERGY PREDICTED BY IDOCK:   -0.98 KCAL/MOL
REMARK 927      BINDING AFFINITY PREDICTED BY RF-SCORE:    0.00 PKD
ROOT
HETATM    1  C   UNL     1     -10.388   7.506  69.408  1.00  0.00    -0.213 C  
HETATM    2  C   UNL     1     -11.446   6.520  69.876  1.00  0.00    -0.467 C  
ENDROOT
BRANCH   2   3
HETATM    3  C   UNL     1     -11.239   6.130  71.336  1.00  0.00    -0.346 C  
BRANCH   3   4
HETATM    4  C   UNL     1      -9.853   5.538  71.566  1.00  0.00    -0.171 C  
BRANCH   4   5
HETATM    5  O   UNL     1      -9.840   4.211  71.044  1.00  0.00    -0.185 OA 
BRANCH   5   6
HETATM    6  C   UNL     1      -8.582   3.898  70.449  1.00  0.00    -0.072 C  
BRANCH   6   7
HETATM    7  C   UNL     1      -8.581   4.355  69.012  1.00  0.00    -0.105 A  
HETATM    8  C   UNL     1      -7.650   5.318  68.578  1.00  0.00    -0.079 A  
HETATM    9  C   UNL     1      -7.680   5.791  67.265  1.00  0.00    -0.101 A  
HETATM   10  C   UNL     1      -8.646   5.285  66.389  1.00  0.00    -0.114 A  
HETATM   11  H   UNL     1      -9.367   5.394  64.503  1.00  0.00     0.000 HD 
HETATM   12  C   UNL     1      -9.564   4.323  66.793  1.00  0.00    -0.221 A  
HETATM   13  C   UNL     1      -9.533   3.860  68.108  1.00  0.00    -0.219 A  
HETATM   14  O   UNL     1      -8.711   5.738  65.098  1.00  0.00    -0.142 OA 
BRANCH   9  15
HETATM   15  O   UNL     1      -6.848   6.738  66.726  1.00  0.00    -0.058 OA 
HETATM   16  C   UNL     1      -6.931   8.045  67.282  1.00  0.00    -0.075 C  
ENDBRANCH   9  15
ENDBRANCH   6   7
ENDBRANCH   5   6
ENDBRANCH   4   5
ENDBRANCH   3   4
ENDBRANCH   2   3
TORSDOF 6
ENDMDL
MODEL      244
REMARK 921   NORMALIZED FREE ENERGY PREDICTED BY IDOCK:   -2.39 KCAL/MOL
REMARK 922        TOTAL FREE ENERGY PREDICTED BY IDOCK:   -3.55 KCAL/MOL
REMARK 923 INTER-LIGAND FREE ENERGY PREDICTED BY IDOCK:   -4.01 KCAL/MOL
REMARK 924 INTRA-LIGAND FREE ENERGY PREDICTED BY IDOCK:    0.46 KCAL/MOL
REMARK 927      BINDING AFFINITY PREDICTED BY RF-SCORE:    0.00 PKD
ROOT
HETATM    1  C   UNL     1     -10.198   6.415  66.617  1.00  0.00    -0.216 C  
HETATM    2  C   UNL     1     -10.184   7.573  67.603  1.00  0.00    -0.275 C  
ENDROOT
BRANCH   2   3
HETATM    3  C   UNL     1     -10.026   8.912  66.888  1.00  0.00    -0.315 C  
BRANCH   3   4
HETATM    4  C   UNL     1      -8.743   9.621  67.306  1.00  0.00    -0.132 C  
BRANCH   4   5
HETATM    5  O   UNL     1      -8.596  10.790  66.502  1.00  0.00    -0.141 OA 
BRANCH   5   6
HETATM    6  C   UNL     1      -9.828  11.155  65.883  1.00  0.00    -0.232 C  
BRANCH   6   7
HETATM    7  C   UNL     1     -10.343  12.428  66.507  1.00  0.00    -0.248 A  
HETATM    8  C   UNL     1      -9.561  13.598  66.474  1.00  0.00    -0.294 A  
HETATM    9  C   UNL     1     -10.003  14.764  67.101  1.00  0.00    -0.236 A  
HETATM   10  C   UNL     1     -11.240  14.749  67.755  1.00  0.00    -0.313 A  
HETATM   11  H   UNL     1     -12.537  15.863  68.835  1.00  0.00     0.000 HD 
HETATM   12  C   UNL     1     -12.034  13.610  67.786  1.00  0.00    -0.387 A  
HETATM   13  C   UNL     1     -11.583  12.446  67.164  1.00  0.00    -0.435 A  
HETATM   14  O   UNL     1     -11.697  15.872  68.391  1.00  0.00    -0.358 OA 
BRANCH   9  15
HETATM   15  O   UNL     1      -9.330  15.957  67.160  1.00  0.00    -0.207 OA 
HETATM   16  C   UNL     1      -9.178  16.535  68.451  1.00  0.00    -0.222 C  
ENDBRANCH   9  15
ENDBRANCH   6   7
ENDBRANCH   5   6
ENDBRANCH   4   5
ENDBRANCH   3   4
ENDBRANCH   2   3
TORSDOF 6
ENDMDL
MODEL      245
REMARK 921   NORMALIZED FREE ENERGY PREDICTED BY IDOCK:   -2.39 KCAL/MOL
REMARK 922        TOTAL FREE ENERGY PREDICTED BY IDOCK:   -3.54 KCAL/MOL
REMARK 923 INTER-LIGAND FREE ENERGY PREDICTED BY IDOCK:   -3.21 KCAL/MOL
REMARK 924 INTRA-LIGAND FREE ENERGY PREDICTED BY IDOCK:   -0.33 KCAL/MOL
REMARK 927      BINDING AFFINITY PREDICTED BY RF-SCORE:    0.00 PKD
ROOT
HETATM    1  C   UNL     1      -7.775   5.152  70.574  1.00  0.00    -0.071 C  
HETATM    2  C   UNL     1      -8.559   6.217  69.824  1.00  0.00    -0.137 C  
ENDROOT
BRANCH   2   3
HETATM    3  C   UNL     1      -9.620   6.859  70.714  1.00  0.00    -0.167 C  
BRANCH   3   4
HETATM    4  C   UNL     1     -10.137   8.162  70.118  1.00  0.00    -0.194 C  
BRANCH   4   5
HETATM    5  O   UNL     1      -9.414   8.423  68.916  1.00  0.00    -0.147 OA 
BRANCH   5   6
HETATM    6  C   UNL     1      -9.577   9.776  68.494  1.00  0.00    -0.149 C  
BRANCH   6   7
HETATM    7  C   UNL     1      -9.517   9.840  66.988  1.00  0.00    -0.195 A  
HETATM    8  C   UNL     1     -10.384  10.696  66.283  1.00  0.00    -0.296 A  
HETATM    9  C   UNL     1     -10.378  10.718  64.887  1.00  0.00    -0.299 A  
HETATM   10  C   UNL     1      -9.487   9.881  64.205  1.00  0.00    -0.216 A  
HETATM   11  H   UNL     1      -8.861   9.301  62.373  1.00  0.00     0.000 HD 
HETATM   12  C   UNL     1      -8.613   9.041  64.882  1.00  0.00    -0.206 A  
HETATM   13  C   UNL     1      -8.630   9.018  66.276  1.00  0.00    -0.140 A  
HETATM   14  O   UNL     1      -9.465   9.869  62.836  1.00  0.00    -0.276 OA 
BRANCH   9  15
HETATM   15  O   UNL     1     -11.182  11.485  64.085  1.00  0.00    -0.358 OA 
HETATM   16  C   UNL     1     -12.207  12.225  64.739  1.00  0.00    -0.365 C  
ENDBRANCH   9  15
ENDBRANCH   6   7
ENDBRANCH   5   6
ENDBRANCH   4   5
ENDBRANCH   3   4
ENDBRANCH   2   3
TORSDOF 6
ENDMDL
MODEL      246
REMARK 921   NORMALIZED FREE ENERGY PREDICTED BY IDOCK:   -2.36 KCAL/MOL
REMARK 922        TOTAL FREE ENERGY PREDICTED BY IDOCK:   -3.50 KCAL/MOL
REMARK 923 INTER-LIGAND FREE ENERGY PREDICTED BY IDOCK:   -2.90 KCAL/MOL
REMARK 924 INTRA-LIGAND FREE ENERGY PREDICTED BY IDOCK:   -0.60 KCAL/MOL
REMARK 927      BINDING AFFINITY PREDICTED BY RF-SCORE:    0.00 PKD
ROOT
HETATM    1  C   UNL     1      -9.380  10.182  66.359  1.00  0.00    -0.209 C  
HETATM    2  C   UNL     1     -10.789  10.414  65.835  1.00  0.00     0.079 C  
ENDROOT
BRANCH   2   3
HETATM    3  C   UNL     1     -11.346  11.753  66.310  1.00  0.00    -0.350 C  
BRANCH   3   4
HETATM    4  C   UNL     1     -11.577  11.761  67.816  1.00  0.00    -0.304 C  
BRANCH   4   5
HETATM    5  O   UNL     1     -11.056  12.981  68.342  1.00  0.00    -0.236 OA 
BRANCH   5   6
HETATM    6  C   UNL     1     -10.764  13.913  67.304  1.00  0.00    -0.284 C  
BRANCH   6   7
HETATM    7  C   UNL     1      -9.377  14.469  67.507  1.00  0.00    -0.193 A  
HETATM    8  C   UNL     1      -9.099  15.811  67.184  1.00  0.00    -0.228 A  
HETATM    9  C   UNL     1      -7.805  16.318  67.311  1.00  0.00    -0.173 A  
HETATM   10  C   UNL     1      -6.793  15.470  67.773  1.00  0.00    -0.161 A  
HETATM   11  H   UNL     1      -4.822  15.356  68.211  1.00  0.00     0.000 HD 
HETATM   12  C   UNL     1      -7.048  14.147  68.111  1.00  0.00    -0.127 A  
HETATM   13  C   UNL     1      -8.342  13.645  67.974  1.00  0.00    -0.170 A  
HETATM   14  O   UNL     1      -5.510  15.932  67.897  1.00  0.00    -0.118 OA 
BRANCH   9  15
HETATM   15  O   UNL     1      -7.401  17.594  67.012  1.00  0.00    -0.177 OA 
HETATM   16  C   UNL     1      -8.043  18.645  67.725  1.00  0.00    -0.251 C  
ENDBRANCH   9  15
ENDBRANCH   6   7
ENDBRANCH   5   6
ENDBRANCH   4   5
ENDBRANCH   3   4
ENDBRANCH   2   3
TORSDOF 6
ENDMDL
MODEL      247
REMARK 921   NORMALIZED FREE ENERGY PREDICTED BY IDOCK:   -2.34 KCAL/MOL
REMARK 922        TOTAL FREE ENERGY PREDICTED BY IDOCK:   -3.48 KCAL/MOL
REMARK 923 INTER-LIGAND FREE ENERGY PREDICTED BY IDOCK:   -3.56 KCAL/MOL
REMARK 924 INTRA-LIGAND FREE ENERGY PREDICTED BY IDOCK:    0.08 KCAL/MOL
REMARK 927      BINDING AFFINITY PREDICTED BY RF-SCORE:    0.00 PKD
ROOT
HETATM    1  C   UNL     1      -8.768   9.789  66.085  1.00  0.00    -0.150 C  
HETATM    2  C   UNL     1     -10.154   9.610  65.487  1.00  0.00    -0.165 C  
ENDROOT
BRANCH   2   3
HETATM    3  C   UNL     1     -10.669  10.909  64.874  1.00  0.00    -0.240 C  
BRANCH   3   4
HETATM    4  C   UNL     1     -11.047  11.923  65.948  1.00  0.00    -0.316 C  
BRANCH   4   5
HETATM    5  O   UNL     1     -10.472  13.181  65.598  1.00  0.00    -0.273 OA 
BRANCH   5   6
HETATM    6  C   UNL     1     -11.144  14.259  66.247  1.00  0.00    -0.323 C  
BRANCH   6   7
HETATM    7  C   UNL     1     -10.128  15.259  66.738  1.00  0.00    -0.262 A  
HETATM    8  C   UNL     1      -9.387  14.997  67.907  1.00  0.00    -0.183 A  
HETATM    9  C   UNL     1      -8.488  15.942  68.403  1.00  0.00    -0.176 A  
HETATM   10  C   UNL     1      -8.331  17.149  67.712  1.00  0.00    -0.202 A  
HETATM   11  H   UNL     1      -7.359  18.922  67.710  1.00  0.00     0.000 HD 
HETATM   12  C   UNL     1      -9.040  17.420  66.548  1.00  0.00    -0.288 A  
HETATM   13  C   UNL     1      -9.943  16.475  66.063  1.00  0.00    -0.359 A  
HETATM   14  O   UNL     1      -7.466  18.103  68.179  1.00  0.00    -0.242 OA 
BRANCH   9  15
HETATM   15  O   UNL     1      -7.726  15.820  69.536  1.00  0.00    -0.229 OA 
HETATM   16  C   UNL     1      -6.329  15.630  69.343  1.00  0.00    -0.150 C  
ENDBRANCH   9  15
ENDBRANCH   6   7
ENDBRANCH   5   6
ENDBRANCH   4   5
ENDBRANCH   3   4
ENDBRANCH   2   3
TORSDOF 6
ENDMDL
MODEL      248
REMARK 921   NORMALIZED FREE ENERGY PREDICTED BY IDOCK:   -2.32 KCAL/MOL
REMARK 922        TOTAL FREE ENERGY PREDICTED BY IDOCK:   -3.46 KCAL/MOL
REMARK 923 INTER-LIGAND FREE ENERGY PREDICTED BY IDOCK:   -2.91 KCAL/MOL
REMARK 924 INTRA-LIGAND FREE ENERGY PREDICTED BY IDOCK:   -0.55 KCAL/MOL
REMARK 927      BINDING AFFINITY PREDICTED BY RF-SCORE:    0.00 PKD
ROOT
HETATM    1  C   UNL     1      -7.860   6.395  69.095  1.00  0.00    -0.109 C  
HETATM    2  C   UNL     1      -8.177   7.859  68.836  1.00  0.00    -0.126 C  
ENDROOT
BRANCH   2   3
HETATM    3  C   UNL     1      -8.696   8.549  70.095  1.00  0.00    -0.137 C  
BRANCH   3   4
HETATM    4  C   UNL     1      -9.357   9.883  69.771  1.00  0.00    -0.221 C  
BRANCH   4   5
HETATM    5  O   UNL     1      -8.460  10.642  68.962  1.00  0.00    -0.143 OA 
BRANCH   5   6
HETATM    6  C   UNL     1      -9.156  11.611  68.181  1.00  0.00    -0.183 C  
BRANCH   6   7
HETATM    7  C   UNL     1      -9.241  11.135  66.752  1.00  0.00    -0.183 A  
HETATM    8  C   UNL     1      -8.145  10.478  66.161  1.00  0.00    -0.145 A  
HETATM    9  C   UNL     1      -8.191  10.088  64.822  1.00  0.00    -0.155 A  
HETATM   10  C   UNL     1      -9.349  10.354  64.083  1.00  0.00    -0.277 A  
HETATM   11  H   UNL     1     -10.207  10.177  62.261  1.00  0.00     0.000 HD 
HETATM   12  C   UNL     1     -10.446  10.988  64.651  1.00  0.00    -0.398 A  
HETATM   13  C   UNL     1     -10.391  11.382  65.987  1.00  0.00    -0.297 A  
HETATM   14  O   UNL     1      -9.421   9.996  62.763  1.00  0.00    -0.295 OA 
BRANCH   9  15
HETATM   15  O   UNL     1      -7.189   9.462  64.125  1.00  0.00    -0.099 OA 
HETATM   16  C   UNL     1      -5.983  10.198  63.953  1.00  0.00    -0.140 C  
ENDBRANCH   9  15
ENDBRANCH   6   7
ENDBRANCH   5   6
ENDBRANCH   4   5
ENDBRANCH   3   4
ENDBRANCH   2   3
TORSDOF 6
ENDMDL
MODEL      249
REMARK 921   NORMALIZED FREE ENERGY PREDICTED BY IDOCK:   -2.30 KCAL/MOL
REMARK 922        TOTAL FREE ENERGY PREDICTED BY IDOCK:   -3.43 KCAL/MOL
REMARK 923 INTER-LIGAND FREE ENERGY PREDICTED BY IDOCK:   -2.85 KCAL/MOL
REMARK 924 INTRA-LIGAND FREE ENERGY PREDICTED BY IDOCK:   -0.58 KCAL/MOL
REMARK 927      BINDING AFFINITY PREDICTED BY RF-SCORE:    0.00 PKD
ROOT
HETATM    1  C   UNL     1      -8.482   4.950  69.748  1.00  0.00    -0.091 C  
HETATM    2  C   UNL     1     -10.000   4.924  69.831  1.00  0.00    -0.317 C  
ENDROOT
BRANCH   2   3
HETATM    3  C   UNL     1     -10.482   5.059  71.273  1.00  0.00    -0.213 C  
BRANCH   3   4
HETATM    4  C   UNL     1     -11.258   6.354  71.485  1.00  0.00    -0.284 C  
BRANCH   4   5
HETATM    5  O   UNL     1     -10.393   7.449  71.188  1.00  0.00    -0.202 OA 
BRANCH   5   6
HETATM    6  C   UNL     1     -11.082   8.482  70.487  1.00  0.00    -0.244 C  
BRANCH   6   7
HETATM    7  C   UNL     1     -10.136   9.148  69.520  1.00  0.00    -0.202 A  
HETATM    8  C   UNL     1     -10.488  10.370  68.915  1.00  0.00    -0.232 A  
HETATM    9  C   UNL     1      -9.646  10.963  67.974  1.00  0.00    -0.162 A  
HETATM   10  C   UNL     1      -8.442  10.326  67.651  1.00  0.00    -0.118 A  
HETATM   11  H   UNL     1      -6.783  10.444  66.503  1.00  0.00     0.000 HD 
HETATM   12  C   UNL     1      -8.069   9.129  68.248  1.00  0.00    -0.104 A  
HETATM   13  C   UNL     1      -8.919   8.537  69.181  1.00  0.00    -0.146 A  
HETATM   14  O   UNL     1      -7.600  10.876  66.722  1.00  0.00    -0.121 OA 
BRANCH   9  15
HETATM   15  O   UNL     1      -9.881  12.134  67.300  1.00  0.00    -0.194 OA 
HETATM   16  C   UNL     1      -9.558  13.337  67.989  1.00  0.00    -0.220 C  
ENDBRANCH   9  15
ENDBRANCH   6   7
ENDBRANCH   5   6
ENDBRANCH   4   5
ENDBRANCH   3   4
ENDBRANCH   2   3
TORSDOF 6
ENDMDL
MODEL      250
REMARK 921   NORMALIZED FREE ENERGY PREDICTED BY IDOCK:   -2.30 KCAL/MOL
REMARK 922        TOTAL FREE ENERGY PREDICTED BY IDOCK:   -3.43 KCAL/MOL
REMARK 923 INTER-LIGAND FREE ENERGY PREDICTED BY IDOCK:   -3.28 KCAL/MOL
REMARK 924 INTRA-LIGAND FREE ENERGY PREDICTED BY IDOCK:   -0.15 KCAL/MOL
REMARK 927      BINDING AFFINITY PREDICTED BY RF-SCORE:    0.00 PKD
ROOT
HETATM    1  C   UNL     1      -8.136   6.371  69.226  1.00  0.00    -0.111 C  
HETATM    2  C   UNL     1      -8.109   7.753  68.593  1.00  0.00    -0.127 C  
ENDROOT
BRANCH   2   3
HETATM    3  C   UNL     1      -7.955   8.846  69.647  1.00  0.00    -0.092 C  
BRANCH   3   4
HETATM    4  C   UNL     1      -8.344  10.213  69.097  1.00  0.00    -0.154 C  
BRANCH   4   5
HETATM    5  O   UNL     1      -8.835  10.038  67.769  1.00  0.00    -0.125 OA 
BRANCH   5   6
HETATM    6  C   UNL     1      -8.091  10.815  66.833  1.00  0.00    -0.132 C  
BRANCH   6   7
HETATM    7  C   UNL     1      -8.733  12.170  66.684  1.00  0.00    -0.153 A  
HETATM    8  C   UNL     1      -9.852  12.334  65.844  1.00  0.00    -0.266 A  
HETATM    9  C   UNL     1     -10.416  13.595  65.652  1.00  0.00    -0.299 A  
HETATM   10  C   UNL     1      -9.855  14.692  66.317  1.00  0.00    -0.300 A  
HETATM   11  H   UNL     1      -9.997  16.689  66.593  1.00  0.00     0.000 HD 
HETATM   12  C   UNL     1      -8.762  14.550  67.163  1.00  0.00    -0.237 A  
HETATM   13  C   UNL     1      -8.198  13.287  67.343  1.00  0.00    -0.185 A  
HETATM   14  O   UNL     1     -10.378  15.945  66.141  1.00  0.00    -0.297 OA 
BRANCH   9  15
HETATM   15  O   UNL     1     -11.487  13.891  64.848  1.00  0.00    -0.326 OA 
HETATM   16  C   UNL     1     -12.777  13.725  65.426  1.00  0.00    -0.472 C  
ENDBRANCH   9  15
ENDBRANCH   6   7
ENDBRANCH   5   6
ENDBRANCH   4   5
ENDBRANCH   3   4
ENDBRANCH   2   3
TORSDOF 6
ENDMDL
MODEL      251
REMARK 921   NORMALIZED FREE ENERGY PREDICTED BY IDOCK:   -2.29 KCAL/MOL
REMARK 922        TOTAL FREE ENERGY PREDICTED BY IDOCK:   -3.41 KCAL/MOL
REMARK 923 INTER-LIGAND FREE ENERGY PREDICTED BY IDOCK:   -3.08 KCAL/MOL
REMARK 924 INTRA-LIGAND FREE ENERGY PREDICTED BY IDOCK:   -0.33 KCAL/MOL
REMARK 927      BINDING AFFINITY PREDICTED BY RF-SCORE:    0.00 PKD
ROOT
HETATM    1  C   UNL     1     -10.932  15.896  65.660  1.00  0.00    -0.207 C  
HETATM    2  C   UNL     1      -9.872  14.851  65.352  1.00  0.00    -0.303 C  
ENDROOT
BRANCH   2   3
HETATM    3  C   UNL     1     -10.145  13.545  66.091  1.00  0.00    -0.307 C  
BRANCH   3   4
HETATM    4  C   UNL     1     -10.456  12.408  65.124  1.00  0.00    -0.292 C  
BRANCH   4   5
HETATM    5  O   UNL     1      -9.465  11.396  65.289  1.00  0.00    -0.225 OA 
BRANCH   5   6
HETATM    6  C   UNL     1     -10.045  10.093  65.280  1.00  0.00    -0.274 C  
BRANCH   6   7
HETATM    7  C   UNL     1      -9.508   9.299  66.444  1.00  0.00    -0.277 A  
HETATM    8  C   UNL     1      -9.412   7.897  66.358  1.00  0.00    -0.258 A  
HETATM    9  C   UNL     1      -8.974   7.148  67.451  1.00  0.00    -0.122 A  
HETATM   10  C   UNL     1      -8.625   7.818  68.629  1.00  0.00    -0.129 A  
HETATM   11  H   UNL     1      -7.965   7.566  70.524  1.00  0.00     0.000 HD 
HETATM   12  C   UNL     1      -8.697   9.202  68.729  1.00  0.00    -0.132 A  
HETATM   13  C   UNL     1      -9.143   9.943  67.636  1.00  0.00    -0.140 A  
HETATM   14  O   UNL     1      -8.203   7.112  69.724  1.00  0.00    -0.127 OA 
BRANCH   9  15
HETATM   15  O   UNL     1      -8.857   5.783  67.504  1.00  0.00    -0.109 OA 
HETATM   16  C   UNL     1     -10.041   5.035  67.249  1.00  0.00    -0.184 C  
ENDBRANCH   9  15
ENDBRANCH   6   7
ENDBRANCH   5   6
ENDBRANCH   4   5
ENDBRANCH   3   4
ENDBRANCH   2   3
TORSDOF 6
ENDMDL
MODEL      252
REMARK 921   NORMALIZED FREE ENERGY PREDICTED BY IDOCK:   -2.27 KCAL/MOL
REMARK 922        TOTAL FREE ENERGY PREDICTED BY IDOCK:   -3.38 KCAL/MOL
REMARK 923 INTER-LIGAND FREE ENERGY PREDICTED BY IDOCK:   -3.21 KCAL/MOL
REMARK 924 INTRA-LIGAND FREE ENERGY PREDICTED BY IDOCK:   -0.17 KCAL/MOL
REMARK 927      BINDING AFFINITY PREDICTED BY RF-SCORE:    0.00 PKD
ROOT
HETATM    1  C   UNL     1      -8.103   3.645  65.821  1.00  0.00    -0.093 C  
HETATM    2  C   UNL     1      -8.338   5.084  65.390  1.00  0.00    -0.132 C  
ENDROOT
BRANCH   2   3
HETATM    3  C   UNL     1      -9.488   5.718  66.167  1.00  0.00    -0.144 C  
BRANCH   3   4
HETATM    4  C   UNL     1      -9.072   7.039  66.804  1.00  0.00    -0.143 C  
BRANCH   4   5
HETATM    5  O   UNL     1      -9.883   8.076  66.255  1.00  0.00    -0.195 OA 
BRANCH   5   6
HETATM    6  C   UNL     1     -10.513   8.842  67.280  1.00  0.00    -0.277 C  
BRANCH   6   7
HETATM    7  C   UNL     1     -10.015  10.264  67.219  1.00  0.00    -0.233 A  
HETATM    8  C   UNL     1     -10.920  11.321  67.006  1.00  0.00    -0.352 A  
HETATM    9  C   UNL     1     -10.462  12.634  66.888  1.00  0.00    -0.233 A  
HETATM   10  C   UNL     1      -9.089  12.879  66.994  1.00  0.00    -0.228 A  
HETATM   11  H   UNL     1      -7.673  14.322  66.942  1.00  0.00     0.000 HD 
HETATM   12  C   UNL     1      -8.180  11.853  67.219  1.00  0.00    -0.170 A  
HETATM   13  C   UNL     1      -8.644  10.543  67.328  1.00  0.00    -0.122 A  
HETATM   14  O   UNL     1      -8.605  14.155  66.869  1.00  0.00    -0.204 OA 
BRANCH   9  15
HETATM   15  O   UNL     1     -11.234  13.744  66.660  1.00  0.00    -0.306 OA 
HETATM   16  C   UNL     1     -11.905  14.292  67.789  1.00  0.00    -0.379 C  
ENDBRANCH   9  15
ENDBRANCH   6   7
ENDBRANCH   5   6
ENDBRANCH   4   5
ENDBRANCH   3   4
ENDBRANCH   2   3
TORSDOF 6
ENDMDL
MODEL      253
REMARK 921   NORMALIZED FREE ENERGY PREDICTED BY IDOCK:   -2.26 KCAL/MOL
REMARK 922        TOTAL FREE ENERGY PREDICTED BY IDOCK:   -3.38 KCAL/MOL
REMARK 923 INTER-LIGAND FREE ENERGY PREDICTED BY IDOCK:   -3.07 KCAL/MOL
REMARK 924 INTRA-LIGAND FREE ENERGY PREDICTED BY IDOCK:   -0.30 KCAL/MOL
REMARK 927      BINDING AFFINITY PREDICTED BY RF-SCORE:    0.00 PKD
ROOT
HETATM    1  C   UNL     1      -8.886  11.373  65.978  1.00  0.00    -0.177 C  
HETATM    2  C   UNL     1      -9.933  10.469  66.610  1.00  0.00    -0.260 C  
ENDROOT
BRANCH   2   3
HETATM    3  C   UNL     1      -9.699  10.308  68.109  1.00  0.00    -0.158 C  
BRANCH   3   4
HETATM    4  C   UNL     1     -10.999  10.433  68.895  1.00  0.00    -0.245 C  
BRANCH   4   5
HETATM    5  O   UNL     1     -10.843   9.739  70.132  1.00  0.00    -0.247 OA 
BRANCH   5   6
HETATM    6  C   UNL     1     -11.123   8.348  69.987  1.00  0.00    -0.148 C  
BRANCH   6   7
HETATM    7  C   UNL     1     -10.542   7.597  71.158  1.00  0.00    -0.235 A  
HETATM    8  C   UNL     1      -9.867   6.379  70.950  1.00  0.00    -0.204 A  
HETATM    9  C   UNL     1      -9.378   5.646  72.033  1.00  0.00    -0.150 A  
HETATM   10  C   UNL     1      -9.564   6.149  73.325  1.00  0.00    -0.147 A  
HETATM   11  H   UNL     1      -9.235   5.789  75.287  1.00  0.00     0.000 HD 
HETATM   12  C   UNL     1     -10.214   7.356  73.550  1.00  0.00    -0.400 A  
HETATM   13  C   UNL     1     -10.706   8.079  72.465  1.00  0.00    -0.407 A  
HETATM   14  O   UNL     1      -9.109   5.448  74.409  1.00  0.00    -0.117 OA 
BRANCH   9  15
HETATM   15  O   UNL     1      -8.725   4.441  71.968  1.00  0.00    -0.110 OA 
HETATM   16  C   UNL     1      -8.324   4.008  70.673  1.00  0.00    -0.069 C  
ENDBRANCH   9  15
ENDBRANCH   6   7
ENDBRANCH   5   6
ENDBRANCH   4   5
ENDBRANCH   3   4
ENDBRANCH   2   3
TORSDOF 6
ENDMDL
MODEL      254
REMARK 921   NORMALIZED FREE ENERGY PREDICTED BY IDOCK:   -2.25 KCAL/MOL
REMARK 922        TOTAL FREE ENERGY PREDICTED BY IDOCK:   -3.36 KCAL/MOL
REMARK 923 INTER-LIGAND FREE ENERGY PREDICTED BY IDOCK:   -3.09 KCAL/MOL
REMARK 924 INTRA-LIGAND FREE ENERGY PREDICTED BY IDOCK:   -0.27 KCAL/MOL
REMARK 927      BINDING AFFINITY PREDICTED BY RF-SCORE:    0.00 PKD
ROOT
HETATM    1  C   UNL     1      -6.669   4.744  67.325  1.00  0.00    -0.055 C  
HETATM    2  C   UNL     1      -7.343   4.624  68.683  1.00  0.00    -0.061 C  
ENDROOT
BRANCH   2   3
HETATM    3  C   UNL     1      -7.891   5.969  69.153  1.00  0.00    -0.099 C  
BRANCH   3   4
HETATM    4  C   UNL     1      -9.164   5.798  69.975  1.00  0.00    -0.146 C  
BRANCH   4   5
HETATM    5  O   UNL     1      -9.706   7.091  70.235  1.00  0.00    -0.175 OA 
BRANCH   5   6
HETATM    6  C   UNL     1      -9.001   8.104  69.521  1.00  0.00    -0.151 C  
BRANCH   6   7
HETATM    7  C   UNL     1      -9.941   9.239  69.203  1.00  0.00    -0.181 A  
HETATM    8  C   UNL     1     -10.096   9.678  67.874  1.00  0.00    -0.222 A  
HETATM    9  C   UNL     1     -10.918  10.766  67.578  1.00  0.00    -0.312 A  
HETATM   10  C   UNL     1     -11.590  11.406  68.625  1.00  0.00    -0.320 A  
HETATM   11  H   UNL     1     -12.851  12.920  69.080  1.00  0.00     0.000 HD 
HETATM   12  C   UNL     1     -11.463  10.980  69.941  1.00  0.00    -0.400 A  
HETATM   13  C   UNL     1     -10.635   9.897  70.231  1.00  0.00    -0.359 A  
HETATM   14  O   UNL     1     -12.394  12.485  68.370  1.00  0.00    -0.089 OA 
BRANCH   9  15
HETATM   15  O   UNL     1     -11.136  11.302  66.335  1.00  0.00    -0.276 OA 
HETATM   16  C   UNL     1     -10.217  12.300  65.905  1.00  0.00    -0.249 C  
ENDBRANCH   9  15
ENDBRANCH   6   7
ENDBRANCH   5   6
ENDBRANCH   4   5
ENDBRANCH   3   4
ENDBRANCH   2   3
TORSDOF 6
ENDMDL
MODEL      255
REMARK 921   NORMALIZED FREE ENERGY PREDICTED BY IDOCK:   -2.25 KCAL/MOL
REMARK 922        TOTAL FREE ENERGY PREDICTED BY IDOCK:   -3.35 KCAL/MOL
REMARK 923 INTER-LIGAND FREE ENERGY PREDICTED BY IDOCK:   -3.10 KCAL/MOL
REMARK 924 INTRA-LIGAND FREE ENERGY PREDICTED BY IDOCK:   -0.25 KCAL/MOL
REMARK 927      BINDING AFFINITY PREDICTED BY RF-SCORE:    0.00 PKD
ROOT
HETATM    1  C   UNL     1     -10.719   9.161  67.147  1.00  0.00    -0.213 C  
HETATM    2  C   UNL     1      -9.584   9.999  66.581  1.00  0.00    -0.234 C  
ENDROOT
BRANCH   2   3
HETATM    3  C   UNL     1      -8.811  10.712  67.687  1.00  0.00    -0.131 C  
BRANCH   3   4
HETATM    4  C   UNL     1      -9.673  11.753  68.392  1.00  0.00    -0.197 C  
BRANCH   4   5
HETATM    5  O   UNL     1      -9.684  12.937  67.597  1.00  0.00    -0.202 OA 
BRANCH   5   6
HETATM    6  C   UNL     1     -10.726  13.824  68.000  1.00  0.00    -0.250 C  
BRANCH   6   7
HETATM    7  C   UNL     1     -10.718  15.042  67.110  1.00  0.00    -0.303 A  
HETATM    8  C   UNL     1     -10.505  16.319  67.663  1.00  0.00    -0.295 A  
HETATM    9  C   UNL     1     -10.555  17.457  66.858  1.00  0.00    -0.216 A  
HETATM   10  C   UNL     1     -10.813  17.304  65.491  1.00  0.00    -0.023 A  
HETATM   11  H   UNL     1     -11.056  18.297  63.747  1.00  0.00     0.000 HD 
HETATM   12  C   UNL     1     -11.010  16.051  64.923  1.00  0.00    -0.399 A  
HETATM   13  C   UNL     1     -10.967  14.919  65.735  1.00  0.00    -0.345 A  
HETATM   14  O   UNL     1     -10.882  18.401  64.675  1.00  0.00    -0.044 OA 
BRANCH   9  15
HETATM   15  O   UNL     1     -10.387  18.753  67.274  1.00  0.00    -0.369 OA 
HETATM   16  C   UNL     1     -10.607  19.007  68.657  1.00  0.00     0.123 C  
ENDBRANCH   9  15
ENDBRANCH   6   7
ENDBRANCH   5   6
ENDBRANCH   4   5
ENDBRANCH   3   4
ENDBRANCH   2   3
TORSDOF 6
ENDMDL
MODEL      256
REMARK 921   NORMALIZED FREE ENERGY PREDICTED BY IDOCK:   -2.25 KCAL/MOL
REMARK 922        TOTAL FREE ENERGY PREDICTED BY IDOCK:   -3.35 KCAL/MOL
REMARK 923 INTER-LIGAND FREE ENERGY PREDICTED BY IDOCK:   -3.06 KCAL/MOL
REMARK 924 INTRA-LIGAND FREE ENERGY PREDICTED BY IDOCK:   -0.29 KCAL/MOL
REMARK 927      BINDING AFFINITY PREDICTED BY RF-SCORE:    0.00 PKD
ROOT
HETATM    1  C   UNL     1      -6.676   9.913  70.538  1.00  0.00    -0.124 C  
HETATM    2  C   UNL     1      -6.923  10.719  69.273  1.00  0.00    -0.102 C  
ENDROOT
BRANCH   2   3
HETATM    3  C   UNL     1      -6.198  12.061  69.316  1.00  0.00    -0.096 C  
BRANCH   3   4
HETATM    4  C   UNL     1      -6.644  12.976  68.181  1.00  0.00    -0.103 C  
BRANCH   4   5
HETATM    5  O   UNL     1      -5.869  14.171  68.239  1.00  0.00    -0.097 OA 
BRANCH   5   6
HETATM    6  C   UNL     1      -6.113  14.893  69.444  1.00  0.00    -0.109 C  
BRANCH   6   7
HETATM    7  C   UNL     1      -7.073  16.022  69.165  1.00  0.00    -0.197 A  
HETATM    8  C   UNL     1      -8.462  15.800  69.230  1.00  0.00    -0.258 A  
HETATM    9  C   UNL     1      -9.359  16.822  68.914  1.00  0.00    -0.233 A  
HETATM   10  C   UNL     1      -8.851  18.072  68.542  1.00  0.00    -0.295 A  
HETATM   11  H   UNL     1      -9.358  19.941  67.962  1.00  0.00     0.000 HD 
HETATM   12  C   UNL     1      -7.484  18.316  68.488  1.00  0.00    -0.300 A  
HETATM   13  C   UNL     1      -6.594  17.288  68.797  1.00  0.00    -0.197 A  
HETATM   14  O   UNL     1      -9.703  19.092  68.214  1.00  0.00    -0.327 OA 
BRANCH   9  15
HETATM   15  O   UNL     1     -10.727  16.730  68.917  1.00  0.00    -0.315 OA 
HETATM   16  C   UNL     1     -11.296  15.737  68.070  1.00  0.00    -0.310 C  
ENDBRANCH   9  15
ENDBRANCH   6   7
ENDBRANCH   5   6
ENDBRANCH   4   5
ENDBRANCH   3   4
ENDBRANCH   2   3
TORSDOF 6
ENDMDL
MODEL      257
REMARK 921   NORMALIZED FREE ENERGY PREDICTED BY IDOCK:   -2.22 KCAL/MOL
REMARK 922        TOTAL FREE ENERGY PREDICTED BY IDOCK:   -3.32 KCAL/MOL
REMARK 923 INTER-LIGAND FREE ENERGY PREDICTED BY IDOCK:   -3.08 KCAL/MOL
REMARK 924 INTRA-LIGAND FREE ENERGY PREDICTED BY IDOCK:   -0.24 KCAL/MOL
REMARK 927      BINDING AFFINITY PREDICTED BY RF-SCORE:    0.00 PKD
ROOT
HETATM    1  C   UNL     1      -7.654  18.256  68.595  1.00  0.00    -0.311 C  
HETATM    2  C   UNL     1      -9.085  17.868  68.257  1.00  0.00    -0.280 C  
ENDROOT
BRANCH   2   3
HETATM    3  C   UNL     1      -9.240  17.550  66.773  1.00  0.00    -0.277 C  
BRANCH   3   4
HETATM    4  C   UNL     1      -8.912  16.092  66.475  1.00  0.00    -0.292 C  
BRANCH   4   5
HETATM    5  O   UNL     1      -9.469  15.287  67.512  1.00  0.00    -0.200 OA 
BRANCH   5   6
HETATM    6  C   UNL     1      -8.466  14.515  68.169  1.00  0.00    -0.157 C  
BRANCH   6   7
HETATM    7  C   UNL     1      -8.205  13.257  67.379  1.00  0.00    -0.185 A  
HETATM    8  C   UNL     1      -9.274  12.567  66.776  1.00  0.00    -0.217 A  
HETATM    9  C   UNL     1      -9.050  11.370  66.094  1.00  0.00    -0.207 A  
HETATM   10  C   UNL     1      -7.744  10.875  66.014  1.00  0.00    -0.107 A  
HETATM   11  H   UNL     1      -6.605   9.361  65.308  1.00  0.00     0.000 HD 
HETATM   12  C   UNL     1      -6.673  11.549  66.588  1.00  0.00    -0.077 A  
HETATM   13  C   UNL     1      -6.905  12.740  67.275  1.00  0.00    -0.087 A  
HETATM   14  O   UNL     1      -7.492   9.697  65.363  1.00  0.00    -0.103 OA 
BRANCH   9  15
HETATM   15  O   UNL     1     -10.003  10.594  65.485  1.00  0.00    -0.241 OA 
HETATM   16  C   UNL     1     -10.634  11.150  64.337  1.00  0.00    -0.343 C  
ENDBRANCH   9  15
ENDBRANCH   6   7
ENDBRANCH   5   6
ENDBRANCH   4   5
ENDBRANCH   3   4
ENDBRANCH   2   3
TORSDOF 6
ENDMDL
MODEL      258
REMARK 921   NORMALIZED FREE ENERGY PREDICTED BY IDOCK:   -2.21 KCAL/MOL
REMARK 922        TOTAL FREE ENERGY PREDICTED BY IDOCK:   -3.31 KCAL/MOL
REMARK 923 INTER-LIGAND FREE ENERGY PREDICTED BY IDOCK:   -3.06 KCAL/MOL
REMARK 924 INTRA-LIGAND FREE ENERGY PREDICTED BY IDOCK:   -0.25 KCAL/MOL
REMARK 927      BINDING AFFINITY PREDICTED BY RF-SCORE:    0.00 PKD
ROOT
HETATM    1  C   UNL     1     -11.626  12.109  66.358  1.00  0.00    -0.429 C  
HETATM    2  C   UNL     1     -10.730  12.892  67.305  1.00  0.00    -0.260 C  
ENDROOT
BRANCH   2   3
HETATM    3  C   UNL     1     -10.592  12.188  68.652  1.00  0.00    -0.248 C  
BRANCH   3   4
HETATM    4  C   UNL     1      -9.482  11.144  68.627  1.00  0.00    -0.193 C  
BRANCH   4   5
HETATM    5  O   UNL     1     -10.048   9.881  68.975  1.00  0.00    -0.172 OA 
BRANCH   5   6
HETATM    6  C   UNL     1      -9.106   8.824  68.806  1.00  0.00    -0.138 C  
BRANCH   6   7
HETATM    7  C   UNL     1      -9.490   7.665  69.689  1.00  0.00    -0.156 A  
HETATM    8  C   UNL     1      -8.553   7.119  70.587  1.00  0.00    -0.143 A  
HETATM    9  C   UNL     1      -8.880   6.008  71.365  1.00  0.00    -0.136 A  
HETATM   10  C   UNL     1     -10.159   5.453  71.243  1.00  0.00    -0.209 A  
HETATM   11  H   UNL     1     -11.376   3.979  71.900  1.00  0.00     0.000 HD 
HETATM   12  C   UNL     1     -11.104   5.986  70.375  1.00  0.00    -0.399 A  
HETATM   13  C   UNL     1     -10.768   7.091  69.594  1.00  0.00    -0.265 A  
HETATM   14  O   UNL     1     -10.508   4.355  71.982  1.00  0.00    -0.155 OA 
BRANCH   9  15
HETATM   15  O   UNL     1      -8.055   5.371  72.256  1.00  0.00    -0.105 OA 
HETATM   16  C   UNL     1      -6.860   4.812  71.725  1.00  0.00    -0.051 C  
ENDBRANCH   9  15
ENDBRANCH   6   7
ENDBRANCH   5   6
ENDBRANCH   4   5
ENDBRANCH   3   4
ENDBRANCH   2   3
TORSDOF 6
ENDMDL
MODEL      259
REMARK 921   NORMALIZED FREE ENERGY PREDICTED BY IDOCK:   -2.21 KCAL/MOL
REMARK 922        TOTAL FREE ENERGY PREDICTED BY IDOCK:   -3.30 KCAL/MOL
REMARK 923 INTER-LIGAND FREE ENERGY PREDICTED BY IDOCK:   -2.97 KCAL/MOL
REMARK 924 INTRA-LIGAND FREE ENERGY PREDICTED BY IDOCK:   -0.32 KCAL/MOL
REMARK 927      BINDING AFFINITY PREDICTED BY RF-SCORE:    0.00 PKD
ROOT
HETATM    1  C   UNL     1     -11.371  15.194  64.830  1.00  0.00    -0.399 C  
HETATM    2  C   UNL     1     -10.569  14.043  65.417  1.00  0.00    -0.351 C  
ENDROOT
BRANCH   2   3
HETATM    3  C   UNL     1     -11.117  12.693  64.964  1.00  0.00    -0.326 C  
BRANCH   3   4
HETATM    4  C   UNL     1      -9.996  11.729  64.594  1.00  0.00    -0.243 C  
BRANCH   4   5
HETATM    5  O   UNL     1     -10.341  10.433  65.080  1.00  0.00    -0.306 OA 
BRANCH   5   6
HETATM    6  C   UNL     1      -9.204   9.758  65.613  1.00  0.00    -0.199 C  
BRANCH   6   7
HETATM    7  C   UNL     1      -9.498   9.323  67.027  1.00  0.00    -0.205 A  
HETATM    8  C   UNL     1      -8.482   9.351  68.001  1.00  0.00    -0.120 A  
HETATM    9  C   UNL     1      -8.729   8.893  69.296  1.00  0.00    -0.138 A  
HETATM   10  C   UNL     1     -10.006   8.415  69.609  1.00  0.00    -0.193 A  
HETATM   11  H   UNL     1     -11.145   7.623  71.080  1.00  0.00     0.000 HD 
HETATM   12  C   UNL     1     -11.027   8.394  68.667  1.00  0.00     0.153 A  
HETATM   13  C   UNL     1     -10.771   8.845  67.373  1.00  0.00    -0.225 A  
HETATM   14  O   UNL     1     -10.278   7.947  70.867  1.00  0.00    -0.198 OA 
BRANCH   9  15
HETATM   15  O   UNL     1      -7.824   8.847  70.326  1.00  0.00    -0.083 OA 
HETATM   16  C   UNL     1      -6.881   9.911  70.387  1.00  0.00    -0.140 C  
ENDBRANCH   9  15
ENDBRANCH   6   7
ENDBRANCH   5   6
ENDBRANCH   4   5
ENDBRANCH   3   4
ENDBRANCH   2   3
TORSDOF 6
ENDMDL
MODEL      260
REMARK 921   NORMALIZED FREE ENERGY PREDICTED BY IDOCK:   -2.19 KCAL/MOL
REMARK 922        TOTAL FREE ENERGY PREDICTED BY IDOCK:   -3.28 KCAL/MOL
REMARK 923 INTER-LIGAND FREE ENERGY PREDICTED BY IDOCK:   -2.86 KCAL/MOL
REMARK 924 INTRA-LIGAND FREE ENERGY PREDICTED BY IDOCK:   -0.42 KCAL/MOL
REMARK 927      BINDING AFFINITY PREDICTED BY RF-SCORE:    0.00 PKD
ROOT
HETATM    1  C   UNL     1      -9.377   3.175  70.314  1.00  0.00    -0.236 C  
HETATM    2  C   UNL     1      -9.191   4.505  69.601  1.00  0.00    -0.195 C  
ENDROOT
BRANCH   2   3
HETATM    3  C   UNL     1     -10.282   4.736  68.559  1.00  0.00    -0.054 C  
BRANCH   3   4
HETATM    4  C   UNL     1     -11.081   6.000  68.854  1.00  0.00    -0.279 C  
BRANCH   4   5
HETATM    5  O   UNL     1     -11.247   6.104  70.267  1.00  0.00    -0.343 OA 
BRANCH   5   6
HETATM    6  C   UNL     1     -11.480   7.453  70.666  1.00  0.00    -0.282 C  
BRANCH   6   7
HETATM    7  C   UNL     1     -10.259   8.283  70.360  1.00  0.00    -0.209 A  
HETATM    8  C   UNL     1      -9.106   8.164  71.158  1.00  0.00    -0.183 A  
HETATM    9  C   UNL     1      -7.992   8.971  70.920  1.00  0.00    -0.164 A  
HETATM   10  C   UNL     1      -8.042   9.893  69.868  1.00  0.00    -0.188 A  
HETATM   11  H   UNL     1      -7.005  11.335  68.902  1.00  0.00     0.000 HD 
HETATM   12  C   UNL     1      -9.164  10.016  69.059  1.00  0.00    -0.180 A  
HETATM   13  C   UNL     1     -10.276   9.212  69.308  1.00  0.00    -0.215 A  
HETATM   14  O   UNL     1      -6.971  10.709  69.616  1.00  0.00    -0.105 OA 
BRANCH   9  15
HETATM   15  O   UNL     1      -6.822   8.968  71.634  1.00  0.00    -0.191 OA 
HETATM   16  C   UNL     1      -6.060   7.767  71.597  1.00  0.00    -0.035 C  
ENDBRANCH   9  15
ENDBRANCH   6   7
ENDBRANCH   5   6
ENDBRANCH   4   5
ENDBRANCH   3   4
ENDBRANCH   2   3
TORSDOF 6
ENDMDL
MODEL      261
REMARK 921   NORMALIZED FREE ENERGY PREDICTED BY IDOCK:   -2.17 KCAL/MOL
REMARK 922        TOTAL FREE ENERGY PREDICTED BY IDOCK:   -3.24 KCAL/MOL
REMARK 923 INTER-LIGAND FREE ENERGY PREDICTED BY IDOCK:   -2.59 KCAL/MOL
REMARK 924 INTRA-LIGAND FREE ENERGY PREDICTED BY IDOCK:   -0.65 KCAL/MOL
REMARK 927      BINDING AFFINITY PREDICTED BY RF-SCORE:    0.00 PKD
ROOT
HETATM    1  C   UNL     1      -8.532  10.014  69.168  1.00  0.00    -0.156 C  
HETATM    2  C   UNL     1      -8.106   9.448  67.822  1.00  0.00    -0.107 C  
ENDROOT
BRANCH   2   3
HETATM    3  C   UNL     1      -9.082   8.383  67.330  1.00  0.00    -0.152 C  
BRANCH   3   4
HETATM    4  C   UNL     1     -10.527   8.860  67.427  1.00  0.00    -0.277 C  
BRANCH   4   5
HETATM    5  O   UNL     1     -10.722   9.897  66.467  1.00  0.00    -0.130 OA 
BRANCH   5   6
HETATM    6  C   UNL     1     -11.595  10.909  66.964  1.00  0.00     0.334 C  
BRANCH   6   7
HETATM    7  C   UNL     1     -10.905  12.248  66.885  1.00  0.00    -0.290 A  
HETATM    8  C   UNL     1     -11.396  13.341  67.624  1.00  0.00    -0.328 A  
HETATM    9  C   UNL     1     -10.802  14.598  67.511  1.00  0.00    -0.286 A  
HETATM   10  C   UNL     1      -9.704  14.749  66.656  1.00  0.00    -0.267 A  
HETATM   11  H   UNL     1      -8.360  16.074  65.933  1.00  0.00     0.000 HD 
HETATM   12  C   UNL     1      -9.194  13.680  65.930  1.00  0.00     0.170 A  
HETATM   13  C   UNL     1      -9.798  12.428  66.042  1.00  0.00    -0.268 A  
HETATM   14  O   UNL     1      -9.105  15.972  66.512  1.00  0.00    -0.232 OA 
BRANCH   9  15
HETATM   15  O   UNL     1     -11.195  15.742  68.156  1.00  0.00    -0.329 OA 
HETATM   16  C   UNL     1     -10.610  15.984  69.430  1.00  0.00    -0.275 C  
ENDBRANCH   9  15
ENDBRANCH   6   7
ENDBRANCH   5   6
ENDBRANCH   4   5
ENDBRANCH   3   4
ENDBRANCH   2   3
TORSDOF 6
ENDMDL
MODEL      262
REMARK 921   NORMALIZED FREE ENERGY PREDICTED BY IDOCK:   -2.16 KCAL/MOL
REMARK 922        TOTAL FREE ENERGY PREDICTED BY IDOCK:   -3.23 KCAL/MOL
REMARK 923 INTER-LIGAND FREE ENERGY PREDICTED BY IDOCK:   -2.67 KCAL/MOL
REMARK 924 INTRA-LIGAND FREE ENERGY PREDICTED BY IDOCK:   -0.57 KCAL/MOL
REMARK 927      BINDING AFFINITY PREDICTED BY RF-SCORE:    0.00 PKD
ROOT
HETATM    1  C   UNL     1      -8.264   8.560  69.476  1.00  0.00    -0.116 C  
HETATM    2  C   UNL     1      -8.605   8.510  67.995  1.00  0.00    -0.134 C  
ENDROOT
BRANCH   2   3
HETATM    3  C   UNL     1      -9.047   7.112  67.571  1.00  0.00    -0.123 C  
BRANCH   3   4
HETATM    4  C   UNL     1     -10.556   6.942  67.692  1.00  0.00    -0.261 C  
BRANCH   4   5
HETATM    5  O   UNL     1     -10.814   5.846  68.568  1.00  0.00    -0.267 OA 
BRANCH   5   6
HETATM    6  C   UNL     1      -9.611   5.170  68.925  1.00  0.00    -0.144 C  
BRANCH   6   7
HETATM    7  C   UNL     1      -9.649   4.821  70.392  1.00  0.00    -0.267 A  
HETATM    8  C   UNL     1      -9.545   5.836  71.362  1.00  0.00    -0.188 A  
HETATM    9  C   UNL     1      -9.519   5.518  72.721  1.00  0.00    -0.148 A  
HETATM   10  C   UNL     1      -9.607   4.173  73.099  1.00  0.00    -0.120 A  
HETATM   11  H   UNL     1      -9.631   2.913  74.680  1.00  0.00     0.000 HD 
HETATM   12  C   UNL     1      -9.726   3.158  72.158  1.00  0.00    -0.230 A  
HETATM   13  C   UNL     1      -9.743   3.483  70.802  1.00  0.00    -0.207 A  
HETATM   14  O   UNL     1      -9.571   3.826  74.423  1.00  0.00    -0.102 OA 
BRANCH   9  15
HETATM   15  O   UNL     1      -9.400   6.405  73.759  1.00  0.00    -0.129 OA 
HETATM   16  C   UNL     1      -8.955   7.715  73.425  1.00  0.00    -0.227 C  
ENDBRANCH   9  15
ENDBRANCH   6   7
ENDBRANCH   5   6
ENDBRANCH   4   5
ENDBRANCH   3   4
ENDBRANCH   2   3
TORSDOF 6
ENDMDL
MODEL      263
REMARK 921   NORMALIZED FREE ENERGY PREDICTED BY IDOCK:   -2.15 KCAL/MOL
REMARK 922        TOTAL FREE ENERGY PREDICTED BY IDOCK:   -3.22 KCAL/MOL
REMARK 923 INTER-LIGAND FREE ENERGY PREDICTED BY IDOCK:   -3.03 KCAL/MOL
REMARK 924 INTRA-LIGAND FREE ENERGY PREDICTED BY IDOCK:   -0.20 KCAL/MOL
REMARK 927      BINDING AFFINITY PREDICTED BY RF-SCORE:    0.00 PKD
ROOT
HETATM    1  C   UNL     1      -6.301   3.306  64.322  1.00  0.00    -0.023 C  
HETATM    2  C   UNL     1      -6.335   4.826  64.320  1.00  0.00    -0.033 C  
ENDROOT
BRANCH   2   3
HETATM    3  C   UNL     1      -7.322   5.363  65.352  1.00  0.00    -0.069 C  
BRANCH   3   4
HETATM    4  C   UNL     1      -7.784   4.269  66.307  1.00  0.00    -0.094 C  
BRANCH   4   5
HETATM    5  O   UNL     1      -8.966   4.720  66.967  1.00  0.00    -0.110 OA 
BRANCH   5   6
HETATM    6  C   UNL     1      -9.291   3.889  68.080  1.00  0.00    -0.174 C  
BRANCH   6   7
HETATM    7  C   UNL     1      -9.907   4.730  69.169  1.00  0.00    -0.254 A  
HETATM    8  C   UNL     1      -9.733   4.374  70.520  1.00  0.00    -0.287 A  
HETATM    9  C   UNL     1     -10.350   5.111  71.532  1.00  0.00    -0.208 A  
HETATM   10  C   UNL     1     -11.136   6.213  71.178  1.00  0.00    -0.298 A  
HETATM   11  H   UNL     1     -12.298   7.698  71.907  1.00  0.00     0.000 HD 
HETATM   12  C   UNL     1     -11.308   6.590  69.853  1.00  0.00    -0.469 A  
HETATM   13  C   UNL     1     -10.695   5.845  68.846  1.00  0.00    -0.370 A  
HETATM   14  O   UNL     1     -11.765   6.950  72.146  1.00  0.00    -0.279 OA 
BRANCH   9  15
HETATM   15  O   UNL     1     -10.278   4.858  72.878  1.00  0.00    -0.160 OA 
HETATM   16  C   UNL     1     -11.195   3.898  73.391  1.00  0.00    -0.199 C  
ENDBRANCH   9  15
ENDBRANCH   6   7
ENDBRANCH   5   6
ENDBRANCH   4   5
ENDBRANCH   3   4
ENDBRANCH   2   3
TORSDOF 6
ENDMDL
MODEL      264
REMARK 921   NORMALIZED FREE ENERGY PREDICTED BY IDOCK:   -2.15 KCAL/MOL
REMARK 922        TOTAL FREE ENERGY PREDICTED BY IDOCK:   -3.22 KCAL/MOL
REMARK 923 INTER-LIGAND FREE ENERGY PREDICTED BY IDOCK:   -2.88 KCAL/MOL
REMARK 924 INTRA-LIGAND FREE ENERGY PREDICTED BY IDOCK:   -0.34 KCAL/MOL
REMARK 927      BINDING AFFINITY PREDICTED BY RF-SCORE:    0.00 PKD
ROOT
HETATM    1  C   UNL     1      -7.955  10.734  65.896  1.00  0.00    -0.140 C  
HETATM    2  C   UNL     1      -8.285   9.250  65.871  1.00  0.00    -0.116 C  
ENDROOT
BRANCH   2   3
HETATM    3  C   UNL     1      -9.728   8.993  66.295  1.00  0.00    -0.345 C  
BRANCH   3   4
HETATM    4  C   UNL     1      -9.798   8.217  67.605  1.00  0.00    -0.169 C  
BRANCH   4   5
HETATM    5  O   UNL     1     -10.949   7.376  67.568  1.00  0.00    -0.204 OA 
BRANCH   5   6
HETATM    6  C   UNL     1     -10.855   6.321  68.523  1.00  0.00    -0.323 C  
BRANCH   6   7
HETATM    7  C   UNL     1     -10.197   5.125  67.883  1.00  0.00    -0.180 A  
HETATM    8  C   UNL     1     -10.314   4.912  66.496  1.00  0.00    -0.311 A  
HETATM    9  C   UNL     1      -9.760   3.776  65.904  1.00  0.00    -0.129 A  
HETATM   10  C   UNL     1      -9.080   2.859  66.713  1.00  0.00    -0.152 A  
HETATM   11  H   UNL     1      -8.074   1.105  66.714  1.00  0.00     0.000 HD 
HETATM   12  C   UNL     1      -8.940   3.058  68.080  1.00  0.00    -0.190 A  
HETATM   13  C   UNL     1      -9.503   4.191  68.667  1.00  0.00    -0.221 A  
HETATM   14  O   UNL     1      -8.536   1.728  66.165  1.00  0.00    -0.101 OA 
BRANCH   9  15
HETATM   15  O   UNL     1      -9.821   3.443  64.575  1.00  0.00    -0.163 OA 
HETATM   16  C   UNL     1      -9.068   4.257  63.683  1.00  0.00    -0.142 C  
ENDBRANCH   9  15
ENDBRANCH   6   7
ENDBRANCH   5   6
ENDBRANCH   4   5
ENDBRANCH   3   4
ENDBRANCH   2   3
TORSDOF 6
ENDMDL
MODEL      265
REMARK 921   NORMALIZED FREE ENERGY PREDICTED BY IDOCK:   -2.14 KCAL/MOL
REMARK 922        TOTAL FREE ENERGY PREDICTED BY IDOCK:   -3.21 KCAL/MOL
REMARK 923 INTER-LIGAND FREE ENERGY PREDICTED BY IDOCK:   -2.98 KCAL/MOL
REMARK 924 INTRA-LIGAND FREE ENERGY PREDICTED BY IDOCK:   -0.23 KCAL/MOL
REMARK 927      BINDING AFFINITY PREDICTED BY RF-SCORE:    0.00 PKD
ROOT
HETATM    1  C   UNL     1      -7.405   9.897  66.123  1.00  0.00    -0.104 C  
HETATM    2  C   UNL     1      -8.318   8.698  66.323  1.00  0.00    -0.124 C  
ENDROOT
BRANCH   2   3
HETATM    3  C   UNL     1      -9.781   9.123  66.424  1.00  0.00    -0.330 C  
BRANCH   3   4
HETATM    4  C   UNL     1      -9.940  10.392  67.253  1.00  0.00    -0.188 C  
BRANCH   4   5
HETATM    5  O   UNL     1     -11.161  10.297  67.986  1.00  0.00    -0.283 OA 
BRANCH   5   6
HETATM    6  C   UNL     1     -10.983  10.686  69.346  1.00  0.00    -0.255 C  
BRANCH   6   7
HETATM    7  C   UNL     1     -10.108   9.675  70.044  1.00  0.00    -0.293 A  
HETATM    8  C   UNL     1     -10.689   8.644  70.806  1.00  0.00    -0.260 A  
HETATM    9  C   UNL     1      -9.887   7.741  71.505  1.00  0.00    -0.167 A  
HETATM   10  C   UNL     1      -8.496   7.874  71.426  1.00  0.00    -0.119 A  
HETATM   11  H   UNL     1      -6.737   7.103  72.057  1.00  0.00     0.000 HD 
HETATM   12  C   UNL     1      -7.903   8.875  70.668  1.00  0.00    -0.124 A  
HETATM   13  C   UNL     1      -8.710   9.779  69.978  1.00  0.00    -0.237 A  
HETATM   14  O   UNL     1      -7.682   7.012  72.110  1.00  0.00    -0.091 OA 
BRANCH   9  15
HETATM   15  O   UNL     1     -10.327   6.710  72.296  1.00  0.00    -0.194 OA 
HETATM   16  C   UNL     1     -11.273   5.822  71.712  1.00  0.00    -0.211 C  
ENDBRANCH   9  15
ENDBRANCH   6   7
ENDBRANCH   5   6
ENDBRANCH   4   5
ENDBRANCH   3   4
ENDBRANCH   2   3
TORSDOF 6
ENDMDL
MODEL      266
REMARK 921   NORMALIZED FREE ENERGY PREDICTED BY IDOCK:   -2.13 KCAL/MOL
REMARK 922        TOTAL FREE ENERGY PREDICTED BY IDOCK:   -3.20 KCAL/MOL
REMARK 923 INTER-LIGAND FREE ENERGY PREDICTED BY IDOCK:   -2.86 KCAL/MOL
REMARK 924 INTRA-LIGAND FREE ENERGY PREDICTED BY IDOCK:   -0.34 KCAL/MOL
REMARK 927      BINDING AFFINITY PREDICTED BY RF-SCORE:    0.00 PKD
ROOT
HETATM    1  C   UNL     1      -6.456  14.229  69.953  1.00  0.00    -0.137 C  
HETATM    2  C   UNL     1      -6.275  15.057  68.690  1.00  0.00    -0.085 C  
ENDROOT
BRANCH   2   3
HETATM    3  C   UNL     1      -6.980  14.416  67.498  1.00  0.00    -0.182 C  
BRANCH   3   4
HETATM    4  C   UNL     1      -8.330  13.830  67.894  1.00  0.00    -0.172 C  
BRANCH   4   5
HETATM    5  O   UNL     1      -8.953  13.308  66.722  1.00  0.00    -0.228 OA 
BRANCH   5   6
HETATM    6  C   UNL     1     -10.171  12.635  67.035  1.00  0.00    -0.226 C  
BRANCH   6   7
HETATM    7  C   UNL     1      -9.857  11.308  67.679  1.00  0.00    -0.190 A  
HETATM    8  C   UNL     1     -10.323  11.025  68.978  1.00  0.00    -0.229 A  
HETATM    9  C   UNL     1      -9.987   9.825  69.606  1.00  0.00    -0.223 A  
HETATM   10  C   UNL     1      -9.188   8.906  68.917  1.00  0.00    -0.140 A  
HETATM   11  H   UNL     1      -8.288   7.100  69.042  1.00  0.00     0.000 HD 
HETATM   12  C   UNL     1      -8.732   9.158  67.630  1.00  0.00    -0.120 A  
HETATM   13  C   UNL     1      -9.064  10.363  67.011  1.00  0.00    -0.153 A  
HETATM   14  O   UNL     1      -8.830   7.724  69.510  1.00  0.00    -0.138 OA 
BRANCH   9  15
HETATM   15  O   UNL     1     -10.356   9.440  70.869  1.00  0.00    -0.270 OA 
HETATM   16  C   UNL     1     -11.733   9.583  71.197  1.00  0.00    -0.363 C  
ENDBRANCH   9  15
ENDBRANCH   6   7
ENDBRANCH   5   6
ENDBRANCH   4   5
ENDBRANCH   3   4
ENDBRANCH   2   3
TORSDOF 6
ENDMDL
MODEL      267
REMARK 921   NORMALIZED FREE ENERGY PREDICTED BY IDOCK:   -2.13 KCAL/MOL
REMARK 922        TOTAL FREE ENERGY PREDICTED BY IDOCK:   -3.19 KCAL/MOL
REMARK 923 INTER-LIGAND FREE ENERGY PREDICTED BY IDOCK:   -2.93 KCAL/MOL
REMARK 924 INTRA-LIGAND FREE ENERGY PREDICTED BY IDOCK:   -0.27 KCAL/MOL
REMARK 927      BINDING AFFINITY PREDICTED BY RF-SCORE:    0.00 PKD
ROOT
HETATM    1  C   UNL     1     -11.700   9.632  70.006  1.00  0.00    -0.074 C  
HETATM    2  C   UNL     1     -11.815   9.964  71.486  1.00  0.00    -0.445 C  
ENDROOT
BRANCH   2   3
HETATM    3  C   UNL     1     -12.290   8.760  72.292  1.00  0.00    -0.448 C  
BRANCH   3   4
HETATM    4  C   UNL     1     -11.118   7.942  72.822  1.00  0.00    -0.400 C  
BRANCH   4   5
HETATM    5  O   UNL     1     -11.455   6.560  72.722  1.00  0.00    -0.226 OA 
BRANCH   5   6
HETATM    6  C   UNL     1     -11.222   6.061  71.406  1.00  0.00    -0.262 C  
BRANCH   6   7
HETATM    7  C   UNL     1     -10.146   5.005  71.454  1.00  0.00    -0.268 A  
HETATM    8  C   UNL     1      -9.802   4.294  70.289  1.00  0.00    -0.263 A  
HETATM    9  C   UNL     1      -8.851   3.274  70.336  1.00  0.00    -0.084 A  
HETATM   10  C   UNL     1      -8.242   2.978  71.561  1.00  0.00    -0.060 A  
HETATM   11  H   UNL     1      -6.900   1.774  72.475  1.00  0.00     0.000 HD 
HETATM   12  C   UNL     1      -8.556   3.678  72.719  1.00  0.00    -0.093 A  
HETATM   13  C   UNL     1      -9.512   4.691  72.666  1.00  0.00    -0.163 A  
HETATM   14  O   UNL     1      -7.314   1.974  71.644  1.00  0.00    -0.034 OA 
BRANCH   9  15
HETATM   15  O   UNL     1      -8.444   2.496  69.283  1.00  0.00    -0.057 OA 
HETATM   16  C   UNL     1      -7.363   2.997  68.506  1.00  0.00    -0.049 C  
ENDBRANCH   9  15
ENDBRANCH   6   7
ENDBRANCH   5   6
ENDBRANCH   4   5
ENDBRANCH   3   4
ENDBRANCH   2   3
TORSDOF 6
ENDMDL
MODEL      268
REMARK 921   NORMALIZED FREE ENERGY PREDICTED BY IDOCK:   -2.12 KCAL/MOL
REMARK 922        TOTAL FREE ENERGY PREDICTED BY IDOCK:   -3.19 KCAL/MOL
REMARK 923 INTER-LIGAND FREE ENERGY PREDICTED BY IDOCK:   -2.93 KCAL/MOL
REMARK 924 INTRA-LIGAND FREE ENERGY PREDICTED BY IDOCK:   -0.26 KCAL/MOL
REMARK 927      BINDING AFFINITY PREDICTED BY RF-SCORE:    0.00 PKD
ROOT
HETATM    1  C   UNL     1     -10.523   8.549  67.966  1.00  0.00    -0.249 C  
HETATM    2  C   UNL     1     -10.761   9.663  68.972  1.00  0.00    -0.232 C  
ENDROOT
BRANCH   2   3
HETATM    3  C   UNL     1      -9.539  10.568  69.102  1.00  0.00    -0.214 C  
BRANCH   3   4
HETATM    4  C   UNL     1      -8.342  10.004  68.345  1.00  0.00    -0.111 C  
BRANCH   4   5
HETATM    5  O   UNL     1      -7.469  11.084  68.019  1.00  0.00    -0.086 OA 
BRANCH   5   6
HETATM    6  C   UNL     1      -8.091  12.005  67.126  1.00  0.00    -0.177 C  
BRANCH   6   7
HETATM    7  C   UNL     1      -8.411  11.305  65.829  1.00  0.00     0.023 A  
HETATM    8  C   UNL     1      -9.555  11.668  65.093  1.00  0.00    -0.206 A  
HETATM    9  C   UNL     1      -9.892  10.986  63.924  1.00  0.00    -0.317 A  
HETATM   10  C   UNL     1      -9.066   9.942  63.492  1.00  0.00    -0.256 A  
HETATM   11  H   UNL     1      -8.815   8.535  62.061  1.00  0.00     0.000 HD 
HETATM   12  C   UNL     1      -7.924   9.578  64.194  1.00  0.00    -0.137 A  
HETATM   13  C   UNL     1      -7.598  10.259  65.366  1.00  0.00    -0.146 A  
HETATM   14  O   UNL     1      -9.376   9.244  62.355  1.00  0.00    -0.129 OA 
BRANCH   9  15
HETATM   15  O   UNL     1     -10.986  11.226  63.132  1.00  0.00    -0.220 OA 
HETATM   16  C   UNL     1     -11.679  12.447  63.363  1.00  0.00    -0.472 C  
ENDBRANCH   9  15
ENDBRANCH   6   7
ENDBRANCH   5   6
ENDBRANCH   4   5
ENDBRANCH   3   4
ENDBRANCH   2   3
TORSDOF 6
ENDMDL
MODEL      269
REMARK 921   NORMALIZED FREE ENERGY PREDICTED BY IDOCK:   -2.11 KCAL/MOL
REMARK 922        TOTAL FREE ENERGY PREDICTED BY IDOCK:   -3.16 KCAL/MOL
REMARK 923 INTER-LIGAND FREE ENERGY PREDICTED BY IDOCK:   -2.88 KCAL/MOL
REMARK 924 INTRA-LIGAND FREE ENERGY PREDICTED BY IDOCK:   -0.28 KCAL/MOL
REMARK 927      BINDING AFFINITY PREDICTED BY RF-SCORE:    0.00 PKD
ROOT
HETATM    1  C   UNL     1     -11.807  12.443  66.015  1.00  0.00    -0.459 C  
HETATM    2  C   UNL     1     -10.993  13.416  66.855  1.00  0.00    -0.295 C  
ENDROOT
BRANCH   2   3
HETATM    3  C   UNL     1     -10.448  12.747  68.113  1.00  0.00    -0.244 C  
BRANCH   3   4
HETATM    4  C   UNL     1      -9.160  11.984  67.827  1.00  0.00    -0.187 C  
BRANCH   4   5
HETATM    5  O   UNL     1      -9.427  10.589  67.960  1.00  0.00    -0.145 OA 
BRANCH   5   6
HETATM    6  C   UNL     1      -8.309   9.803  67.550  1.00  0.00    -0.114 C  
BRANCH   6   7
HETATM    7  C   UNL     1      -8.278   8.523  68.347  1.00  0.00    -0.123 A  
HETATM    8  C   UNL     1      -9.463   7.793  68.556  1.00  0.00    -0.148 A  
HETATM    9  C   UNL     1      -9.456   6.640  69.343  1.00  0.00    -0.146 A  
HETATM   10  C   UNL     1      -8.248   6.221  69.911  1.00  0.00    -0.121 A  
HETATM   11  H   UNL     1      -7.389   4.816  71.084  1.00  0.00     0.000 HD 
HETATM   12  C   UNL     1      -7.065   6.918  69.704  1.00  0.00    -0.068 A  
HETATM   13  C   UNL     1      -7.081   8.074  68.924  1.00  0.00    -0.067 A  
HETATM   14  O   UNL     1      -8.209   5.101  70.698  1.00  0.00    -0.102 OA 
BRANCH   9  15
HETATM   15  O   UNL     1     -10.540   5.855  69.640  1.00  0.00    -0.249 OA 
HETATM   16  C   UNL     1     -11.655   6.512  70.231  1.00  0.00    -0.409 C  
ENDBRANCH   9  15
ENDBRANCH   6   7
ENDBRANCH   5   6
ENDBRANCH   4   5
ENDBRANCH   3   4
ENDBRANCH   2   3
TORSDOF 6
ENDMDL
MODEL      270
REMARK 921   NORMALIZED FREE ENERGY PREDICTED BY IDOCK:   -2.10 KCAL/MOL
REMARK 922        TOTAL FREE ENERGY PREDICTED BY IDOCK:   -3.15 KCAL/MOL
REMARK 923 INTER-LIGAND FREE ENERGY PREDICTED BY IDOCK:   -2.97 KCAL/MOL
REMARK 924 INTRA-LIGAND FREE ENERGY PREDICTED BY IDOCK:   -0.19 KCAL/MOL
REMARK 927      BINDING AFFINITY PREDICTED BY RF-SCORE:    0.00 PKD
ROOT
HETATM    1  C   UNL     1      -9.388   9.657  69.475  1.00  0.00    -0.211 C  
HETATM    2  C   UNL     1     -10.662  10.078  70.190  1.00  0.00    -0.361 C  
ENDROOT
BRANCH   2   3
HETATM    3  C   UNL     1     -10.954   9.175  71.385  1.00  0.00    -0.414 C  
BRANCH   3   4
HETATM    4  C   UNL     1      -9.917   8.065  71.516  1.00  0.00    -0.177 C  
BRANCH   4   5
HETATM    5  O   UNL     1     -10.553   6.822  71.225  1.00  0.00    -0.216 OA 
BRANCH   5   6
HETATM    6  C   UNL     1     -11.342   6.371  72.324  1.00  0.00    -0.290 C  
BRANCH   6   7
HETATM    7  C   UNL     1     -10.690   5.160  72.944  1.00  0.00    -0.300 A  
HETATM    8  C   UNL     1      -9.287   5.070  73.012  1.00  0.00    -0.140 A  
HETATM    9  C   UNL     1      -8.674   3.927  73.528  1.00  0.00    -0.090 A  
HETATM   10  C   UNL     1      -9.481   2.879  73.984  1.00  0.00    -0.088 A  
HETATM   11  H   UNL     1      -9.459   1.027  74.795  1.00  0.00     0.000 HD 
HETATM   12  C   UNL     1     -10.867   2.954  73.941  1.00  0.00    -0.291 A  
HETATM   13  C   UNL     1     -11.473   4.095  73.416  1.00  0.00    -0.234 A  
HETATM   14  O   UNL     1      -8.911   1.739  74.485  1.00  0.00    -0.060 OA 
BRANCH   9  15
HETATM   15  O   UNL     1      -7.325   3.707  73.629  1.00  0.00    -0.057 OA 
HETATM   16  C   UNL     1      -6.503   4.359  72.668  1.00  0.00    -0.040 C  
ENDBRANCH   9  15
ENDBRANCH   6   7
ENDBRANCH   5   6
ENDBRANCH   4   5
ENDBRANCH   3   4
ENDBRANCH   2   3
TORSDOF 6
ENDMDL
MODEL      271
REMARK 921   NORMALIZED FREE ENERGY PREDICTED BY IDOCK:   -2.09 KCAL/MOL
REMARK 922        TOTAL FREE ENERGY PREDICTED BY IDOCK:   -3.15 KCAL/MOL
REMARK 923 INTER-LIGAND FREE ENERGY PREDICTED BY IDOCK:   -2.68 KCAL/MOL
REMARK 924 INTRA-LIGAND FREE ENERGY PREDICTED BY IDOCK:   -0.47 KCAL/MOL
REMARK 927      BINDING AFFINITY PREDICTED BY RF-SCORE:    0.00 PKD
ROOT
HETATM    1  C   UNL     1     -10.659   8.786  67.594  1.00  0.00    -0.281 C  
HETATM    2  C   UNL     1      -9.729   8.936  66.401  1.00  0.00    -0.332 C  
ENDROOT
BRANCH   2   3
HETATM    3  C   UNL     1      -8.297   8.546  66.757  1.00  0.00    -0.109 C  
BRANCH   3   4
HETATM    4  C   UNL     1      -7.872   9.140  68.094  1.00  0.00    -0.099 C  
BRANCH   4   5
HETATM    5  O   UNL     1      -7.402   8.080  68.926  1.00  0.00    -0.077 OA 
BRANCH   5   6
HETATM    6  C   UNL     1      -7.815   6.808  68.431  1.00  0.00    -0.114 C  
BRANCH   6   7
HETATM    7  C   UNL     1      -8.518   6.049  69.528  1.00  0.00    -0.119 A  
HETATM    8  C   UNL     1      -8.589   6.589  70.827  1.00  0.00    -0.135 A  
HETATM    9  C   UNL     1      -9.184   5.868  71.863  1.00  0.00    -0.147 A  
HETATM   10  C   UNL     1      -9.715   4.604  71.584  1.00  0.00    -0.172 A  
HETATM   11  H   UNL     1     -10.655   3.006  72.392  1.00  0.00     0.000 HD 
HETATM   12  C   UNL     1      -9.669   4.059  70.307  1.00  0.00    -0.263 A  
HETATM   13  C   UNL     1      -9.066   4.782  69.278  1.00  0.00    -0.152 A  
HETATM   14  O   UNL     1     -10.294   3.865  72.581  1.00  0.00    -0.164 OA 
BRANCH   9  15
HETATM   15  O   UNL     1      -9.299   6.270  73.169  1.00  0.00    -0.136 OA 
HETATM   16  C   UNL     1     -10.413   7.098  73.481  1.00  0.00    -0.380 C  
ENDBRANCH   9  15
ENDBRANCH   6   7
ENDBRANCH   5   6
ENDBRANCH   4   5
ENDBRANCH   3   4
ENDBRANCH   2   3
TORSDOF 6
ENDMDL
MODEL      272
REMARK 921   NORMALIZED FREE ENERGY PREDICTED BY IDOCK:   -2.08 KCAL/MOL
REMARK 922        TOTAL FREE ENERGY PREDICTED BY IDOCK:   -3.13 KCAL/MOL
REMARK 923 INTER-LIGAND FREE ENERGY PREDICTED BY IDOCK:   -2.61 KCAL/MOL
REMARK 924 INTRA-LIGAND FREE ENERGY PREDICTED BY IDOCK:   -0.52 KCAL/MOL
REMARK 927      BINDING AFFINITY PREDICTED BY RF-SCORE:    0.00 PKD
ROOT
HETATM    1  C   UNL     1      -6.948   9.099  69.432  1.00  0.00    -0.052 C  
HETATM    2  C   UNL     1      -7.384   9.618  68.071  1.00  0.00    -0.082 C  
ENDROOT
BRANCH   2   3
HETATM    3  C   UNL     1      -8.440   8.713  67.441  1.00  0.00    -0.123 C  
BRANCH   3   4
HETATM    4  C   UNL     1      -9.835   9.316  67.558  1.00  0.00    -0.175 C  
BRANCH   4   5
HETATM    5  O   UNL     1     -10.733   8.289  67.974  1.00  0.00    -0.162 OA 
BRANCH   5   6
HETATM    6  C   UNL     1     -10.049   7.057  68.196  1.00  0.00    -0.169 C  
BRANCH   6   7
HETATM    7  C   UNL     1     -10.163   6.676  69.650  1.00  0.00    -0.213 A  
HETATM    8  C   UNL     1      -9.003   6.499  70.427  1.00  0.00    -0.152 A  
HETATM    9  C   UNL     1      -9.096   6.087  71.757  1.00  0.00    -0.145 A  
HETATM   10  C   UNL     1     -10.364   5.864  72.305  1.00  0.00    -0.198 A  
HETATM   11  H   UNL     1     -11.351   5.295  73.975  1.00  0.00     0.000 HD 
HETATM   12  C   UNL     1     -11.523   6.048  71.560  1.00  0.00    -0.280 A  
HETATM   13  C   UNL     1     -11.421   6.451  70.230  1.00  0.00    -0.468 A  
HETATM   14  O   UNL     1     -10.490   5.447  73.603  1.00  0.00    -0.215 OA 
BRANCH   9  15
HETATM   15  O   UNL     1      -8.048   5.858  72.611  1.00  0.00    -0.105 OA 
HETATM   16  C   UNL     1      -7.076   6.893  72.711  1.00  0.00    -0.074 C  
ENDBRANCH   9  15
ENDBRANCH   6   7
ENDBRANCH   5   6
ENDBRANCH   4   5
ENDBRANCH   3   4
ENDBRANCH   2   3
TORSDOF 6
ENDMDL
MODEL      273
REMARK 921   NORMALIZED FREE ENERGY PREDICTED BY IDOCK:   -2.08 KCAL/MOL
REMARK 922        TOTAL FREE ENERGY PREDICTED BY IDOCK:   -3.12 KCAL/MOL
REMARK 923 INTER-LIGAND FREE ENERGY PREDICTED BY IDOCK:   -3.26 KCAL/MOL
REMARK 924 INTRA-LIGAND FREE ENERGY PREDICTED BY IDOCK:    0.13 KCAL/MOL
REMARK 927      BINDING AFFINITY PREDICTED BY RF-SCORE:    0.00 PKD
ROOT
HETATM    1  C   UNL     1     -11.127  11.721  64.678  1.00  0.00    -0.363 C  
HETATM    2  C   UNL     1     -10.480  12.976  64.114  1.00  0.00    -0.395 C  
ENDROOT
BRANCH   2   3
HETATM    3  C   UNL     1     -11.144  14.238  64.655  1.00  0.00    -0.371 C  
BRANCH   3   4
HETATM    4  C   UNL     1     -10.344  14.843  65.804  1.00  0.00    -0.332 C  
BRANCH   4   5
HETATM    5  O   UNL     1     -10.812  16.172  66.024  1.00  0.00    -0.264 OA 
BRANCH   5   6
HETATM    6  C   UNL     1     -10.553  16.601  67.359  1.00  0.00    -0.295 C  
BRANCH   6   7
HETATM    7  C   UNL     1      -9.110  16.328  67.701  1.00  0.00    -0.194 A  
HETATM    8  C   UNL     1      -8.775  15.246  68.537  1.00  0.00    -0.176 A  
HETATM    9  C   UNL     1      -7.448  15.022  68.909  1.00  0.00    -0.143 A  
HETATM   10  C   UNL     1      -6.459  15.886  68.427  1.00  0.00    -0.116 A  
HETATM   11  H   UNL     1      -4.478  16.288  68.456  1.00  0.00     0.000 HD 
HETATM   12  C   UNL     1      -6.767  16.950  67.588  1.00  0.00    -0.162 A  
HETATM   13  C   UNL     1      -8.095  17.173  67.228  1.00  0.00    -0.206 A  
HETATM   14  O   UNL     1      -5.150  15.702  68.783  1.00  0.00    -0.097 OA 
BRANCH   9  15
HETATM   15  O   UNL     1      -6.995  14.022  69.730  1.00  0.00    -0.042 OA 
HETATM   16  C   UNL     1      -6.601  12.811  69.096  1.00  0.00    -0.101 C  
ENDBRANCH   9  15
ENDBRANCH   6   7
ENDBRANCH   5   6
ENDBRANCH   4   5
ENDBRANCH   3   4
ENDBRANCH   2   3
TORSDOF 6
ENDMDL
MODEL      274
REMARK 921   NORMALIZED FREE ENERGY PREDICTED BY IDOCK:   -2.06 KCAL/MOL
REMARK 922        TOTAL FREE ENERGY PREDICTED BY IDOCK:   -3.10 KCAL/MOL
REMARK 923 INTER-LIGAND FREE ENERGY PREDICTED BY IDOCK:   -2.87 KCAL/MOL
REMARK 924 INTRA-LIGAND FREE ENERGY PREDICTED BY IDOCK:   -0.23 KCAL/MOL
REMARK 927      BINDING AFFINITY PREDICTED BY RF-SCORE:    0.00 PKD
ROOT
HETATM    1  C   UNL     1      -7.286   3.293  64.328  1.00  0.00    -0.058 C  
HETATM    2  C   UNL     1      -7.269   4.793  64.081  1.00  0.00    -0.051 C  
ENDROOT
BRANCH   2   3
HETATM    3  C   UNL     1      -8.350   5.504  64.890  1.00  0.00    -0.142 C  
BRANCH   3   4
HETATM    4  C   UNL     1      -8.062   5.441  66.386  1.00  0.00    -0.105 C  
BRANCH   4   5
HETATM    5  O   UNL     1      -9.221   5.894  67.084  1.00  0.00    -0.115 OA 
BRANCH   5   6
HETATM    6  C   UNL     1      -9.391   5.197  68.316  1.00  0.00    -0.122 C  
BRANCH   6   7
HETATM    7  C   UNL     1      -9.940   6.143  69.354  1.00  0.00    -0.205 A  
HETATM    8  C   UNL     1      -9.073   7.000  70.058  1.00  0.00    -0.145 A  
HETATM    9  C   UNL     1      -9.562   7.836  71.063  1.00  0.00    -0.159 A  
HETATM   10  C   UNL     1     -10.932   7.812  71.349  1.00  0.00    -0.235 A  
HETATM   11  H   UNL     1     -12.373   8.595  72.532  1.00  0.00     0.000 HD 
HETATM   12  C   UNL     1     -11.807   6.986  70.656  1.00  0.00    -0.377 A  
HETATM   13  C   UNL     1     -11.310   6.148  69.659  1.00  0.00    -0.442 A  
HETATM   14  O   UNL     1     -11.443   8.611  72.338  1.00  0.00    -0.363 OA 
BRANCH   9  15
HETATM   15  O   UNL     1      -8.824   8.696  71.833  1.00  0.00    -0.199 OA 
HETATM   16  C   UNL     1      -7.913   8.102  72.751  1.00  0.00    -0.155 C  
ENDBRANCH   9  15
ENDBRANCH   6   7
ENDBRANCH   5   6
ENDBRANCH   4   5
ENDBRANCH   3   4
ENDBRANCH   2   3
TORSDOF 6
ENDMDL
MODEL      275
REMARK 921   NORMALIZED FREE ENERGY PREDICTED BY IDOCK:   -2.06 KCAL/MOL
REMARK 922        TOTAL FREE ENERGY PREDICTED BY IDOCK:   -3.10 KCAL/MOL
REMARK 923 INTER-LIGAND FREE ENERGY PREDICTED BY IDOCK:   -3.14 KCAL/MOL
REMARK 924 INTRA-LIGAND FREE ENERGY PREDICTED BY IDOCK:    0.04 KCAL/MOL
REMARK 927      BINDING AFFINITY PREDICTED BY RF-SCORE:    0.00 PKD
ROOT
HETATM    1  C   UNL     1      -6.900  20.066  71.720  1.00  0.00     0.603 C  
HETATM    2  C   UNL     1      -5.661  20.201  70.848  1.00  0.00    -0.346 C  
ENDROOT
BRANCH   2   3
HETATM    3  C   UNL     1      -5.144  18.838  70.399  1.00  0.00    -0.216 C  
BRANCH   3   4
HETATM    4  C   UNL     1      -5.868  18.348  69.150  1.00  0.00    -0.221 C  
BRANCH   4   5
HETATM    5  O   UNL     1      -6.813  19.343  68.761  1.00  0.00    -0.288 OA 
BRANCH   5   6
HETATM    6  C   UNL     1      -6.898  19.453  67.342  1.00  0.00    -0.205 C  
BRANCH   6   7
HETATM    7  C   UNL     1      -8.102  18.688  66.852  1.00  0.00    -0.256 A  
HETATM    8  C   UNL     1      -8.042  17.288  66.718  1.00  0.00    -0.280 A  
HETATM    9  C   UNL     1      -9.130  16.578  66.208  1.00  0.00    -0.313 A  
HETATM   10  C   UNL     1     -10.282  17.282  65.843  1.00  0.00    -0.261 A  
HETATM   11  H   UNL     1     -12.145  17.095  65.080  1.00  0.00     0.000 HD 
HETATM   12  C   UNL     1     -10.368  18.662  65.982  1.00  0.00    -0.436 A  
HETATM   13  C   UNL     1      -9.274  19.366  66.484  1.00  0.00    -0.403 A  
HETATM   14  O   UNL     1     -11.363  16.617  65.328  1.00  0.00     0.022 OA 
BRANCH   9  15
HETATM   15  O   UNL     1      -9.191  15.222  66.009  1.00  0.00    -0.313 OA 
HETATM   16  C   UNL     1      -8.716  14.403  67.071  1.00  0.00    -0.223 C  
ENDBRANCH   9  15
ENDBRANCH   6   7
ENDBRANCH   5   6
ENDBRANCH   4   5
ENDBRANCH   3   4
ENDBRANCH   2   3
TORSDOF 6
ENDMDL
MODEL      276
REMARK 921   NORMALIZED FREE ENERGY PREDICTED BY IDOCK:   -2.04 KCAL/MOL
REMARK 922        TOTAL FREE ENERGY PREDICTED BY IDOCK:   -3.08 KCAL/MOL
REMARK 923 INTER-LIGAND FREE ENERGY PREDICTED BY IDOCK:   -2.62 KCAL/MOL
REMARK 924 INTRA-LIGAND FREE ENERGY PREDICTED BY IDOCK:   -0.46 KCAL/MOL
REMARK 927      BINDING AFFINITY PREDICTED BY RF-SCORE:    0.00 PKD
ROOT
HETATM    1  C   UNL     1     -11.833   7.619  70.772  1.00  0.00    -0.227 C  
HETATM    2  C   UNL     1     -10.505   7.438  71.491  1.00  0.00    -0.219 C  
ENDROOT
BRANCH   2   3
HETATM    3  C   UNL     1      -9.337   7.419  70.508  1.00  0.00    -0.157 C  
BRANCH   3   4
HETATM    4  C   UNL     1      -8.171   8.264  71.007  1.00  0.00    -0.112 C  
BRANCH   4   5
HETATM    5  O   UNL     1      -8.035   9.393  70.146  1.00  0.00    -0.112 OA 
BRANCH   5   6
HETATM    6  C   UNL     1      -9.028   9.389  69.122  1.00  0.00    -0.147 C  
BRANCH   6   7
HETATM    7  C   UNL     1      -9.528  10.795  68.905  1.00  0.00    -0.190 A  
HETATM    8  C   UNL     1      -8.681  11.767  68.338  1.00  0.00    -0.155 A  
HETATM    9  C   UNL     1      -9.114  13.085  68.189  1.00  0.00    -0.204 A  
HETATM   10  C   UNL     1     -10.408  13.419  68.606  1.00  0.00    -0.205 A  
HETATM   11  H   UNL     1     -11.737  14.934  68.768  1.00  0.00     0.000 HD 
HETATM   12  C   UNL     1     -11.264  12.473  69.154  1.00  0.00    -0.297 A  
HETATM   13  C   UNL     1     -10.822  11.160  69.307  1.00  0.00    -0.277 A  
HETATM   14  O   UNL     1     -10.859  14.707  68.486  1.00  0.00    -0.237 OA 
BRANCH   9  15
HETATM   15  O   UNL     1      -8.384  14.125  67.674  1.00  0.00    -0.156 OA 
HETATM   16  C   UNL     1      -7.055  13.824  67.265  1.00  0.00     0.077 C  
ENDBRANCH   9  15
ENDBRANCH   6   7
ENDBRANCH   5   6
ENDBRANCH   4   5
ENDBRANCH   3   4
ENDBRANCH   2   3
TORSDOF 6
ENDMDL
MODEL      277
REMARK 921   NORMALIZED FREE ENERGY PREDICTED BY IDOCK:   -2.03 KCAL/MOL
REMARK 922        TOTAL FREE ENERGY PREDICTED BY IDOCK:   -3.06 KCAL/MOL
REMARK 923 INTER-LIGAND FREE ENERGY PREDICTED BY IDOCK:   -2.79 KCAL/MOL
REMARK 924 INTRA-LIGAND FREE ENERGY PREDICTED BY IDOCK:   -0.27 KCAL/MOL
REMARK 927      BINDING AFFINITY PREDICTED BY RF-SCORE:    0.00 PKD
ROOT
HETATM    1  C   UNL     1      -7.886   2.625  64.041  1.00  0.00    -0.077 C  
HETATM    2  C   UNL     1      -7.704   4.049  63.540  1.00  0.00    -0.070 C  
ENDROOT
BRANCH   2   3
HETATM    3  C   UNL     1      -8.755   4.986  64.129  1.00  0.00    -0.097 C  
BRANCH   3   4
HETATM    4  C   UNL     1      -8.587   5.140  65.636  1.00  0.00    -0.139 C  
BRANCH   4   5
HETATM    5  O   UNL     1      -9.794   5.683  66.168  1.00  0.00    -0.149 OA 
BRANCH   5   6
HETATM    6  C   UNL     1      -9.938   5.374  67.552  1.00  0.00    -0.166 C  
BRANCH   6   7
HETATM    7  C   UNL     1     -10.309   6.625  68.308  1.00  0.00    -0.220 A  
HETATM    8  C   UNL     1     -10.349   7.866  67.644  1.00  0.00    -0.307 A  
HETATM    9  C   UNL     1     -10.632   9.038  68.347  1.00  0.00    -0.154 A  
HETATM   10  C   UNL     1     -10.884   8.954  69.721  1.00  0.00    -0.200 A  
HETATM   11  H   UNL     1     -11.323  10.030  71.375  1.00  0.00     0.000 HD 
HETATM   12  C   UNL     1     -10.864   7.738  70.392  1.00  0.00    -0.248 A  
HETATM   13  C   UNL     1     -10.573   6.572  69.685  1.00  0.00    -0.291 A  
HETATM   14  O   UNL     1     -11.152  10.086  70.443  1.00  0.00    -0.280 OA 
BRANCH   9  15
HETATM   15  O   UNL     1     -10.680  10.305  67.825  1.00  0.00    -0.233 OA 
HETATM   16  C   UNL     1      -9.445  10.855  67.382  1.00  0.00    -0.155 C  
ENDBRANCH   9  15
ENDBRANCH   6   7
ENDBRANCH   5   6
ENDBRANCH   4   5
ENDBRANCH   3   4
ENDBRANCH   2   3
TORSDOF 6
ENDMDL
MODEL      278
REMARK 921   NORMALIZED FREE ENERGY PREDICTED BY IDOCK:   -2.03 KCAL/MOL
REMARK 922        TOTAL FREE ENERGY PREDICTED BY IDOCK:   -3.05 KCAL/MOL
REMARK 923 INTER-LIGAND FREE ENERGY PREDICTED BY IDOCK:   -2.85 KCAL/MOL
REMARK 924 INTRA-LIGAND FREE ENERGY PREDICTED BY IDOCK:   -0.20 KCAL/MOL
REMARK 927      BINDING AFFINITY PREDICTED BY RF-SCORE:    0.00 PKD
ROOT
HETATM    1  C   UNL     1      -7.988  11.765  67.145  1.00  0.00    -0.166 C  
HETATM    2  C   UNL     1      -6.787  10.857  67.358  1.00  0.00    -0.079 C  
ENDROOT
BRANCH   2   3
HETATM    3  C   UNL     1      -6.468  10.692  68.841  1.00  0.00    -0.049 C  
BRANCH   3   4
HETATM    4  C   UNL     1      -7.454   9.751  69.524  1.00  0.00    -0.101 C  
BRANCH   4   5
HETATM    5  O   UNL     1      -6.712   8.725  70.180  1.00  0.00    -0.037 OA 
BRANCH   5   6
HETATM    6  C   UNL     1      -7.097   8.597  71.548  1.00  0.00    -0.089 C  
BRANCH   6   7
HETATM    7  C   UNL     1      -8.478   7.997  71.625  1.00  0.00    -0.155 A  
HETATM    8  C   UNL     1      -8.818   6.901  70.809  1.00  0.00    -0.150 A  
HETATM    9  C   UNL     1     -10.111   6.377  70.829  1.00  0.00    -0.187 A  
HETATM   10  C   UNL     1     -11.059   6.956  71.681  1.00  0.00    -0.240 A  
HETATM   11  H   UNL     1     -12.983   6.866  72.294  1.00  0.00     0.000 HD 
HETATM   12  C   UNL     1     -10.739   8.027  72.505  1.00  0.00    -0.407 A  
HETATM   13  C   UNL     1      -9.448   8.551  72.474  1.00  0.00    -0.328 A  
HETATM   14  O   UNL     1     -12.340   6.473  71.716  1.00  0.00    -0.347 OA 
BRANCH   9  15
HETATM   15  O   UNL     1     -10.574   5.331  70.073  1.00  0.00    -0.302 OA 
HETATM   16  C   UNL     1      -9.767   4.159  70.051  1.00  0.00    -0.212 C  
ENDBRANCH   9  15
ENDBRANCH   6   7
ENDBRANCH   5   6
ENDBRANCH   4   5
ENDBRANCH   3   4
ENDBRANCH   2   3
TORSDOF 6
ENDMDL
MODEL      279
REMARK 921   NORMALIZED FREE ENERGY PREDICTED BY IDOCK:   -2.02 KCAL/MOL
REMARK 922        TOTAL FREE ENERGY PREDICTED BY IDOCK:   -3.04 KCAL/MOL
REMARK 923 INTER-LIGAND FREE ENERGY PREDICTED BY IDOCK:   -2.68 KCAL/MOL
REMARK 924 INTRA-LIGAND FREE ENERGY PREDICTED BY IDOCK:   -0.36 KCAL/MOL
REMARK 927      BINDING AFFINITY PREDICTED BY RF-SCORE:    0.00 PKD
ROOT
HETATM    1  C   UNL     1      -7.537   4.965  66.178  1.00  0.00    -0.091 C  
HETATM    2  C   UNL     1      -8.824   4.157  66.240  1.00  0.00    -0.118 C  
ENDROOT
BRANCH   2   3
HETATM    3  C   UNL     1     -10.033   5.005  65.854  1.00  0.00    -0.189 C  
BRANCH   3   4
HETATM    4  C   UNL     1     -10.171   6.226  66.756  1.00  0.00    -0.202 C  
BRANCH   4   5
HETATM    5  O   UNL     1     -11.278   6.013  67.630  1.00  0.00    -0.234 OA 
BRANCH   5   6
HETATM    6  C   UNL     1     -10.844   5.736  68.961  1.00  0.00    -0.260 C  
BRANCH   6   7
HETATM    7  C   UNL     1     -10.009   6.886  69.464  1.00  0.00    -0.171 A  
HETATM    8  C   UNL     1     -10.581   8.165  69.606  1.00  0.00    -0.223 A  
HETATM    9  C   UNL     1      -9.802   9.248  70.014  1.00  0.00    -0.205 A  
HETATM   10  C   UNL     1      -8.446   9.037  70.287  1.00  0.00    -0.168 A  
HETATM   11  H   UNL     1      -6.730   9.938  70.862  1.00  0.00     0.000 HD 
HETATM   12  C   UNL     1      -7.866   7.781  70.168  1.00  0.00    -0.095 A  
HETATM   13  C   UNL     1      -8.648   6.704  69.753  1.00  0.00    -0.136 A  
HETATM   14  O   UNL     1      -7.650  10.082  70.677  1.00  0.00    -0.286 OA 
BRANCH   9  15
HETATM   15  O   UNL     1     -10.230  10.542  70.170  1.00  0.00    -0.110 OA 
HETATM   16  C   UNL     1     -10.451  11.284  68.976  1.00  0.00    -0.194 C  
ENDBRANCH   9  15
ENDBRANCH   6   7
ENDBRANCH   5   6
ENDBRANCH   4   5
ENDBRANCH   3   4
ENDBRANCH   2   3
TORSDOF 6
ENDMDL
MODEL      280
REMARK 921   NORMALIZED FREE ENERGY PREDICTED BY IDOCK:   -1.99 KCAL/MOL
REMARK 922        TOTAL FREE ENERGY PREDICTED BY IDOCK:   -3.01 KCAL/MOL
REMARK 923 INTER-LIGAND FREE ENERGY PREDICTED BY IDOCK:   -2.03 KCAL/MOL
REMARK 924 INTRA-LIGAND FREE ENERGY PREDICTED BY IDOCK:   -0.98 KCAL/MOL
REMARK 927      BINDING AFFINITY PREDICTED BY RF-SCORE:    0.00 PKD
ROOT
HETATM    1  C   UNL     1     -10.749   7.806  68.991  1.00  0.00    -0.119 C  
HETATM    2  C   UNL     1     -11.101   6.448  69.578  1.00  0.00    -0.460 C  
ENDROOT
BRANCH   2   3
HETATM    3  C   UNL     1     -11.474   6.558  71.054  1.00  0.00    -0.392 C  
BRANCH   3   4
HETATM    4  C   UNL     1     -10.441   7.362  71.834  1.00  0.00    -0.201 C  
BRANCH   4   5
HETATM    5  O   UNL     1      -9.419   6.470  72.277  1.00  0.00    -0.146 OA 
BRANCH   5   6
HETATM    6  C   UNL     1      -8.131   7.079  72.210  1.00  0.00    -0.095 C  
BRANCH   6   7
HETATM    7  C   UNL     1      -7.602   6.977  70.801  1.00  0.00    -0.090 A  
HETATM    8  C   UNL     1      -7.347   8.144  70.057  1.00  0.00    -0.061 A  
HETATM    9  C   UNL     1      -6.915   8.059  68.732  1.00  0.00    -0.066 A  
HETATM   10  C   UNL     1      -6.732   6.794  68.164  1.00  0.00    -0.068 A  
HETATM   11  H   UNL     1      -6.197   5.817  66.476  1.00  0.00     0.000 HD 
HETATM   12  C   UNL     1      -6.964   5.630  68.886  1.00  0.00    -0.067 A  
HETATM   13  C   UNL     1      -7.403   5.722  70.206  1.00  0.00    -0.076 A  
HETATM   14  O   UNL     1      -6.322   6.676  66.862  1.00  0.00    -0.038 OA 
BRANCH   9  15
HETATM   15  O   UNL     1      -6.653   9.114  67.896  1.00  0.00    -0.062 OA 
HETATM   16  C   UNL     1      -7.767   9.915  67.519  1.00  0.00    -0.091 C  
ENDBRANCH   9  15
ENDBRANCH   6   7
ENDBRANCH   5   6
ENDBRANCH   4   5
ENDBRANCH   3   4
ENDBRANCH   2   3
TORSDOF 6
ENDMDL
MODEL      281
REMARK 921   NORMALIZED FREE ENERGY PREDICTED BY IDOCK:   -1.94 KCAL/MOL
REMARK 922        TOTAL FREE ENERGY PREDICTED BY IDOCK:   -2.93 KCAL/MOL
REMARK 923 INTER-LIGAND FREE ENERGY PREDICTED BY IDOCK:   -2.82 KCAL/MOL
REMARK 924 INTRA-LIGAND FREE ENERGY PREDICTED BY IDOCK:   -0.12 KCAL/MOL
REMARK 927      BINDING AFFINITY PREDICTED BY RF-SCORE:    0.00 PKD
ROOT
HETATM    1  C   UNL     1      -7.626   4.943  70.761  1.00  0.00    -0.066 C  
HETATM    2  C   UNL     1      -7.833   6.150  69.858  1.00  0.00    -0.109 C  
ENDROOT
BRANCH   2   3
HETATM    3  C   UNL     1      -8.222   7.387  70.662  1.00  0.00    -0.112 C  
BRANCH   3   4
HETATM    4  C   UNL     1      -8.007   8.666  69.861  1.00  0.00    -0.105 C  
BRANCH   4   5
HETATM    5  O   UNL     1      -7.419   8.316  68.609  1.00  0.00    -0.093 OA 
BRANCH   5   6
HETATM    6  C   UNL     1      -7.124   9.474  67.831  1.00  0.00    -0.081 C  
BRANCH   6   7
HETATM    7  C   UNL     1      -8.406  10.203  67.514  1.00  0.00    -0.118 A  
HETATM    8  C   UNL     1      -8.456  11.608  67.584  1.00  0.00    -0.142 A  
HETATM    9  C   UNL     1      -9.652  12.287  67.351  1.00  0.00    -0.179 A  
HETATM   10  C   UNL     1     -10.797  11.546  67.039  1.00  0.00    -0.273 A  
HETATM   11  H   UNL     1     -12.767  11.679  66.605  1.00  0.00     0.000 HD 
HETATM   12  C   UNL     1     -10.766  10.160  66.949  1.00  0.00    -0.231 A  
HETATM   13  C   UNL     1      -9.569   9.487  67.190  1.00  0.00    -0.206 A  
HETATM   14  O   UNL     1     -11.990  12.182  66.818  1.00  0.00    -0.606 OA 
BRANCH   9  15
HETATM   15  O   UNL     1      -9.838  13.645  67.409  1.00  0.00    -0.227 OA 
HETATM   16  C   UNL     1      -9.412  14.391  66.275  1.00  0.00    -0.271 C  
ENDBRANCH   9  15
ENDBRANCH   6   7
ENDBRANCH   5   6
ENDBRANCH   4   5
ENDBRANCH   3   4
ENDBRANCH   2   3
TORSDOF 6
ENDMDL
MODEL      282
REMARK 921   NORMALIZED FREE ENERGY PREDICTED BY IDOCK:   -1.93 KCAL/MOL
REMARK 922        TOTAL FREE ENERGY PREDICTED BY IDOCK:   -2.92 KCAL/MOL
REMARK 923 INTER-LIGAND FREE ENERGY PREDICTED BY IDOCK:   -3.23 KCAL/MOL
REMARK 924 INTRA-LIGAND FREE ENERGY PREDICTED BY IDOCK:    0.30 KCAL/MOL
REMARK 927      BINDING AFFINITY PREDICTED BY RF-SCORE:    0.00 PKD
ROOT
HETATM    1  C   UNL     1      -6.444  16.234  69.566  1.00  0.00    -0.203 C  
HETATM    2  C   UNL     1      -7.006  14.822  69.527  1.00  0.00    -0.176 C  
ENDROOT
BRANCH   2   3
HETATM    3  C   UNL     1      -6.053  13.861  68.822  1.00  0.00    -0.086 C  
BRANCH   3   4
HETATM    4  C   UNL     1      -6.178  12.445  69.370  1.00  0.00    -0.114 C  
BRANCH   4   5
HETATM    5  O   UNL     1      -7.148  11.746  68.592  1.00  0.00    -0.088 OA 
BRANCH   5   6
HETATM    6  C   UNL     1      -7.196  12.242  67.255  1.00  0.00    -0.138 C  
BRANCH   6   7
HETATM    7  C   UNL     1      -8.600  12.694  66.940  1.00  0.00    -0.151 A  
HETATM    8  C   UNL     1      -9.250  13.617  67.782  1.00  0.00    -0.214 A  
HETATM    9  C   UNL     1     -10.570  13.996  67.533  1.00  0.00    -0.260 A  
HETATM   10  C   UNL     1     -11.230  13.448  66.428  1.00  0.00    -0.304 A  
HETATM   11  H   UNL     1     -12.978  13.418  65.412  1.00  0.00     0.000 HD 
HETATM   12  C   UNL     1     -10.602  12.548  65.576  1.00  0.00    -0.304 A  
HETATM   13  C   UNL     1      -9.286  12.168  65.835  1.00  0.00    -0.135 A  
HETATM   14  O   UNL     1     -12.530  13.789  66.163  1.00  0.00    -0.446 OA 
BRANCH   9  15
HETATM   15  O   UNL     1     -11.319  14.865  68.284  1.00  0.00    -0.282 OA 
HETATM   16  C   UNL     1     -11.057  16.251  68.099  1.00  0.00    -0.329 C  
ENDBRANCH   9  15
ENDBRANCH   6   7
ENDBRANCH   5   6
ENDBRANCH   4   5
ENDBRANCH   3   4
ENDBRANCH   2   3
TORSDOF 6
ENDMDL
MODEL      283
REMARK 921   NORMALIZED FREE ENERGY PREDICTED BY IDOCK:   -1.89 KCAL/MOL
REMARK 922        TOTAL FREE ENERGY PREDICTED BY IDOCK:   -2.87 KCAL/MOL
REMARK 923 INTER-LIGAND FREE ENERGY PREDICTED BY IDOCK:   -2.44 KCAL/MOL
REMARK 924 INTRA-LIGAND FREE ENERGY PREDICTED BY IDOCK:   -0.43 KCAL/MOL
REMARK 927      BINDING AFFINITY PREDICTED BY RF-SCORE:    0.00 PKD
ROOT
HETATM    1  C   UNL     1      -9.641   6.725  70.759  1.00  0.00    -0.173 C  
HETATM    2  C   UNL     1     -11.003   7.328  70.453  1.00  0.00    -0.273 C  
ENDROOT
BRANCH   2   3
HETATM    3  C   UNL     1     -11.368   8.419  71.456  1.00  0.00    -0.334 C  
BRANCH   3   4
HETATM    4  C   UNL     1     -11.301   9.805  70.825  1.00  0.00    -0.342 C  
BRANCH   4   5
HETATM    5  O   UNL     1      -9.991   9.992  70.293  1.00  0.00    -0.244 OA 
BRANCH   5   6
HETATM    6  C   UNL     1      -9.964  11.049  69.336  1.00  0.00     0.011 C  
BRANCH   6   7
HETATM    7  C   UNL     1      -9.260  10.576  68.088  1.00  0.00    -0.148 A  
HETATM    8  C   UNL     1      -8.141   9.728  68.187  1.00  0.00    -0.108 A  
HETATM    9  C   UNL     1      -7.447   9.334  67.042  1.00  0.00    -0.091 A  
HETATM   10  C   UNL     1      -7.890   9.791  65.796  1.00  0.00    -0.110 A  
HETATM   11  H   UNL     1      -7.524   9.743  63.808  1.00  0.00     0.000 HD 
HETATM   12  C   UNL     1      -9.001  10.616  65.675  1.00  0.00    -0.203 A  
HETATM   13  C   UNL     1      -9.685  11.012  66.824  1.00  0.00    -0.222 A  
HETATM   14  O   UNL     1      -7.224   9.434  64.655  1.00  0.00    -0.098 OA 
BRANCH   9  15
HETATM   15  O   UNL     1      -6.335   8.532  67.004  1.00  0.00    -0.055 OA 
HETATM   16  C   UNL     1      -6.373   7.359  67.809  1.00  0.00    -0.048 C  
ENDBRANCH   9  15
ENDBRANCH   6   7
ENDBRANCH   5   6
ENDBRANCH   4   5
ENDBRANCH   3   4
ENDBRANCH   2   3
TORSDOF 6
ENDMDL
MODEL      284
REMARK 921   NORMALIZED FREE ENERGY PREDICTED BY IDOCK:   -1.89 KCAL/MOL
REMARK 922        TOTAL FREE ENERGY PREDICTED BY IDOCK:   -2.87 KCAL/MOL
REMARK 923 INTER-LIGAND FREE ENERGY PREDICTED BY IDOCK:   -2.62 KCAL/MOL
REMARK 924 INTRA-LIGAND FREE ENERGY PREDICTED BY IDOCK:   -0.25 KCAL/MOL
REMARK 927      BINDING AFFINITY PREDICTED BY RF-SCORE:    0.00 PKD
ROOT
HETATM    1  C   UNL     1     -11.661  12.488  67.004  1.00  0.00    -0.437 C  
HETATM    2  C   UNL     1     -10.431  12.721  67.867  1.00  0.00    -0.226 C  
ENDROOT
BRANCH   2   3
HETATM    3  C   UNL     1      -9.997  11.442  68.577  1.00  0.00    -0.203 C  
BRANCH   3   4
HETATM    4  C   UNL     1      -9.174  10.544  67.660  1.00  0.00    -0.145 C  
BRANCH   4   5
HETATM    5  O   UNL     1      -9.798   9.263  67.610  1.00  0.00    -0.161 OA 
BRANCH   5   6
HETATM    6  C   UNL     1      -9.338   8.504  66.493  1.00  0.00    -0.203 C  
BRANCH   6   7
HETATM    7  C   UNL     1      -9.326   7.040  66.855  1.00  0.00    -0.185 A  
HETATM    8  C   UNL     1      -8.157   6.277  66.671  1.00  0.00    -0.110 A  
HETATM    9  C   UNL     1      -8.153   4.908  66.945  1.00  0.00    -0.107 A  
HETATM   10  C   UNL     1      -9.329   4.313  67.415  1.00  0.00    -0.163 A  
HETATM   11  H   UNL     1     -10.161   2.566  68.001  1.00  0.00     0.000 HD 
HETATM   12  C   UNL     1     -10.488   5.051  67.618  1.00  0.00    -0.074 A  
HETATM   13  C   UNL     1     -10.487   6.416  67.334  1.00  0.00    -0.312 A  
HETATM   14  O   UNL     1      -9.363   2.970  67.681  1.00  0.00    -0.192 OA 
BRANCH   9  15
HETATM   15  O   UNL     1      -7.093   4.053  66.788  1.00  0.00    -0.061 OA 
HETATM   16  C   UNL     1      -6.578   3.918  65.469  1.00  0.00    -0.040 C  
ENDBRANCH   9  15
ENDBRANCH   6   7
ENDBRANCH   5   6
ENDBRANCH   4   5
ENDBRANCH   3   4
ENDBRANCH   2   3
TORSDOF 6
ENDMDL
MODEL      285
REMARK 921   NORMALIZED FREE ENERGY PREDICTED BY IDOCK:   -1.87 KCAL/MOL
REMARK 922        TOTAL FREE ENERGY PREDICTED BY IDOCK:   -2.84 KCAL/MOL
REMARK 923 INTER-LIGAND FREE ENERGY PREDICTED BY IDOCK:   -2.44 KCAL/MOL
REMARK 924 INTRA-LIGAND FREE ENERGY PREDICTED BY IDOCK:   -0.40 KCAL/MOL
REMARK 927      BINDING AFFINITY PREDICTED BY RF-SCORE:    0.00 PKD
ROOT
HETATM    1  C   UNL     1      -6.538   3.813  65.536  1.00  0.00    -0.040 C  
HETATM    2  C   UNL     1      -6.615   5.218  64.959  1.00  0.00    -0.040 C  
ENDROOT
BRANCH   2   3
HETATM    3  C   UNL     1      -7.938   5.893  65.310  1.00  0.00    -0.115 C  
BRANCH   3   4
HETATM    4  C   UNL     1      -8.292   5.700  66.780  1.00  0.00    -0.108 C  
BRANCH   4   5
HETATM    5  O   UNL     1      -9.359   6.589  67.104  1.00  0.00    -0.121 OA 
BRANCH   5   6
HETATM    6  C   UNL     1      -8.927   7.623  67.986  1.00  0.00    -0.126 C  
BRANCH   6   7
HETATM    7  C   UNL     1      -9.132   8.962  67.324  1.00  0.00    -0.153 A  
HETATM    8  C   UNL     1      -8.793  10.147  68.006  1.00  0.00    -0.125 A  
HETATM    9  C   UNL     1      -9.035  11.393  67.426  1.00  0.00    -0.154 A  
HETATM   10  C   UNL     1      -9.612  11.441  66.152  1.00  0.00    -0.218 A  
HETATM   11  H   UNL     1     -10.265  12.681  64.695  1.00  0.00     0.000 HD 
HETATM   12  C   UNL     1      -9.939  10.285  65.455  1.00  0.00    -0.364 A  
HETATM   13  C   UNL     1      -9.702   9.043  66.044  1.00  0.00    -0.339 A  
HETATM   14  O   UNL     1      -9.874  12.648  65.560  1.00  0.00    -0.242 OA 
BRANCH   9  15
HETATM   15  O   UNL     1      -8.773  12.614  67.991  1.00  0.00    -0.175 OA 
HETATM   16  C   UNL     1      -7.428  12.851  68.392  1.00  0.00    -0.124 C  
ENDBRANCH   9  15
ENDBRANCH   6   7
ENDBRANCH   5   6
ENDBRANCH   4   5
ENDBRANCH   3   4
ENDBRANCH   2   3
TORSDOF 6
ENDMDL
MODEL      286
REMARK 921   NORMALIZED FREE ENERGY PREDICTED BY IDOCK:   -1.72 KCAL/MOL
REMARK 922        TOTAL FREE ENERGY PREDICTED BY IDOCK:   -2.64 KCAL/MOL
REMARK 923 INTER-LIGAND FREE ENERGY PREDICTED BY IDOCK:   -2.22 KCAL/MOL
REMARK 924 INTRA-LIGAND FREE ENERGY PREDICTED BY IDOCK:   -0.42 KCAL/MOL
REMARK 927      BINDING AFFINITY PREDICTED BY RF-SCORE:    0.00 PKD
ROOT
HETATM    1  C   UNL     1      -8.495  11.998  68.330  1.00  0.00    -0.167 C  
HETATM    2  C   UNL     1      -7.354  11.058  67.973  1.00  0.00    -0.088 C  
ENDROOT
BRANCH   2   3
HETATM    3  C   UNL     1      -6.743  10.424  69.219  1.00  0.00    -0.067 C  
BRANCH   3   4
HETATM    4  C   UNL     1      -7.817   9.879  70.154  1.00  0.00    -0.171 C  
BRANCH   4   5
HETATM    5  O   UNL     1      -7.569   8.489  70.357  1.00  0.00    -0.066 OA 
BRANCH   5   6
HETATM    6  C   UNL     1      -8.777   7.778  70.621  1.00  0.00    -0.139 C  
BRANCH   6   7
HETATM    7  C   UNL     1      -9.179   7.002  69.392  1.00  0.00    -0.147 A  
HETATM    8  C   UNL     1      -8.243   6.769  68.366  1.00  0.00    -0.119 A  
HETATM    9  C   UNL     1      -8.622   6.104  67.199  1.00  0.00    -0.103 A  
HETATM   10  C   UNL     1      -9.945   5.666  67.072  1.00  0.00    -0.169 A  
HETATM   11  H   UNL     1     -11.250   4.725  65.848  1.00  0.00     0.000 HD 
HETATM   12  C   UNL     1     -10.880   5.872  68.079  1.00  0.00    -0.321 A  
HETATM   13  C   UNL     1     -10.497   6.544  69.239  1.00  0.00    -0.259 A  
HETATM   14  O   UNL     1     -10.352   5.023  65.934  1.00  0.00    -0.219 OA 
BRANCH   9  15
HETATM   15  O   UNL     1      -7.816   5.834  66.122  1.00  0.00    -0.097 OA 
HETATM   16  C   UNL     1      -7.513   6.931  65.268  1.00  0.00    -0.089 C  
ENDBRANCH   9  15
ENDBRANCH   6   7
ENDBRANCH   5   6
ENDBRANCH   4   5
ENDBRANCH   3   4
ENDBRANCH   2   3
TORSDOF 6
ENDMDL
MODEL      287
REMARK 921   NORMALIZED FREE ENERGY PREDICTED BY IDOCK:   -1.65 KCAL/MOL
REMARK 922        TOTAL FREE ENERGY PREDICTED BY IDOCK:   -2.55 KCAL/MOL
REMARK 923 INTER-LIGAND FREE ENERGY PREDICTED BY IDOCK:   -2.29 KCAL/MOL
REMARK 924 INTRA-LIGAND FREE ENERGY PREDICTED BY IDOCK:   -0.26 KCAL/MOL
REMARK 927      BINDING AFFINITY PREDICTED BY RF-SCORE:    0.00 PKD
ROOT
HETATM    1  C   UNL     1      -6.387   4.242  62.531  1.00  0.00    -0.022 C  
HETATM    2  C   UNL     1      -6.727   5.724  62.488  1.00  0.00    -0.035 C  
ENDROOT
BRANCH   2   3
HETATM    3  C   UNL     1      -7.983   6.031  63.298  1.00  0.00    -0.109 C  
BRANCH   3   4
HETATM    4  C   UNL     1      -7.914   5.421  64.693  1.00  0.00    -0.112 C  
BRANCH   4   5
HETATM    5  O   UNL     1      -9.172   5.624  65.334  1.00  0.00    -0.088 OA 
BRANCH   5   6
HETATM    6  C   UNL     1      -9.487   4.548  66.215  1.00  0.00    -0.172 C  
BRANCH   6   7
HETATM    7  C   UNL     1      -9.684   5.086  67.610  1.00  0.00    -0.188 A  
HETATM    8  C   UNL     1     -10.143   6.403  67.801  1.00  0.00    -0.171 A  
HETATM    9  C   UNL     1     -10.271   6.930  69.087  1.00  0.00    -0.187 A  
HETATM   10  C   UNL     1      -9.944   6.121  70.181  1.00  0.00    -0.175 A  
HETATM   11  H   UNL     1      -9.824   6.062  72.198  1.00  0.00     0.000 HD 
HETATM   12  C   UNL     1      -9.505   4.813  70.015  1.00  0.00    -0.240 A  
HETATM   13  C   UNL     1      -9.372   4.296  68.727  1.00  0.00    -0.216 A  
HETATM   14  O   UNL     1     -10.046   6.612  71.455  1.00  0.00    -0.183 OA 
BRANCH   9  15
HETATM   15  O   UNL     1     -10.683   8.198  69.406  1.00  0.00    -0.224 OA 
HETATM   16  C   UNL     1      -9.794   9.257  69.069  1.00  0.00    -0.166 C  
ENDBRANCH   9  15
ENDBRANCH   6   7
ENDBRANCH   5   6
ENDBRANCH   4   5
ENDBRANCH   3   4
ENDBRANCH   2   3
TORSDOF 6
ENDMDL
MODEL      288
REMARK 921   NORMALIZED FREE ENERGY PREDICTED BY IDOCK:   -1.65 KCAL/MOL
REMARK 922        TOTAL FREE ENERGY PREDICTED BY IDOCK:   -2.54 KCAL/MOL
REMARK 923 INTER-LIGAND FREE ENERGY PREDICTED BY IDOCK:   -2.24 KCAL/MOL
REMARK 924 INTRA-LIGAND FREE ENERGY PREDICTED BY IDOCK:   -0.30 KCAL/MOL
REMARK 927      BINDING AFFINITY PREDICTED BY RF-SCORE:    0.00 PKD
ROOT
HETATM    1  C   UNL     1      -5.945  10.315  64.410  1.00  0.00    -0.134 C  
HETATM    2  C   UNL     1      -6.804   9.591  65.435  1.00  0.00    -0.086 C  
ENDROOT
BRANCH   2   3
HETATM    3  C   UNL     1      -6.373   9.925  66.860  1.00  0.00    -0.065 C  
BRANCH   3   4
HETATM    4  C   UNL     1      -7.169   9.128  67.887  1.00  0.00    -0.080 C  
BRANCH   4   5
HETATM    5  O   UNL     1      -8.418   8.764  67.302  1.00  0.00    -0.110 OA 
BRANCH   5   6
HETATM    6  C   UNL     1      -8.711   7.385  67.516  1.00  0.00    -0.124 C  
BRANCH   6   7
HETATM    7  C   UNL     1      -9.355   7.215  68.869  1.00  0.00    -0.139 A  
HETATM    8  C   UNL     1      -8.896   6.217  69.749  1.00  0.00    -0.140 A  
HETATM    9  C   UNL     1      -9.525   6.012  70.978  1.00  0.00    -0.168 A  
HETATM   10  C   UNL     1     -10.613   6.822  71.321  1.00  0.00    -0.219 A  
HETATM   11  H   UNL     1     -11.999   7.189  72.746  1.00  0.00     0.000 HD 
HETATM   12  C   UNL     1     -11.072   7.822  70.473  1.00  0.00    -0.265 A  
HETATM   13  C   UNL     1     -10.445   8.016  69.243  1.00  0.00    -0.221 A  
HETATM   14  O   UNL     1     -11.261   6.638  72.513  1.00  0.00    -0.253 OA 
BRANCH   9  15
HETATM   15  O   UNL     1      -9.190   5.065  71.912  1.00  0.00    -0.135 OA 
HETATM   16  C   UNL     1      -7.965   5.267  72.608  1.00  0.00    -0.102 C  
ENDBRANCH   9  15
ENDBRANCH   6   7
ENDBRANCH   5   6
ENDBRANCH   4   5
ENDBRANCH   3   4
ENDBRANCH   2   3
TORSDOF 6
ENDMDL
MODEL      289
REMARK 921   NORMALIZED FREE ENERGY PREDICTED BY IDOCK:   -1.62 KCAL/MOL
REMARK 922        TOTAL FREE ENERGY PREDICTED BY IDOCK:   -2.50 KCAL/MOL
REMARK 923 INTER-LIGAND FREE ENERGY PREDICTED BY IDOCK:   -3.18 KCAL/MOL
REMARK 924 INTRA-LIGAND FREE ENERGY PREDICTED BY IDOCK:    0.68 KCAL/MOL
REMARK 927      BINDING AFFINITY PREDICTED BY RF-SCORE:    0.00 PKD
ROOT
HETATM    1  C   UNL     1      -6.874  14.618  70.334  1.00  0.00     0.118 C  
HETATM    2  C   UNL     1      -7.510  15.945  69.951  1.00  0.00     0.241 C  
ENDROOT
BRANCH   2   3
HETATM    3  C   UNL     1      -8.382  15.807  68.707  1.00  0.00    -0.195 C  
BRANCH   3   4
HETATM    4  C   UNL     1      -9.735  16.486  68.893  1.00  0.00    -0.257 C  
BRANCH   4   5
HETATM    5  O   UNL     1     -10.527  16.231  67.735  1.00  0.00    -0.279 OA 
BRANCH   5   6
HETATM    6  C   UNL     1      -9.756  16.346  66.541  1.00  0.00    -0.269 C  
BRANCH   6   7
HETATM    7  C   UNL     1      -9.064  17.685  66.519  1.00  0.00    -0.284 A  
HETATM    8  C   UNL     1      -7.735  17.787  66.066  1.00  0.00    -0.223 A  
HETATM    9  C   UNL     1      -7.067  19.011  66.099  1.00  0.00    -0.253 A  
HETATM   10  C   UNL     1      -7.745  20.136  66.582  1.00  0.00    -0.295 A  
HETATM   11  H   UNL     1      -7.574  22.113  66.968  1.00  0.00     0.000 HD 
HETATM   12  C   UNL     1      -9.062  20.060  67.019  1.00  0.00    -0.466 A  
HETATM   13  C   UNL     1      -9.721  18.832  66.991  1.00  0.00    -0.340 A  
HETATM   14  O   UNL     1      -7.114  21.349  66.640  1.00  0.00    -0.265 OA 
BRANCH   9  15
HETATM   15  O   UNL     1      -5.772  19.239  65.709  1.00  0.00    -0.154 OA 
HETATM   16  C   UNL     1      -5.533  19.295  64.307  1.00  0.00    -0.258 C  
ENDBRANCH   9  15
ENDBRANCH   6   7
ENDBRANCH   5   6
ENDBRANCH   4   5
ENDBRANCH   3   4
ENDBRANCH   2   3
TORSDOF 6
ENDMDL
MODEL      290
REMARK 921   NORMALIZED FREE ENERGY PREDICTED BY IDOCK:   -1.61 KCAL/MOL
REMARK 922        TOTAL FREE ENERGY PREDICTED BY IDOCK:   -2.49 KCAL/MOL
REMARK 923 INTER-LIGAND FREE ENERGY PREDICTED BY IDOCK:   -2.18 KCAL/MOL
REMARK 924 INTRA-LIGAND FREE ENERGY PREDICTED BY IDOCK:   -0.30 KCAL/MOL
REMARK 927      BINDING AFFINITY PREDICTED BY RF-SCORE:    0.00 PKD
ROOT
HETATM    1  C   UNL     1      -6.812  16.482  69.398  1.00  0.00    -0.220 C  
HETATM    2  C   UNL     1      -7.407  15.085  69.334  1.00  0.00    -0.194 C  
ENDROOT
BRANCH   2   3
HETATM    3  C   UNL     1      -6.407  14.077  68.775  1.00  0.00    -0.090 C  
BRANCH   3   4
HETATM    4  C   UNL     1      -6.407  12.782  69.579  1.00  0.00    -0.108 C  
BRANCH   4   5
HETATM    5  O   UNL     1      -6.679  11.702  68.688  1.00  0.00    -0.064 OA 
BRANCH   5   6
HETATM    6  C   UNL     1      -8.076  11.420  68.623  1.00  0.00    -0.141 C  
BRANCH   6   7
HETATM    7  C   UNL     1      -8.314   9.982  69.007  1.00  0.00    -0.134 A  
HETATM    8  C   UNL     1      -8.348   9.610  70.364  1.00  0.00    -0.188 A  
HETATM    9  C   UNL     1      -8.507   8.272  70.729  1.00  0.00    -0.132 A  
HETATM   10  C   UNL     1      -8.642   7.311  69.720  1.00  0.00    -0.141 A  
HETATM   11  H   UNL     1      -8.879   5.336  69.360  1.00  0.00     0.000 HD 
HETATM   12  C   UNL     1      -8.627   7.659  68.376  1.00  0.00    -0.124 A  
HETATM   13  C   UNL     1      -8.459   8.996  68.019  1.00  0.00    -0.125 A  
HETATM   14  O   UNL     1      -8.787   5.989  70.044  1.00  0.00    -0.136 OA 
BRANCH   9  15
HETATM   15  O   UNL     1      -8.535   7.778  72.008  1.00  0.00    -0.105 OA 
HETATM   16  C   UNL     1      -9.657   8.143  72.803  1.00  0.00    -0.283 C  
ENDBRANCH   9  15
ENDBRANCH   6   7
ENDBRANCH   5   6
ENDBRANCH   4   5
ENDBRANCH   3   4
ENDBRANCH   2   3
TORSDOF 6
ENDMDL
MODEL      291
REMARK 921   NORMALIZED FREE ENERGY PREDICTED BY IDOCK:   -1.55 KCAL/MOL
REMARK 922        TOTAL FREE ENERGY PREDICTED BY IDOCK:   -2.41 KCAL/MOL
REMARK 923 INTER-LIGAND FREE ENERGY PREDICTED BY IDOCK:   -2.18 KCAL/MOL
REMARK 924 INTRA-LIGAND FREE ENERGY PREDICTED BY IDOCK:   -0.22 KCAL/MOL
REMARK 927      BINDING AFFINITY PREDICTED BY RF-SCORE:    0.00 PKD
ROOT
HETATM    1  C   UNL     1      -8.480  11.855  68.322  1.00  0.00    -0.161 C  
HETATM    2  C   UNL     1      -7.270  11.267  67.613  1.00  0.00    -0.092 C  
ENDROOT
BRANCH   2   3
HETATM    3  C   UNL     1      -6.332  10.571  68.596  1.00  0.00    -0.047 C  
BRANCH   3   4
HETATM    4  C   UNL     1      -6.961   9.308  69.172  1.00  0.00    -0.058 C  
BRANCH   4   5
HETATM    5  O   UNL     1      -5.996   8.260  69.111  1.00  0.00    -0.037 OA 
BRANCH   5   6
HETATM    6  C   UNL     1      -6.517   7.041  69.638  1.00  0.00    -0.043 C  
BRANCH   6   7
HETATM    7  C   UNL     1      -7.674   6.582  68.787  1.00  0.00    -0.109 A  
HETATM    8  C   UNL     1      -8.976   6.550  69.322  1.00  0.00    -0.131 A  
HETATM    9  C   UNL     1     -10.043   6.070  68.562  1.00  0.00    -0.161 A  
HETATM   10  C   UNL     1      -9.796   5.630  67.256  1.00  0.00    -0.146 A  
HETATM   11  H   UNL     1     -10.651   4.843  65.602  1.00  0.00     0.000 HD 
HETATM   12  C   UNL     1      -8.522   5.668  66.704  1.00  0.00    -0.113 A  
HETATM   13  C   UNL     1      -7.459   6.141  67.472  1.00  0.00    -0.082 A  
HETATM   14  O   UNL     1     -10.819   5.141  66.489  1.00  0.00    -0.258 OA 
BRANCH   9  15
HETATM   15  O   UNL     1     -11.348   5.967  68.971  1.00  0.00    -0.340 OA 
HETATM   16  C   UNL     1     -11.657   6.515  70.247  1.00  0.00    -0.409 C  
ENDBRANCH   9  15
ENDBRANCH   6   7
ENDBRANCH   5   6
ENDBRANCH   4   5
ENDBRANCH   3   4
ENDBRANCH   2   3
TORSDOF 6
ENDMDL
MODEL      292
REMARK 921   NORMALIZED FREE ENERGY PREDICTED BY IDOCK:   -1.50 KCAL/MOL
REMARK 922        TOTAL FREE ENERGY PREDICTED BY IDOCK:   -2.34 KCAL/MOL
REMARK 923 INTER-LIGAND FREE ENERGY PREDICTED BY IDOCK:   -1.76 KCAL/MOL
REMARK 924 INTRA-LIGAND FREE ENERGY PREDICTED BY IDOCK:   -0.57 KCAL/MOL
REMARK 927      BINDING AFFINITY PREDICTED BY RF-SCORE:    0.00 PKD
ROOT
HETATM    1  C   UNL     1      -7.818  10.020  69.868  1.00  0.00    -0.185 C  
HETATM    2  C   UNL     1      -8.689   8.903  69.315  1.00  0.00    -0.138 C  
ENDROOT
BRANCH   2   3
HETATM    3  C   UNL     1      -9.550   9.390  68.153  1.00  0.00    -0.158 C  
BRANCH   3   4
HETATM    4  C   UNL     1      -8.697   9.820  66.965  1.00  0.00    -0.135 C  
BRANCH   4   5
HETATM    5  O   UNL     1      -7.872   8.720  66.586  1.00  0.00    -0.098 OA 
BRANCH   5   6
HETATM    6  C   UNL     1      -8.463   7.965  65.531  1.00  0.00    -0.139 C  
BRANCH   6   7
HETATM    7  C   UNL     1      -8.399   6.497  65.870  1.00  0.00    -0.140 A  
HETATM    8  C   UNL     1      -8.738   5.533  64.902  1.00  0.00    -0.067 A  
HETATM    9  C   UNL     1      -8.740   4.175  65.224  1.00  0.00    -0.122 A  
HETATM   10  C   UNL     1      -8.391   3.791  66.524  1.00  0.00    -0.104 A  
HETATM   11  H   UNL     1      -8.159   2.207  67.758  1.00  0.00     0.000 HD 
HETATM   12  C   UNL     1      -8.039   4.725  67.490  1.00  0.00    -0.101 A  
HETATM   13  C   UNL     1      -8.047   6.081  67.163  1.00  0.00    -0.106 A  
HETATM   14  O   UNL     1      -8.396   2.468  66.876  1.00  0.00    -0.081 OA 
BRANCH   9  15
HETATM   15  O   UNL     1      -9.069   3.143  64.383  1.00  0.00    -0.113 OA 
HETATM   16  C   UNL     1      -8.095   2.784  63.410  1.00  0.00    -0.077 C  
ENDBRANCH   9  15
ENDBRANCH   6   7
ENDBRANCH   5   6
ENDBRANCH   4   5
ENDBRANCH   3   4
ENDBRANCH   2   3
TORSDOF 6
ENDMDL
MODEL      293
REMARK 921   NORMALIZED FREE ENERGY PREDICTED BY IDOCK:   -1.46 KCAL/MOL
REMARK 922        TOTAL FREE ENERGY PREDICTED BY IDOCK:   -2.28 KCAL/MOL
REMARK 923 INTER-LIGAND FREE ENERGY PREDICTED BY IDOCK:   -1.70 KCAL/MOL
REMARK 924 INTRA-LIGAND FREE ENERGY PREDICTED BY IDOCK:   -0.59 KCAL/MOL
REMARK 927      BINDING AFFINITY PREDICTED BY RF-SCORE:    0.00 PKD
ROOT
HETATM    1  C   UNL     1      -7.824  10.008  69.869  1.00  0.00    -0.185 C  
HETATM    2  C   UNL     1      -8.693   8.862  69.378  1.00  0.00    -0.142 C  
ENDROOT
BRANCH   2   3
HETATM    3  C   UNL     1      -9.559   9.286  68.195  1.00  0.00    -0.159 C  
BRANCH   3   4
HETATM    4  C   UNL     1      -8.713   9.622  66.973  1.00  0.00    -0.128 C  
BRANCH   4   5
HETATM    5  O   UNL     1      -7.891   8.495  66.674  1.00  0.00    -0.089 OA 
BRANCH   5   6
HETATM    6  C   UNL     1      -8.499   7.652  65.697  1.00  0.00    -0.142 C  
BRANCH   6   7
HETATM    7  C   UNL     1      -8.441   6.220  66.167  1.00  0.00    -0.138 A  
HETATM    8  C   UNL     1      -7.676   5.879  67.298  1.00  0.00    -0.101 A  
HETATM    9  C   UNL     1      -7.568   4.548  67.705  1.00  0.00    -0.078 A  
HETATM   10  C   UNL     1      -8.240   3.563  66.972  1.00  0.00    -0.091 A  
HETATM   11  H   UNL     1      -8.601   1.579  66.840  1.00  0.00     0.000 HD 
HETATM   12  C   UNL     1      -9.013   3.881  65.862  1.00  0.00    -0.132 A  
HETATM   13  C   UNL     1      -9.110   5.212  65.457  1.00  0.00    -0.157 A  
HETATM   14  O   UNL     1      -8.144   2.247  67.337  1.00  0.00    -0.065 OA 
BRANCH   9  15
HETATM   15  O   UNL     1      -6.841   4.083  68.771  1.00  0.00    -0.045 OA 
HETATM   16  C   UNL     1      -7.396   4.307  70.062  1.00  0.00    -0.046 C  
ENDBRANCH   9  15
ENDBRANCH   6   7
ENDBRANCH   5   6
ENDBRANCH   4   5
ENDBRANCH   3   4
ENDBRANCH   2   3
TORSDOF 6
ENDMDL
MODEL      294
REMARK 921   NORMALIZED FREE ENERGY PREDICTED BY IDOCK:   -1.35 KCAL/MOL
REMARK 922        TOTAL FREE ENERGY PREDICTED BY IDOCK:   -2.14 KCAL/MOL
REMARK 923 INTER-LIGAND FREE ENERGY PREDICTED BY IDOCK:   -3.20 KCAL/MOL
REMARK 924 INTRA-LIGAND FREE ENERGY PREDICTED BY IDOCK:    1.06 KCAL/MOL
REMARK 927      BINDING AFFINITY PREDICTED BY RF-SCORE:    0.00 PKD
ROOT
HETATM    1  C   UNL     1      -6.349  14.324  70.114  1.00  0.00    -0.144 C  
HETATM    2  C   UNL     1      -6.176  15.463  69.122  1.00  0.00    -0.110 C  
ENDROOT
BRANCH   2   3
HETATM    3  C   UNL     1      -6.926  15.188  67.822  1.00  0.00    -0.190 C  
BRANCH   3   4
HETATM    4  C   UNL     1      -8.206  14.400  68.070  1.00  0.00    -0.149 C  
BRANCH   4   5
HETATM    5  O   UNL     1      -8.877  14.231  66.822  1.00  0.00    -0.233 OA 
BRANCH   5   6
HETATM    6  C   UNL     1      -8.725  15.379  65.989  1.00  0.00     0.070 C  
BRANCH   6   7
HETATM    7  C   UNL     1      -9.102  16.614  66.767  1.00  0.00    -0.261 A  
HETATM    8  C   UNL     1      -8.286  17.760  66.712  1.00  0.00    -0.271 A  
HETATM    9  C   UNL     1      -8.594  18.887  67.475  1.00  0.00    -0.275 A  
HETATM   10  C   UNL     1      -9.732  18.859  68.288  1.00  0.00    -0.361 A  
HETATM   11  H   UNL     1     -10.829  19.924  69.611  1.00  0.00     0.000 HD 
HETATM   12  C   UNL     1     -10.559  17.744  68.345  1.00  0.00    -0.297 A  
HETATM   13  C   UNL     1     -10.241  16.619  67.586  1.00  0.00    -0.285 A  
HETATM   14  O   UNL     1     -10.055  19.943  69.059  1.00  0.00    -0.434 OA 
BRANCH   9  15
HETATM   15  O   UNL     1      -7.873  20.053  67.527  1.00  0.00    -0.282 OA 
HETATM   16  C   UNL     1      -7.566  20.664  66.279  1.00  0.00     0.021 C  
ENDBRANCH   9  15
ENDBRANCH   6   7
ENDBRANCH   5   6
ENDBRANCH   4   5
ENDBRANCH   3   4
ENDBRANCH   2   3
TORSDOF 6
ENDMDL
MODEL      295
REMARK 921   NORMALIZED FREE ENERGY PREDICTED BY IDOCK:   -1.03 KCAL/MOL
REMARK 922        TOTAL FREE ENERGY PREDICTED BY IDOCK:   -1.71 KCAL/MOL
REMARK 923 INTER-LIGAND FREE ENERGY PREDICTED BY IDOCK:   -1.46 KCAL/MOL
REMARK 924 INTRA-LIGAND FREE ENERGY PREDICTED BY IDOCK:   -0.25 KCAL/MOL
REMARK 927      BINDING AFFINITY PREDICTED BY RF-SCORE:    0.00 PKD
ROOT
HETATM    1  C   UNL     1      -8.033  11.777  67.129  1.00  0.00    -0.166 C  
HETATM    2  C   UNL     1      -6.996  10.674  67.270  1.00  0.00    -0.084 C  
ENDROOT
BRANCH   2   3
HETATM    3  C   UNL     1      -6.581  10.481  68.725  1.00  0.00    -0.053 C  
BRANCH   3   4
HETATM    4  C   UNL     1      -7.641   9.722  69.515  1.00  0.00    -0.114 C  
BRANCH   4   5
HETATM    5  O   UNL     1      -7.012   8.618  70.162  1.00  0.00    -0.041 OA 
BRANCH   5   6
HETATM    6  C   UNL     1      -7.104   8.725  71.581  1.00  0.00    -0.073 C  
BRANCH   6   7
HETATM    7  C   UNL     1      -7.669   7.445  72.144  1.00  0.00    -0.092 A  
HETATM    8  C   UNL     1      -7.698   6.279  71.356  1.00  0.00    -0.100 A  
HETATM    9  C   UNL     1      -8.274   5.106  71.845  1.00  0.00    -0.117 A  
HETATM   10  C   UNL     1      -8.813   5.109  73.137  1.00  0.00    -0.115 A  
HETATM   11  H   UNL     1      -9.764   3.981  74.519  1.00  0.00     0.000 HD 
HETATM   12  C   UNL     1      -8.782   6.245  73.936  1.00  0.00    -0.128 A  
HETATM   13  C   UNL     1      -8.212   7.415  73.437  1.00  0.00    -0.151 A  
HETATM   14  O   UNL     1      -9.397   3.979  73.642  1.00  0.00    -0.103 OA 
BRANCH   9  15
HETATM   15  O   UNL     1      -8.383   3.915  71.174  1.00  0.00    -0.070 OA 
HETATM   16  C   UNL     1      -8.073   3.940  69.786  1.00  0.00    -0.054 C  
ENDBRANCH   9  15
ENDBRANCH   6   7
ENDBRANCH   5   6
ENDBRANCH   4   5
ENDBRANCH   3   4
ENDBRANCH   2   3
TORSDOF 6
ENDMDL
MODEL      296
REMARK 921   NORMALIZED FREE ENERGY PREDICTED BY IDOCK:   -0.99 KCAL/MOL
REMARK 922        TOTAL FREE ENERGY PREDICTED BY IDOCK:   -1.66 KCAL/MOL
REMARK 923 INTER-LIGAND FREE ENERGY PREDICTED BY IDOCK:   -1.38 KCAL/MOL
REMARK 924 INTRA-LIGAND FREE ENERGY PREDICTED BY IDOCK:   -0.28 KCAL/MOL
REMARK 927      BINDING AFFINITY PREDICTED BY RF-SCORE:    0.00 PKD
ROOT
HETATM    1  C   UNL     1      -6.955  20.071  71.696  1.00  0.00     0.751 C  
HETATM    2  C   UNL     1      -5.594  20.120  71.021  1.00  0.00    -0.342 C  
ENDROOT
BRANCH   2   3
HETATM    3  C   UNL     1      -5.129  18.728  70.602  1.00  0.00    -0.231 C  
BRANCH   3   4
HETATM    4  C   UNL     1      -5.508  18.422  69.158  1.00  0.00    -0.205 C  
BRANCH   4   5
HETATM    5  O   UNL     1      -5.948  19.632  68.544  1.00  0.00    -0.221 OA 
BRANCH   5   6
HETATM    6  C   UNL     1      -6.424  19.401  67.220  1.00  0.00    -0.191 C  
BRANCH   6   7
HETATM    7  C   UNL     1      -7.931  19.439  67.217  1.00  0.00    -0.292 A  
HETATM    8  C   UNL     1      -8.665  18.390  67.802  1.00  0.00    -0.278 A  
HETATM    9  C   UNL     1     -10.060  18.386  67.751  1.00  0.00    -0.356 A  
HETATM   10  C   UNL     1     -10.713  19.447  67.115  1.00  0.00    -0.483 A  
HETATM   11  H   UNL     1     -12.523  20.188  66.605  1.00  0.00     0.000 HD 
HETATM   12  C   UNL     1     -10.008  20.500  66.545  1.00  0.00    -0.329 A  
HETATM   13  C   UNL     1      -8.615  20.494  66.593  1.00  0.00    -0.156 A  
HETATM   14  O   UNL     1     -12.080  19.467  67.036  1.00  0.00     1.540 OA 
BRANCH   9  15
HETATM   15  O   UNL     1     -10.887  17.418  68.260  1.00  0.00    -0.355 OA 
HETATM   16  C   UNL     1     -10.506  16.853  69.510  1.00  0.00    -0.228 C  
ENDBRANCH   9  15
ENDBRANCH   6   7
ENDBRANCH   5   6
ENDBRANCH   4   5
ENDBRANCH   3   4
ENDBRANCH   2   3
TORSDOF 6
ENDMDL
MODEL      297
REMARK 921   NORMALIZED FREE ENERGY PREDICTED BY IDOCK:   -0.46 KCAL/MOL
REMARK 922        TOTAL FREE ENERGY PREDICTED BY IDOCK:   -0.94 KCAL/MOL
REMARK 923 INTER-LIGAND FREE ENERGY PREDICTED BY IDOCK:   -0.85 KCAL/MOL
REMARK 924 INTRA-LIGAND FREE ENERGY PREDICTED BY IDOCK:   -0.09 KCAL/MOL
REMARK 927      BINDING AFFINITY PREDICTED BY RF-SCORE:    0.00 PKD
ROOT
HETATM    1  C   UNL     1      -9.000   4.078  69.674  1.00  0.00    -0.163 C  
HETATM    2  C   UNL     1      -8.323   4.545  68.395  1.00  0.00    -0.092 C  
ENDROOT
BRANCH   2   3
HETATM    3  C   UNL     1      -8.946   3.891  67.164  1.00  0.00    -0.152 C  
BRANCH   3   4
HETATM    4  C   UNL     1     -10.338   4.443  66.881  1.00  0.00     0.111 C  
BRANCH   4   5
HETATM    5  O   UNL     1     -10.547   5.581  67.715  1.00  0.00    -0.211 OA 
BRANCH   5   6
HETATM    6  C   UNL     1     -10.841   6.744  66.944  1.00  0.00    -0.331 C  
BRANCH   6   7
HETATM    7  C   UNL     1      -9.558   7.319  66.396  1.00  0.00    -0.169 A  
HETATM    8  C   UNL     1      -8.764   8.162  67.196  1.00  0.00    -0.130 A  
HETATM    9  C   UNL     1      -7.607   8.746  66.678  1.00  0.00    -0.089 A  
HETATM   10  C   UNL     1      -7.249   8.471  65.353  1.00  0.00    -0.083 A  
HETATM   11  H   UNL     1      -5.883   8.851  63.912  1.00  0.00     0.000 HD 
HETATM   12  C   UNL     1      -8.010   7.629  64.553  1.00  0.00    -0.130 A  
HETATM   13  C   UNL     1      -9.169   7.055  65.074  1.00  0.00     0.823 A  
HETATM   14  O   UNL     1      -6.127   9.038  64.811  1.00  0.00    -0.064 OA 
BRANCH   9  15
HETATM   15  O   UNL     1      -6.762   9.599  67.342  1.00  0.00    -0.070 OA 
HETATM   16  C   UNL     1      -7.196  10.948  67.470  1.00  0.00    -0.095 C  
ENDBRANCH   9  15
ENDBRANCH   6   7
ENDBRANCH   5   6
ENDBRANCH   4   5
ENDBRANCH   3   4
ENDBRANCH   2   3
TORSDOF 6
ENDMDL
MODEL      298
REMARK 921   NORMALIZED FREE ENERGY PREDICTED BY IDOCK:   -0.17 KCAL/MOL
REMARK 922        TOTAL FREE ENERGY PREDICTED BY IDOCK:   -0.55 KCAL/MOL
REMARK 923 INTER-LIGAND FREE ENERGY PREDICTED BY IDOCK:   -0.27 KCAL/MOL
REMARK 924 INTRA-LIGAND FREE ENERGY PREDICTED BY IDOCK:   -0.27 KCAL/MOL
REMARK 927      BINDING AFFINITY PREDICTED BY RF-SCORE:    0.00 PKD
ROOT
HETATM    1  C   UNL     1      -7.155  19.988  71.847  1.00  0.00     1.054 C  
HETATM    2  C   UNL     1      -5.730  19.991  71.316  1.00  0.00    -0.371 C  
ENDROOT
BRANCH   2   3
HETATM    3  C   UNL     1      -5.148  18.581  71.270  1.00  0.00    -0.252 C  
BRANCH   3   4
HETATM    4  C   UNL     1      -5.342  17.940  69.901  1.00  0.00    -0.223 C  
BRANCH   4   5
HETATM    5  O   UNL     1      -5.437  18.979  68.929  1.00  0.00    -0.194 OA 
BRANCH   5   6
HETATM    6  C   UNL     1      -5.994  18.499  67.706  1.00  0.00    -0.184 C  
BRANCH   6   7
HETATM    7  C   UNL     1      -7.475  18.782  67.687  1.00  0.00    -0.244 A  
HETATM    8  C   UNL     1      -7.993  19.778  66.837  1.00  0.00    -0.322 A  
HETATM    9  C   UNL     1      -9.353  20.088  66.855  1.00  0.00    -0.393 A  
HETATM   10  C   UNL     1     -10.192  19.384  67.727  1.00  0.00    -0.419 A  
HETATM   11  H   UNL     1     -12.100  19.196  68.370  1.00  0.00     0.000 HD 
HETATM   12  C   UNL     1      -9.704  18.387  68.561  1.00  0.00    -0.386 A  
HETATM   13  C   UNL     1      -8.343  18.088  68.544  1.00  0.00    -0.313 A  
HETATM   14  O   UNL     1     -11.530  19.673  67.779  1.00  0.00     0.191 OA 
BRANCH   9  15
HETATM   15  O   UNL     1      -9.977  21.046  66.098  1.00  0.00     0.448 OA 
HETATM   16  C   UNL     1     -10.583  20.603  64.889  1.00  0.00     1.334 C  
ENDBRANCH   9  15
ENDBRANCH   6   7
ENDBRANCH   5   6
ENDBRANCH   4   5
ENDBRANCH   3   4
ENDBRANCH   2   3
TORSDOF 6
ENDMDL
MODEL      299
REMARK 921   NORMALIZED FREE ENERGY PREDICTED BY IDOCK:   20.56 KCAL/MOL
REMARK 922        TOTAL FREE ENERGY PREDICTED BY IDOCK:   27.45 KCAL/MOL
REMARK 923 INTER-LIGAND FREE ENERGY PREDICTED BY IDOCK:   27.03 KCAL/MOL
REMARK 924 INTRA-LIGAND FREE ENERGY PREDICTED BY IDOCK:    0.42 KCAL/MOL
REMARK 927      BINDING AFFINITY PREDICTED BY RF-SCORE:    0.00 PKD
ROOT
HETATM    1  C   UNL     1      -8.466  12.982  72.315  1.00  0.00    17.388 C  
HETATM    2  C   UNL     1      -9.491  13.864  71.620  1.00  0.00     8.477 C  
ENDROOT
BRANCH   2   3
HETATM    3  C   UNL     1      -9.669  13.466  70.158  1.00  0.00     2.926 C  
BRANCH   3   4
HETATM    4  C   UNL     1     -11.142  13.410  69.768  1.00  0.00     0.128 C  
BRANCH   4   5
HETATM    5  O   UNL     1     -11.239  12.833  68.467  1.00  0.00    -0.243 OA 
BRANCH   5   6
HETATM    6  C   UNL     1     -10.499  13.585  67.508  1.00  0.00    -0.237 C  
BRANCH   6   7
HETATM    7  C   UNL     1      -9.466  12.695  66.864  1.00  0.00    -0.229 A  
HETATM    8  C   UNL     1      -9.795  11.946  65.718  1.00  0.00    -0.262 A  
HETATM    9  C   UNL     1      -8.865  11.074  65.150  1.00  0.00    -0.106 A  
HETATM   10  C   UNL     1      -7.599  10.966  65.737  1.00  0.00    -0.018 A  
HETATM   11  H   UNL     1      -5.808  10.036  65.610  1.00  0.00     0.000 HD 
HETATM   12  C   UNL     1      -7.249  11.707  66.858  1.00  0.00    -0.125 A  
HETATM   13  C   UNL     1      -8.186  12.571  67.424  1.00  0.00    -0.183 A  
HETATM   14  O   UNL     1      -6.668  10.109  65.212  1.00  0.00    -0.111 OA 
BRANCH   9  15
HETATM   15  O   UNL     1      -9.066  10.276  64.054  1.00  0.00    -0.206 OA 
HETATM   16  C   UNL     1      -8.294  10.581  62.898  1.00  0.00    -0.173 C  
ENDBRANCH   9  15
ENDBRANCH   6   7
ENDBRANCH   5   6
ENDBRANCH   4   5
ENDBRANCH   3   4
ENDBRANCH   2   3
TORSDOF 6
ENDMDL
