MODEL        1
REMARK 921   NORMALIZED FREE ENERGY PREDICTED BY IDOCK:   -7.94 KCAL/MOL
REMARK 922        TOTAL FREE ENERGY PREDICTED BY IDOCK:  -12.65 KCAL/MOL
REMARK 923 INTER-LIGAND FREE ENERGY PREDICTED BY IDOCK:  -11.65 KCAL/MOL
REMARK 924 INTRA-LIGAND FREE ENERGY PREDICTED BY IDOCK:   -1.01 KCAL/MOL
REMARK 927      BINDING AFFINITY PREDICTED BY RF-SCORE:    0.00 PKD
ROOT
HETATM    1  C   UNL     1     -11.106  11.595  63.956  1.00  0.00    -0.458 C  
HETATM    2  C   UNL     1     -10.501  12.955  64.284  1.00  0.00    -0.430 C  
ENDROOT
BRANCH   2   3
HETATM    3  C   UNL     1     -11.537  14.068  64.452  1.00  0.00    -0.385 C  
BRANCH   3   4
HETATM    4  C   UNL     1     -11.101  15.140  65.395  1.00  0.00    -0.367 A  
HETATM    5  N   UNL     1     -10.574  16.295  65.037  1.00  0.00    -0.659 NA 
HETATM    6  C   UNL     1     -10.337  16.983  66.201  1.00  0.00    -0.319 A  
HETATM    7  C   UNL     1     -10.720  16.219  67.283  1.00  0.00    -0.265 A  
HETATM    8  C   UNL     1      -9.755  18.344  66.180  1.00  0.00    -0.236 C  
HETATM    9  N   UNL     1     -11.208  15.067  66.766  1.00  0.00    -0.339 NA 
HETATM   10  N   UNL     1     -11.747  14.081  67.546  1.00  0.00    -0.365 NA 
HETATM   11  C   UNL     1     -11.575  14.290  68.909  1.00  0.00    -0.305 C  
HETATM   12  N   UNL     1     -11.093  15.368  69.446  1.00  0.00    -0.262 N  
HETATM   13  O   UNL     1     -10.319  17.498  69.192  1.00  0.00    -0.349 OA 
HETATM   14  H   UNL     1     -11.008  15.417  70.461  1.00  0.00     0.000 HD 
HETATM   15  C   UNL     1     -10.692  16.446  68.694  1.00  0.00    -0.317 C  
BRANCH  11  16
HETATM   16  C   UNL     1     -11.977  13.176  69.855  1.00  0.00    -0.387 A  
HETATM   17  C   UNL     1     -13.227  12.285  71.744  1.00  0.00    -0.428 A  
HETATM   18  C   UNL     1     -12.909  13.365  70.903  1.00  0.00    -0.205 A  
HETATM   19  C   UNL     1     -11.362  11.923  69.700  1.00  0.00    -0.266 A  
HETATM   20  C   UNL     1     -12.622  11.042  71.576  1.00  0.00    -0.461 A  
HETATM   21  C   UNL     1     -11.691  10.868  70.558  1.00  0.00    -0.342 A  
BRANCH  18  22
HETATM   22  O   UNL     1     -13.490  14.600  71.045  1.00  0.00    -0.380 OA 
BRANCH  22  23
HETATM   23  C   UNL     1     -14.015  14.940  72.330  1.00  0.00    -0.499 C  
HETATM   24  C   UNL     1     -12.934  15.617  73.149  1.00  0.00    -0.645 C  
ENDBRANCH  22  23
ENDBRANCH  18  22
BRANCH  21  25
HETATM   25  S   UNL     1     -10.762   9.359  70.498  1.00  0.00    -0.301 S  
HETATM   26  O   UNL     1      -9.529   9.591  71.217  1.00  0.00    -0.219 OA 
HETATM   27  O   UNL     1     -10.748   8.926  69.118  1.00  0.00    -0.217 OA 
BRANCH  25  28
HETATM   28  N   UNL     1     -11.713   8.273  71.414  1.00  0.00    -0.279 N  
HETATM   29  C   UNL     1     -11.987   6.930  70.809  1.00  0.00    -0.373 C  
HETATM   30  C   UNL     1     -10.785   5.961  70.949  1.00  0.00    -0.273 C  
HETATM   31  N   UNL     1     -10.221   5.841  72.314  1.00  0.00    -0.191 NA 
HETATM   32  C   UNL     1      -9.988   7.194  72.867  1.00  0.00    -0.197 C  
HETATM   33  C   UNL     1     -11.230   8.104  72.823  1.00  0.00    -0.337 C  
BRANCH  31  34
HETATM   34  C   UNL     1     -11.067   4.987  73.159  1.00  0.00    -0.326 C  
HETATM   35  C   UNL     1     -10.515   3.580  73.361  1.00  0.00    -0.264 C  
ENDBRANCH  31  34
ENDBRANCH  25  28
ENDBRANCH  21  25
ENDBRANCH  11  16
ENDBRANCH   3   4
ENDBRANCH   2   3
TORSDOF 8
ENDMDL
MODEL        2
REMARK 921   NORMALIZED FREE ENERGY PREDICTED BY IDOCK:   -7.60 KCAL/MOL
REMARK 922        TOTAL FREE ENERGY PREDICTED BY IDOCK:  -12.16 KCAL/MOL
REMARK 923 INTER-LIGAND FREE ENERGY PREDICTED BY IDOCK:  -10.79 KCAL/MOL
REMARK 924 INTRA-LIGAND FREE ENERGY PREDICTED BY IDOCK:   -1.38 KCAL/MOL
REMARK 927      BINDING AFFINITY PREDICTED BY RF-SCORE:    0.00 PKD
ROOT
HETATM    1  C   UNL     1     -10.492  11.145  64.130  1.00  0.00    -0.442 C  
HETATM    2  C   UNL     1     -11.601  11.995  63.520  1.00  0.00    -0.553 C  
ENDROOT
BRANCH   2   3
HETATM    3  C   UNL     1     -12.532  12.630  64.555  1.00  0.00    -0.525 C  
BRANCH   3   4
HETATM    4  C   UNL     1     -11.861  13.675  65.385  1.00  0.00    -0.353 A  
HETATM    5  N   UNL     1     -11.378  14.813  64.923  1.00  0.00    -0.395 NA 
HETATM    6  C   UNL     1     -10.870  15.480  66.011  1.00  0.00    -0.300 A  
HETATM    7  C   UNL     1     -11.044  14.721  67.149  1.00  0.00    -0.333 A  
HETATM    8  C   UNL     1     -10.253  16.817  65.867  1.00  0.00    -0.345 C  
HETATM    9  N   UNL     1     -11.676  13.594  66.746  1.00  0.00    -0.370 NA 
HETATM   10  N   UNL     1     -12.075  12.622  67.623  1.00  0.00    -0.396 NA 
HETATM   11  C   UNL     1     -11.608  12.811  68.918  1.00  0.00    -0.316 C  
HETATM   12  N   UNL     1     -10.980  13.864  69.340  1.00  0.00    -0.407 N  
HETATM   13  O   UNL     1     -10.194  15.965  68.929  1.00  0.00    -0.207 OA 
HETATM   14  H   UNL     1     -10.678  13.900  70.314  1.00  0.00     0.000 HD 
HETATM   15  C   UNL     1     -10.707  14.933  68.521  1.00  0.00    -0.245 C  
BRANCH  11  16
HETATM   16  C   UNL     1     -11.842  11.704  69.926  1.00  0.00    -0.434 A  
HETATM   17  C   UNL     1     -12.919  10.761  71.896  1.00  0.00    -0.524 A  
HETATM   18  C   UNL     1     -12.761  11.830  70.997  1.00  0.00    -0.275 A  
HETATM   19  C   UNL     1     -11.082  10.529  69.807  1.00  0.00    -0.354 A  
HETATM   20  C   UNL     1     -12.170   9.595  71.764  1.00  0.00    -0.464 A  
HETATM   21  C   UNL     1     -11.254   9.485  70.723  1.00  0.00    -0.317 A  
BRANCH  18  22
HETATM   22  O   UNL     1     -13.484  12.991  71.102  1.00  0.00    -0.019 OA 
BRANCH  22  23
HETATM   23  C   UNL     1     -13.902  13.392  72.408  1.00  0.00    -0.564 C  
HETATM   24  C   UNL     1     -13.087  14.592  72.848  1.00  0.00    -0.614 C  
ENDBRANCH  22  23
ENDBRANCH  18  22
BRANCH  21  25
HETATM   25  S   UNL     1     -10.149   8.099  70.700  1.00  0.00    -0.196 S  
HETATM   26  O   UNL     1     -10.252   7.453  71.990  1.00  0.00    -0.188 OA 
HETATM   27  O   UNL     1      -8.877   8.582  70.210  1.00  0.00    -0.138 OA 
BRANCH  25  28
HETATM   28  N   UNL     1     -10.841   7.061  69.531  1.00  0.00    -0.242 N  
HETATM   29  C   UNL     1     -10.439   7.279  68.105  1.00  0.00    -0.198 C  
HETATM   30  C   UNL     1      -9.047   6.676  67.783  1.00  0.00    -0.113 C  
HETATM   31  N   UNL     1      -8.852   5.267  68.197  1.00  0.00    -0.105 NA 
HETATM   32  C   UNL     1      -9.281   5.109  69.605  1.00  0.00    -0.119 C  
HETATM   33  C   UNL     1     -10.712   5.608  69.877  1.00  0.00    -0.329 C  
BRANCH  31  34
HETATM   34  C   UNL     1      -9.516   4.348  67.263  1.00  0.00    -0.171 C  
HETATM   35  C   UNL     1      -9.366   2.877  67.634  1.00  0.00    -0.234 C  
ENDBRANCH  31  34
ENDBRANCH  25  28
ENDBRANCH  21  25
ENDBRANCH  11  16
ENDBRANCH   3   4
ENDBRANCH   2   3
TORSDOF 8
ENDMDL
MODEL        3
REMARK 921   NORMALIZED FREE ENERGY PREDICTED BY IDOCK:   -7.57 KCAL/MOL
REMARK 922        TOTAL FREE ENERGY PREDICTED BY IDOCK:  -12.12 KCAL/MOL
REMARK 923 INTER-LIGAND FREE ENERGY PREDICTED BY IDOCK:  -10.81 KCAL/MOL
REMARK 924 INTRA-LIGAND FREE ENERGY PREDICTED BY IDOCK:   -1.31 KCAL/MOL
REMARK 927      BINDING AFFINITY PREDICTED BY RF-SCORE:    0.00 PKD
ROOT
HETATM    1  C   UNL     1     -10.837  11.690  64.055  1.00  0.00    -0.455 C  
HETATM    2  C   UNL     1     -11.657  12.897  63.618  1.00  0.00    -0.547 C  
ENDROOT
BRANCH   2   3
HETATM    3  C   UNL     1     -12.395  13.591  64.765  1.00  0.00    -0.435 C  
BRANCH   3   4
HETATM    4  C   UNL     1     -11.495  14.404  65.635  1.00  0.00    -0.336 A  
HETATM    5  N   UNL     1     -10.726  15.392  65.216  1.00  0.00    -0.393 NA 
HETATM    6  C   UNL     1     -10.086  15.875  66.331  1.00  0.00    -0.292 A  
HETATM    7  C   UNL     1     -10.470  15.154  67.442  1.00  0.00    -0.264 A  
HETATM    8  C   UNL     1      -9.142  17.011  66.237  1.00  0.00    -0.279 C  
HETATM    9  N   UNL     1     -11.363  14.240  66.995  1.00  0.00    -0.326 NA 
HETATM   10  N   UNL     1     -12.016  13.379  67.835  1.00  0.00    -0.347 NA 
HETATM   11  C   UNL     1     -11.542  13.405  69.141  1.00  0.00    -0.315 C  
HETATM   12  N   UNL     1     -10.672  14.249  69.605  1.00  0.00    -0.447 N  
HETATM   13  O   UNL     1      -9.365  16.087  69.271  1.00  0.00    -0.241 OA 
HETATM   14  H   UNL     1     -10.390  14.178  70.582  1.00  0.00     0.000 HD 
HETATM   15  C   UNL     1     -10.117  15.233  68.824  1.00  0.00    -0.219 C  
BRANCH  11  16
HETATM   16  C   UNL     1     -12.072  12.368  70.111  1.00  0.00    -0.366 A  
HETATM   17  C   UNL     1     -13.380  11.682  72.047  1.00  0.00    -0.405 A  
HETATM   18  C   UNL     1     -12.934  12.699  71.185  1.00  0.00    -0.151 A  
HETATM   19  C   UNL     1     -11.653  11.037  69.951  1.00  0.00    -0.416 A  
HETATM   20  C   UNL     1     -12.969  10.363  71.874  1.00  0.00    -0.555 A  
HETATM   21  C   UNL     1     -12.106  10.047  70.830  1.00  0.00    -0.355 A  
BRANCH  18  22
HETATM   22  O   UNL     1     -13.322  14.006  71.330  1.00  0.00    -0.340 OA 
BRANCH  22  23
HETATM   23  C   UNL     1     -13.240  14.578  72.637  1.00  0.00    -0.481 C  
HETATM   24  C   UNL     1     -12.019  15.473  72.716  1.00  0.00    -0.573 C  
ENDBRANCH  22  23
ENDBRANCH  18  22
BRANCH  21  25
HETATM   25  S   UNL     1     -11.411   8.418  70.759  1.00  0.00    -0.246 S  
HETATM   26  O   UNL     1     -10.628   8.343  69.545  1.00  0.00    -0.227 OA 
HETATM   27  O   UNL     1     -12.490   7.487  71.006  1.00  0.00    -0.293 OA 
BRANCH  25  28
HETATM   28  N   UNL     1     -10.334   8.389  72.087  1.00  0.00    -0.299 N  
HETATM   29  C   UNL     1     -10.742   7.576  73.277  1.00  0.00    -0.382 C  
HETATM   30  C   UNL     1     -10.494   6.060  73.072  1.00  0.00    -0.224 C  
HETATM   31  N   UNL     1      -9.137   5.695  72.599  1.00  0.00    -0.132 NA 
HETATM   32  C   UNL     1      -8.782   6.540  71.437  1.00  0.00    -0.130 C  
HETATM   33  C   UNL     1      -8.926   8.050  71.701  1.00  0.00    -0.150 C  
BRANCH  31  34
HETATM   34  C   UNL     1      -8.165   5.752  73.699  1.00  0.00    -0.111 C  
HETATM   35  C   UNL     1      -6.745   5.381  73.286  1.00  0.00    -0.077 C  
ENDBRANCH  31  34
ENDBRANCH  25  28
ENDBRANCH  21  25
ENDBRANCH  11  16
ENDBRANCH   3   4
ENDBRANCH   2   3
TORSDOF 8
ENDMDL
MODEL        4
REMARK 921   NORMALIZED FREE ENERGY PREDICTED BY IDOCK:   -7.34 KCAL/MOL
REMARK 922        TOTAL FREE ENERGY PREDICTED BY IDOCK:  -11.78 KCAL/MOL
REMARK 923 INTER-LIGAND FREE ENERGY PREDICTED BY IDOCK:  -10.58 KCAL/MOL
REMARK 924 INTRA-LIGAND FREE ENERGY PREDICTED BY IDOCK:   -1.21 KCAL/MOL
REMARK 927      BINDING AFFINITY PREDICTED BY RF-SCORE:    0.00 PKD
ROOT
HETATM    1  C   UNL     1     -12.366  12.057  63.333  1.00  0.00    -0.635 C  
HETATM    2  C   UNL     1     -11.497  12.973  64.187  1.00  0.00    -0.452 C  
ENDROOT
BRANCH   2   3
HETATM    3  C   UNL     1     -12.240  14.193  64.737  1.00  0.00    -0.457 C  
BRANCH   3   4
HETATM    4  C   UNL     1     -11.385  15.061  65.600  1.00  0.00    -0.297 A  
HETATM    5  N   UNL     1     -10.614  16.039  65.162  1.00  0.00    -0.566 NA 
HETATM    6  C   UNL     1     -10.023  16.586  66.274  1.00  0.00    -0.329 A  
HETATM    7  C   UNL     1     -10.440  15.914  67.404  1.00  0.00    -0.306 A  
HETATM    8  C   UNL     1      -9.092  17.731  66.160  1.00  0.00    -0.128 C  
HETATM    9  N   UNL     1     -11.303  14.965  66.970  1.00  0.00    -0.349 NA 
HETATM   10  N   UNL     1     -11.975  14.137  67.827  1.00  0.00    -0.372 NA 
HETATM   11  C   UNL     1     -11.551  14.233  69.147  1.00  0.00    -0.305 C  
HETATM   12  N   UNL     1     -10.711  15.112  69.600  1.00  0.00    -0.267 N  
HETATM   13  O   UNL     1      -9.418  16.952  69.225  1.00  0.00    -0.186 OA 
HETATM   14  H   UNL     1     -10.466  15.094  70.590  1.00  0.00     0.000 HD 
HETATM   15  C   UNL     1     -10.141  16.066  68.793  1.00  0.00    -0.225 C  
BRANCH  11  16
HETATM   16  C   UNL     1     -12.104  13.237  70.146  1.00  0.00    -0.403 A  
HETATM   17  C   UNL     1     -13.444  12.632  72.086  1.00  0.00    -0.561 A  
HETATM   18  C   UNL     1     -12.978  13.614  71.194  1.00  0.00    -0.278 A  
HETATM   19  C   UNL     1     -11.693  11.897  70.040  1.00  0.00    -0.366 A  
HETATM   20  C   UNL     1     -13.042  11.305  71.967  1.00  0.00    -0.431 A  
HETATM   21  C   UNL     1     -12.168  10.944  70.948  1.00  0.00    -0.381 A  
BRANCH  18  22
HETATM   22  O   UNL     1     -13.357  14.929  71.286  1.00  0.00    -0.369 OA 
BRANCH  22  23
HETATM   23  C   UNL     1     -13.416  15.509  72.591  1.00  0.00    -0.547 C  
HETATM   24  C   UNL     1     -12.009  15.663  73.134  1.00  0.00    -0.584 C  
ENDBRANCH  22  23
ENDBRANCH  18  22
BRANCH  21  25
HETATM   25  S   UNL     1     -11.485   9.308  70.946  1.00  0.00    -0.324 S  
HETATM   26  O   UNL     1     -12.588   8.389  70.773  1.00  0.00    -0.026 OA 
HETATM   27  O   UNL     1     -10.613   9.213  72.096  1.00  0.00    -0.276 OA 
BRANCH  25  28
HETATM   28  N   UNL     1     -10.540   9.275  69.523  1.00  0.00    -0.221 N  
HETATM   29  C   UNL     1      -9.126   9.758  69.634  1.00  0.00    -0.220 C  
HETATM   30  C   UNL     1      -8.184   8.695  70.256  1.00  0.00    -0.119 C  
HETATM   31  N   UNL     1      -8.256   7.346  69.647  1.00  0.00    -0.128 NA 
HETATM   32  C   UNL     1      -9.673   6.930  69.547  1.00  0.00    -0.158 C  
HETATM   33  C   UNL     1     -10.569   7.951  68.821  1.00  0.00    -0.127 C  
BRANCH  31  34
HETATM   34  C   UNL     1      -7.530   7.308  68.370  1.00  0.00    -0.106 C  
HETATM   35  C   UNL     1      -7.036   5.917  67.984  1.00  0.00    -0.074 C  
ENDBRANCH  31  34
ENDBRANCH  25  28
ENDBRANCH  21  25
ENDBRANCH  11  16
ENDBRANCH   3   4
ENDBRANCH   2   3
TORSDOF 8
ENDMDL
MODEL        5
REMARK 921   NORMALIZED FREE ENERGY PREDICTED BY IDOCK:   -7.24 KCAL/MOL
REMARK 922        TOTAL FREE ENERGY PREDICTED BY IDOCK:  -11.64 KCAL/MOL
REMARK 923 INTER-LIGAND FREE ENERGY PREDICTED BY IDOCK:  -10.60 KCAL/MOL
REMARK 924 INTRA-LIGAND FREE ENERGY PREDICTED BY IDOCK:   -1.04 KCAL/MOL
REMARK 927      BINDING AFFINITY PREDICTED BY RF-SCORE:    0.00 PKD
ROOT
HETATM    1  C   UNL     1     -10.679   6.674  67.234  1.00  0.00    -0.427 C  
HETATM    2  C   UNL     1     -10.439   8.089  66.721  1.00  0.00    -0.319 C  
ENDROOT
BRANCH   2   3
HETATM    3  C   UNL     1      -9.602   8.955  67.664  1.00  0.00    -0.181 C  
BRANCH   3   4
HETATM    4  C   UNL     1     -10.414   9.618  68.727  1.00  0.00    -0.215 A  
HETATM    5  N   UNL     1     -10.805   9.045  69.850  1.00  0.00    -0.228 NA 
HETATM    6  C   UNL     1     -11.504  10.003  70.543  1.00  0.00    -0.330 A  
HETATM    7  C   UNL     1     -11.542  11.174  69.816  1.00  0.00    -0.334 A  
HETATM    8  C   UNL     1     -12.086   9.712  71.872  1.00  0.00    -0.380 C  
HETATM    9  N   UNL     1     -10.846  10.925  68.682  1.00  0.00    -0.200 NA 
HETATM   10  N   UNL     1     -10.614  11.886  67.736  1.00  0.00    -0.198 NA 
HETATM   11  C   UNL     1     -11.311  13.068  67.957  1.00  0.00    -0.290 C  
HETATM   12  N   UNL     1     -12.007  13.338  69.018  1.00  0.00    -0.311 N  
HETATM   13  O   UNL     1     -12.704  12.733  71.102  1.00  0.00    -0.359 OA 
HETATM   14  H   UNL     1     -12.482  14.239  69.078  1.00  0.00     0.000 HD 
HETATM   15  C   UNL     1     -12.125  12.454  70.062  1.00  0.00    -0.263 C  
BRANCH  11  16
HETATM   16  C   UNL     1     -11.265  14.132  66.879  1.00  0.00    -0.326 A  
HETATM   17  C   UNL     1     -11.846  15.022  64.688  1.00  0.00    -0.378 A  
HETATM   18  C   UNL     1     -11.940  13.993  65.642  1.00  0.00    -0.397 A  
HETATM   19  C   UNL     1     -10.488  15.279  67.114  1.00  0.00    -0.280 A  
HETATM   20  C   UNL     1     -11.083  16.161  64.933  1.00  0.00    -0.336 A  
HETATM   21  C   UNL     1     -10.406  16.282  66.142  1.00  0.00    -0.341 A  
BRANCH  18  22
HETATM   22  O   UNL     1     -12.684  12.861  65.428  1.00  0.00    -0.583 OA 
BRANCH  22  23
HETATM   23  C   UNL     1     -12.492  12.168  64.193  1.00  0.00    -0.396 C  
HETATM   24  C   UNL     1     -11.153  11.458  64.221  1.00  0.00    -0.356 C  
ENDBRANCH  22  23
ENDBRANCH  18  22
BRANCH  21  25
HETATM   25  S   UNL     1      -9.260  17.619  66.349  1.00  0.00    -0.208 S  
HETATM   26  O   UNL     1      -9.974  18.840  66.047  1.00  0.00    -0.473 OA 
HETATM   27  O   UNL     1      -8.060  17.262  65.626  1.00  0.00    -0.454 OA 
BRANCH  25  28
HETATM   28  N   UNL     1      -8.929  17.600  68.026  1.00  0.00    -0.258 N  
HETATM   29  C   UNL     1      -7.839  16.685  68.494  1.00  0.00    -0.218 C  
HETATM   30  C   UNL     1      -6.426  17.271  68.245  1.00  0.00    -0.166 C  
HETATM   31  N   UNL     1      -6.218  18.658  68.723  1.00  0.00    -0.215 NA 
HETATM   32  C   UNL     1      -7.331  19.510  68.245  1.00  0.00    -0.311 C  
HETATM   33  C   UNL     1      -8.726  18.967  68.606  1.00  0.00    -0.352 C  
BRANCH  31  34
HETATM   34  C   UNL     1      -6.024  18.688  70.178  1.00  0.00    -0.164 C  
HETATM   35  C   UNL     1      -5.838  20.091  70.746  1.00  0.00    -0.356 C  
ENDBRANCH  31  34
ENDBRANCH  25  28
ENDBRANCH  21  25
ENDBRANCH  11  16
ENDBRANCH   3   4
ENDBRANCH   2   3
TORSDOF 8
ENDMDL
MODEL        6
REMARK 921   NORMALIZED FREE ENERGY PREDICTED BY IDOCK:   -7.07 KCAL/MOL
REMARK 922        TOTAL FREE ENERGY PREDICTED BY IDOCK:  -11.38 KCAL/MOL
REMARK 923 INTER-LIGAND FREE ENERGY PREDICTED BY IDOCK:  -10.11 KCAL/MOL
REMARK 924 INTRA-LIGAND FREE ENERGY PREDICTED BY IDOCK:   -1.27 KCAL/MOL
REMARK 927      BINDING AFFINITY PREDICTED BY RF-SCORE:    0.00 PKD
ROOT
HETATM    1  C   UNL     1     -14.265  14.851  71.481  1.00  0.00    -0.617 C  
HETATM    2  C   UNL     1     -12.892  15.481  71.277  1.00  0.00    -0.540 C  
ENDROOT
BRANCH   2   3
HETATM    3  C   UNL     1     -11.966  14.664  70.373  1.00  0.00    -0.375 C  
BRANCH   3   4
HETATM    4  C   UNL     1     -11.322  15.480  69.301  1.00  0.00    -0.325 A  
HETATM    5  N   UNL     1     -11.294  16.800  69.267  1.00  0.00    -0.025 NA 
HETATM    6  C   UNL     1     -10.595  17.137  68.135  1.00  0.00    -0.380 A  
HETATM    7  C   UNL     1     -10.204  15.995  67.468  1.00  0.00    -0.275 A  
HETATM    8  C   UNL     1     -10.351  18.553  67.781  1.00  0.00    -0.435 C  
HETATM    9  N   UNL     1     -10.657  14.960  68.214  1.00  0.00    -0.236 NA 
HETATM   10  N   UNL     1     -10.399  13.655  67.894  1.00  0.00    -0.243 NA 
HETATM   11  C   UNL     1      -9.802  13.492  66.650  1.00  0.00    -0.279 C  
HETATM   12  N   UNL     1      -9.373  14.455  65.894  1.00  0.00    -0.530 N  
HETATM   13  O   UNL     1      -8.991  16.683  65.599  1.00  0.00    -0.463 OA 
HETATM   14  H   UNL     1      -8.951  14.224  64.995  1.00  0.00     0.000 HD 
HETATM   15  C   UNL     1      -9.470  15.775  66.262  1.00  0.00    -0.317 C  
BRANCH  11  16
HETATM   16  C   UNL     1      -9.635  12.082  66.121  1.00  0.00    -0.252 A  
HETATM   17  C   UNL     1      -9.750  10.400  64.364  1.00  0.00    -0.396 A  
HETATM   18  C   UNL     1      -9.924  11.731  64.780  1.00  0.00    -0.243 A  
HETATM   19  C   UNL     1      -9.214  11.084  67.017  1.00  0.00    -0.164 A  
HETATM   20  C   UNL     1      -9.321   9.420  65.255  1.00  0.00    -0.303 A  
HETATM   21  C   UNL     1      -9.058   9.765  66.576  1.00  0.00    -0.153 A  
BRANCH  18  22
HETATM   22  O   UNL     1     -10.345  12.718  63.924  1.00  0.00    -0.420 OA 
BRANCH  22  23
HETATM   23  C   UNL     1     -11.688  12.646  63.443  1.00  0.00    -0.498 C  
HETATM   24  C   UNL     1     -12.643  12.669  64.620  1.00  0.00    -0.517 C  
ENDBRANCH  22  23
ENDBRANCH  18  22
BRANCH  21  25
HETATM   25  S   UNL     1      -8.738   8.475  67.750  1.00  0.00    -0.137 S  
HETATM   26  O   UNL     1      -7.303   8.307  67.814  1.00  0.00    -0.089 OA 
HETATM   27  O   UNL     1      -9.602   7.368  67.405  1.00  0.00    -0.138 OA 
BRANCH  25  28
HETATM   28  N   UNL     1      -9.259   9.150  69.231  1.00  0.00    -0.144 N  
HETATM   29  C   UNL     1     -10.700   8.963  69.596  1.00  0.00    -0.217 C  
HETATM   30  C   UNL     1     -10.988   7.550  70.164  1.00  0.00    -0.254 C  
HETATM   31  N   UNL     1     -10.086   7.105  71.253  1.00  0.00    -0.190 NA 
HETATM   32  C   UNL     1      -8.681   7.330  70.845  1.00  0.00    -0.148 C  
HETATM   33  C   UNL     1      -8.390   8.773  70.393  1.00  0.00    -0.140 C  
BRANCH  31  34
HETATM   34  C   UNL     1     -10.448   7.742  72.527  1.00  0.00    -0.284 C  
HETATM   35  C   UNL     1     -10.447   6.786  73.715  1.00  0.00    -0.383 C  
ENDBRANCH  31  34
ENDBRANCH  25  28
ENDBRANCH  21  25
ENDBRANCH  11  16
ENDBRANCH   3   4
ENDBRANCH   2   3
TORSDOF 8
ENDMDL
MODEL        7
REMARK 921   NORMALIZED FREE ENERGY PREDICTED BY IDOCK:   -7.03 KCAL/MOL
REMARK 922        TOTAL FREE ENERGY PREDICTED BY IDOCK:  -11.33 KCAL/MOL
REMARK 923 INTER-LIGAND FREE ENERGY PREDICTED BY IDOCK:  -10.26 KCAL/MOL
REMARK 924 INTRA-LIGAND FREE ENERGY PREDICTED BY IDOCK:   -1.08 KCAL/MOL
REMARK 927      BINDING AFFINITY PREDICTED BY RF-SCORE:    0.00 PKD
ROOT
HETATM    1  C   UNL     1      -9.850  11.698  63.275  1.00  0.00    -0.428 C  
HETATM    2  C   UNL     1     -10.910  11.433  64.337  1.00  0.00    -0.397 C  
ENDROOT
BRANCH   2   3
HETATM    3  C   UNL     1     -11.939  12.557  64.478  1.00  0.00    -0.472 C  
BRANCH   3   4
HETATM    4  C   UNL     1     -11.488  13.656  65.382  1.00  0.00    -0.311 A  
HETATM    5  N   UNL     1     -11.112  14.857  64.985  1.00  0.00    -0.391 NA 
HETATM    6  C   UNL     1     -10.798  15.555  66.125  1.00  0.00    -0.295 A  
HETATM    7  C   UNL     1     -10.979  14.751  67.231  1.00  0.00    -0.318 A  
HETATM    8  C   UNL     1     -10.345  16.962  66.060  1.00  0.00    -0.335 C  
HETATM    9  N   UNL     1     -11.422  13.564  66.754  1.00  0.00    -0.331 NA 
HETATM   10  N   UNL     1     -11.775  12.527  67.574  1.00  0.00    -0.375 NA 
HETATM   11  C   UNL     1     -11.459  12.740  68.911  1.00  0.00    -0.305 C  
HETATM   12  N   UNL     1     -11.012  13.853  69.406  1.00  0.00    -0.407 N  
HETATM   13  O   UNL     1     -10.466  16.045  69.102  1.00  0.00    -0.218 OA 
HETATM   14  H   UNL     1     -10.810  13.901  70.405  1.00  0.00     0.000 HD 
HETATM   15  C   UNL     1     -10.802  14.968  68.632  1.00  0.00    -0.249 C  
BRANCH  11  16
HETATM   16  C   UNL     1     -11.644  11.587  69.877  1.00  0.00    -0.387 A  
HETATM   17  C   UNL     1     -12.682  10.522  71.804  1.00  0.00    -0.508 A  
HETATM   18  C   UNL     1     -12.572  11.629  70.945  1.00  0.00    -0.313 A  
HETATM   19  C   UNL     1     -10.827  10.455  69.719  1.00  0.00    -0.342 A  
HETATM   20  C   UNL     1     -11.878   9.398  71.634  1.00  0.00    -0.464 A  
HETATM   21  C   UNL     1     -10.953   9.371  70.596  1.00  0.00    -0.290 A  
BRANCH  18  22
HETATM   22  O   UNL     1     -13.351  12.749  71.089  1.00  0.00    -0.060 OA 
BRANCH  22  23
HETATM   23  C   UNL     1     -13.598  13.217  72.416  1.00  0.00    -0.567 C  
HETATM   24  C   UNL     1     -12.789  14.475  72.661  1.00  0.00    -0.498 C  
ENDBRANCH  22  23
ENDBRANCH  18  22
BRANCH  21  25
HETATM   25  S   UNL     1      -9.782   8.041  70.529  1.00  0.00    -0.178 S  
HETATM   26  O   UNL     1      -8.826   8.265  71.591  1.00  0.00    -0.140 OA 
HETATM   27  O   UNL     1      -9.352   7.926  69.153  1.00  0.00    -0.154 OA 
BRANCH  25  28
HETATM   28  N   UNL     1     -10.717   6.670  70.939  1.00  0.00    -0.228 N  
HETATM   29  C   UNL     1     -10.625   5.486  70.025  1.00  0.00    -0.314 C  
HETATM   30  C   UNL     1      -9.340   4.653  70.263  1.00  0.00    -0.149 C  
HETATM   31  N   UNL     1      -9.076   4.278  71.672  1.00  0.00    -0.119 NA 
HETATM   32  C   UNL     1      -9.197   5.480  72.527  1.00  0.00    -0.142 C  
HETATM   33  C   UNL     1     -10.532   6.229  72.359  1.00  0.00    -0.196 C  
BRANCH  31  34
HETATM   34  C   UNL     1      -9.933   3.160  72.088  1.00  0.00    -0.162 C  
HETATM   35  C   UNL     1      -9.629   1.851  71.367  1.00  0.00    -0.213 C  
ENDBRANCH  31  34
ENDBRANCH  25  28
ENDBRANCH  21  25
ENDBRANCH  11  16
ENDBRANCH   3   4
ENDBRANCH   2   3
TORSDOF 8
ENDMDL
MODEL        8
REMARK 921   NORMALIZED FREE ENERGY PREDICTED BY IDOCK:   -7.03 KCAL/MOL
REMARK 922        TOTAL FREE ENERGY PREDICTED BY IDOCK:  -11.32 KCAL/MOL
REMARK 923 INTER-LIGAND FREE ENERGY PREDICTED BY IDOCK:  -10.25 KCAL/MOL
REMARK 924 INTRA-LIGAND FREE ENERGY PREDICTED BY IDOCK:   -1.07 KCAL/MOL
REMARK 927      BINDING AFFINITY PREDICTED BY RF-SCORE:    0.00 PKD
ROOT
HETATM    1  C   UNL     1     -11.855   8.192  72.360  1.00  0.00    -0.448 C  
HETATM    2  C   UNL     1     -11.884   9.590  71.753  1.00  0.00    -0.430 C  
ENDROOT
BRANCH   2   3
HETATM    3  C   UNL     1     -13.197  10.339  71.991  1.00  0.00    -0.516 C  
BRANCH   3   4
HETATM    4  C   UNL     1     -13.092  11.805  71.729  1.00  0.00    -0.375 A  
HETATM    5  N   UNL     1     -13.511  12.752  72.547  1.00  0.00    -0.435 NA 
HETATM    6  C   UNL     1     -13.209  13.944  71.935  1.00  0.00    -0.397 A  
HETATM    7  C   UNL     1     -12.605  13.707  70.719  1.00  0.00    -0.325 A  
HETATM    8  C   UNL     1     -13.527  15.237  72.582  1.00  0.00    -0.610 C  
HETATM    9  N   UNL     1     -12.527  12.361  70.603  1.00  0.00    -0.284 NA 
HETATM   10  N   UNL     1     -11.921  11.748  69.540  1.00  0.00    -0.309 NA 
HETATM   11  C   UNL     1     -11.569  12.621  68.518  1.00  0.00    -0.323 C  
HETATM   12  N   UNL     1     -11.648  13.915  68.579  1.00  0.00    -0.309 N  
HETATM   13  O   UNL     1     -12.095  15.789  69.798  1.00  0.00    -0.353 OA 
HETATM   14  H   UNL     1     -11.364  14.464  67.767  1.00  0.00     0.000 HD 
HETATM   15  C   UNL     1     -12.100  14.570  69.698  1.00  0.00    -0.323 C  
BRANCH  11  16
HETATM   16  C   UNL     1     -11.055  12.028  67.222  1.00  0.00    -0.341 A  
HETATM   17  C   UNL     1     -10.964  11.879  64.793  1.00  0.00    -0.366 A  
HETATM   18  C   UNL     1     -11.483  12.483  65.951  1.00  0.00    -0.373 A  
HETATM   19  C   UNL     1     -10.147  10.958  67.299  1.00  0.00    -0.225 A  
HETATM   20  C   UNL     1     -10.056  10.827  64.878  1.00  0.00    -0.387 A  
HETATM   21  C   UNL     1      -9.655  10.370  66.128  1.00  0.00    -0.196 A  
BRANCH  18  22
HETATM   22  O   UNL     1     -12.378  13.522  65.899  1.00  0.00    -0.438 OA 
BRANCH  22  23
HETATM   23  C   UNL     1     -12.248  14.452  64.822  1.00  0.00    -0.446 C  
HETATM   24  C   UNL     1     -11.036  15.330  65.063  1.00  0.00    -0.450 C  
ENDBRANCH  22  23
ENDBRANCH  18  22
BRANCH  21  25
HETATM   25  S   UNL     1      -8.684   8.889  66.226  1.00  0.00    -0.149 S  
HETATM   26  O   UNL     1      -7.353   9.281  66.633  1.00  0.00    -0.085 OA 
HETATM   27  O   UNL     1      -8.901   8.161  64.995  1.00  0.00    -0.043 OA 
BRANCH  25  28
HETATM   28  N   UNL     1      -9.402   8.030  67.517  1.00  0.00    -0.145 N  
HETATM   29  C   UNL     1     -10.612   7.207  67.198  1.00  0.00    -0.347 C  
HETATM   30  C   UNL     1     -10.250   5.855  66.530  1.00  0.00    -0.162 C  
HETATM   31  N   UNL     1      -9.214   5.058  67.228  1.00  0.00    -0.118 NA 
HETATM   32  C   UNL     1      -8.054   5.924  67.533  1.00  0.00    -0.102 C  
HETATM   33  C   UNL     1      -8.423   7.208  68.300  1.00  0.00    -0.124 C  
BRANCH  31  34
HETATM   34  C   UNL     1      -9.778   4.379  68.403  1.00  0.00    -0.105 C  
HETATM   35  C   UNL     1      -9.083   3.066  68.748  1.00  0.00    -0.211 C  
ENDBRANCH  31  34
ENDBRANCH  25  28
ENDBRANCH  21  25
ENDBRANCH  11  16
ENDBRANCH   3   4
ENDBRANCH   2   3
TORSDOF 8
ENDMDL
MODEL        9
REMARK 921   NORMALIZED FREE ENERGY PREDICTED BY IDOCK:   -6.86 KCAL/MOL
REMARK 922        TOTAL FREE ENERGY PREDICTED BY IDOCK:  -11.07 KCAL/MOL
REMARK 923 INTER-LIGAND FREE ENERGY PREDICTED BY IDOCK:  -10.45 KCAL/MOL
REMARK 924 INTRA-LIGAND FREE ENERGY PREDICTED BY IDOCK:   -0.62 KCAL/MOL
REMARK 927      BINDING AFFINITY PREDICTED BY RF-SCORE:    0.00 PKD
ROOT
HETATM    1  C   UNL     1     -12.354  11.726  63.675  1.00  0.00    -0.488 C  
HETATM    2  C   UNL     1     -12.305  12.792  64.764  1.00  0.00    -0.540 C  
ENDROOT
BRANCH   2   3
HETATM    3  C   UNL     1     -12.122  14.213  64.228  1.00  0.00    -0.471 C  
BRANCH   3   4
HETATM    4  C   UNL     1     -11.446  15.124  65.199  1.00  0.00    -0.304 A  
HETATM    5  N   UNL     1     -10.893  16.282  64.892  1.00  0.00    -0.671 NA 
HETATM    6  C   UNL     1     -10.408  16.797  66.070  1.00  0.00    -0.335 A  
HETATM    7  C   UNL     1     -10.667  15.923  67.104  1.00  0.00    -0.301 A  
HETATM    8  C   UNL     1      -9.728  18.110  66.106  1.00  0.00    -0.217 C  
HETATM    9  N   UNL     1     -11.328  14.880  66.549  1.00  0.00    -0.342 NA 
HETATM   10  N   UNL     1     -11.809  13.836  67.290  1.00  0.00    -0.383 NA 
HETATM   11  C   UNL     1     -11.395  13.854  68.617  1.00  0.00    -0.278 C  
HETATM   12  N   UNL     1     -10.742  14.822  69.183  1.00  0.00    -0.249 N  
HETATM   13  O   UNL     1      -9.848  16.915  69.050  1.00  0.00    -0.259 OA 
HETATM   14  H   UNL     1     -10.484  14.732  70.166  1.00  0.00     0.000 HD 
HETATM   15  C   UNL     1     -10.385  15.961  68.504  1.00  0.00    -0.232 C  
BRANCH  11  16
HETATM   16  C   UNL     1     -11.723  12.653  69.480  1.00  0.00    -0.374 A  
HETATM   17  C   UNL     1     -12.826  11.578  71.366  1.00  0.00    -0.489 A  
HETATM   18  C   UNL     1     -12.573  12.736  70.610  1.00  0.00    -0.168 A  
HETATM   19  C   UNL     1     -11.122  11.424  69.161  1.00  0.00    -0.317 A  
HETATM   20  C   UNL     1     -12.236  10.361  71.036  1.00  0.00    -0.498 A  
HETATM   21  C   UNL     1     -11.385  10.291  69.938  1.00  0.00    -0.290 A  
BRANCH  18  22
HETATM   22  O   UNL     1     -13.141  13.948  70.911  1.00  0.00    -0.284 OA 
BRANCH  22  23
HETATM   23  C   UNL     1     -13.589  14.151  72.253  1.00  0.00    -0.500 C  
HETATM   24  C   UNL     1     -13.085  15.492  72.750  1.00  0.00    -0.579 C  
ENDBRANCH  22  23
ENDBRANCH  18  22
BRANCH  21  25
HETATM   25  S   UNL     1     -10.464   8.800  69.665  1.00  0.00    -0.219 S  
HETATM   26  O   UNL     1     -11.288   7.703  70.121  1.00  0.00    -0.237 OA 
HETATM   27  O   UNL     1      -9.143   9.015  70.212  1.00  0.00    -0.169 OA 
BRANCH  25  28
HETATM   28  N   UNL     1     -10.355   8.709  67.962  1.00  0.00    -0.223 N  
HETATM   29  C   UNL     1      -9.093   9.213  67.332  1.00  0.00    -0.127 C  
HETATM   30  C   UNL     1      -7.930   8.193  67.439  1.00  0.00    -0.117 C  
HETATM   31  N   UNL     1      -8.250   6.815  66.997  1.00  0.00    -0.112 NA 
HETATM   32  C   UNL     1      -9.512   6.378  67.635  1.00  0.00    -0.119 C  
HETATM   33  C   UNL     1     -10.685   7.351  67.418  1.00  0.00    -0.278 C  
BRANCH  31  34
HETATM   34  C   UNL     1      -8.258   6.722  65.531  1.00  0.00    -0.131 C  
HETATM   35  C   UNL     1      -8.528   5.317  65.004  1.00  0.00    -0.150 C  
ENDBRANCH  31  34
ENDBRANCH  25  28
ENDBRANCH  21  25
ENDBRANCH  11  16
ENDBRANCH   3   4
ENDBRANCH   2   3
TORSDOF 8
ENDMDL
MODEL       10
REMARK 921   NORMALIZED FREE ENERGY PREDICTED BY IDOCK:   -6.83 KCAL/MOL
REMARK 922        TOTAL FREE ENERGY PREDICTED BY IDOCK:  -11.03 KCAL/MOL
REMARK 923 INTER-LIGAND FREE ENERGY PREDICTED BY IDOCK:   -9.95 KCAL/MOL
REMARK 924 INTRA-LIGAND FREE ENERGY PREDICTED BY IDOCK:   -1.07 KCAL/MOL
REMARK 927      BINDING AFFINITY PREDICTED BY RF-SCORE:    0.00 PKD
ROOT
HETATM    1  C   UNL     1     -12.394  11.851  63.477  1.00  0.00    -0.603 C  
HETATM    2  C   UNL     1     -12.279  13.370  63.438  1.00  0.00    -0.419 C  
ENDROOT
BRANCH   2   3
HETATM    3  C   UNL     1     -12.627  14.050  64.764  1.00  0.00    -0.326 C  
BRANCH   3   4
HETATM    4  C   UNL     1     -11.426  14.502  65.526  1.00  0.00    -0.343 A  
HETATM    5  N   UNL     1     -10.611  15.471  65.151  1.00  0.00    -0.421 NA 
HETATM    6  C   UNL     1      -9.661  15.572  66.136  1.00  0.00    -0.330 A  
HETATM    7  C   UNL     1      -9.904  14.637  67.120  1.00  0.00    -0.237 A  
HETATM    8  C   UNL     1      -8.580  16.580  66.054  1.00  0.00    -0.241 C  
HETATM    9  N   UNL     1     -11.020  13.977  66.732  1.00  0.00    -0.294 NA 
HETATM   10  N   UNL     1     -11.606  13.008  67.500  1.00  0.00    -0.334 NA 
HETATM   11  C   UNL     1     -10.851  12.640  68.607  1.00  0.00    -0.249 C  
HETATM   12  N   UNL     1      -9.765  13.230  69.001  1.00  0.00    -0.383 N  
HETATM   13  O   UNL     1      -8.267  14.931  68.755  1.00  0.00    -0.146 OA 
HETATM   14  H   UNL     1      -9.286  12.877  69.830  1.00  0.00     0.000 HD 
HETATM   15  C   UNL     1      -9.239  14.314  68.342  1.00  0.00    -0.196 C  
BRANCH  11  16
HETATM   16  C   UNL     1     -11.320  11.454  69.425  1.00  0.00    -0.365 A  
HETATM   17  C   UNL     1     -12.566  10.443  71.257  1.00  0.00    -0.525 A  
HETATM   18  C   UNL     1     -12.179  11.591  70.543  1.00  0.00    -0.377 A  
HETATM   19  C   UNL     1     -10.845  10.179  69.075  1.00  0.00    -0.257 A  
HETATM   20  C   UNL     1     -12.101   9.182  70.896  1.00  0.00    -0.270 A  
HETATM   21  C   UNL     1     -11.242   9.056  69.810  1.00  0.00    -0.027 A  
BRANCH  18  22
HETATM   22  O   UNL     1     -12.622  12.846  70.875  1.00  0.00    -0.343 OA 
BRANCH  22  23
HETATM   23  C   UNL     1     -13.375  12.982  72.081  1.00  0.00    -0.524 C  
HETATM   24  C   UNL     1     -13.614  14.454  72.358  1.00  0.00    -0.578 C  
ENDBRANCH  22  23
ENDBRANCH  18  22
BRANCH  21  25
HETATM   25  S   UNL     1     -10.477   7.486  69.503  1.00  0.00    -0.226 S  
HETATM   26  O   UNL     1     -11.446   6.468  69.845  1.00  0.00    -0.390 OA 
HETATM   27  O   UNL     1      -9.178   7.518  70.138  1.00  0.00    -0.154 OA 
BRANCH  25  28
HETATM   28  N   UNL     1     -10.269   7.472  67.807  1.00  0.00    -0.188 N  
HETATM   29  C   UNL     1      -8.865   7.557  67.292  1.00  0.00    -0.124 C  
HETATM   30  C   UNL     1      -8.122   6.199  67.371  1.00  0.00    -0.109 C  
HETATM   31  N   UNL     1      -8.846   5.042  66.795  1.00  0.00    -0.107 NA 
HETATM   32  C   UNL     1     -10.228   5.019  67.324  1.00  0.00    -0.168 C  
HETATM   33  C   UNL     1     -10.989   6.344  67.130  1.00  0.00    -0.399 C  
BRANCH  31  34
HETATM   34  C   UNL     1      -8.768   5.051  65.328  1.00  0.00    -0.149 C  
HETATM   35  C   UNL     1      -9.403   3.831  64.670  1.00  0.00    -0.153 C  
ENDBRANCH  31  34
ENDBRANCH  25  28
ENDBRANCH  21  25
ENDBRANCH  11  16
ENDBRANCH   3   4
ENDBRANCH   2   3
TORSDOF 8
ENDMDL
MODEL       11
REMARK 921   NORMALIZED FREE ENERGY PREDICTED BY IDOCK:   -6.80 KCAL/MOL
REMARK 922        TOTAL FREE ENERGY PREDICTED BY IDOCK:  -10.99 KCAL/MOL
REMARK 923 INTER-LIGAND FREE ENERGY PREDICTED BY IDOCK:  -10.14 KCAL/MOL
REMARK 924 INTRA-LIGAND FREE ENERGY PREDICTED BY IDOCK:   -0.85 KCAL/MOL
REMARK 927      BINDING AFFINITY PREDICTED BY RF-SCORE:    0.00 PKD
ROOT
HETATM    1  C   UNL     1     -13.333   9.238  72.171  1.00  0.00    -0.537 C  
HETATM    2  C   UNL     1     -12.464  10.076  71.241  1.00  0.00    -0.494 C  
ENDROOT
BRANCH   2   3
HETATM    3  C   UNL     1     -10.993   9.656  71.226  1.00  0.00    -0.399 C  
BRANCH   3   4
HETATM    4  C   UNL     1     -10.731   8.464  70.365  1.00  0.00    -0.231 A  
HETATM    5  N   UNL     1     -10.614   7.225  70.803  1.00  0.00    -0.220 NA 
HETATM    6  C   UNL     1     -10.398   6.447  69.692  1.00  0.00    -0.204 A  
HETATM    7  C   UNL     1     -10.375   7.239  68.563  1.00  0.00    -0.189 A  
HETATM    8  C   UNL     1     -10.233   4.981  69.806  1.00  0.00    -0.336 C  
HETATM    9  N   UNL     1     -10.595   8.503  68.996  1.00  0.00    -0.194 NA 
HETATM   10  N   UNL     1     -10.705   9.564  68.139  1.00  0.00    -0.220 NA 
HETATM   11  C   UNL     1     -10.385   9.256  66.823  1.00  0.00    -0.226 C  
HETATM   12  N   UNL     1     -10.146   8.063  66.371  1.00  0.00    -0.476 N  
HETATM   13  O   UNL     1     -10.053   5.816  66.744  1.00  0.00    -0.161 OA 
HETATM   14  H   UNL     1      -9.919   7.948  65.383  1.00  0.00     0.000 HD 
HETATM   15  C   UNL     1     -10.189   6.951  67.176  1.00  0.00    -0.240 C  
BRANCH  11  16
HETATM   16  C   UNL     1     -10.302  10.394  65.826  1.00  0.00    -0.257 A  
HETATM   17  C   UNL     1      -9.560  11.388  63.731  1.00  0.00    -0.258 A  
HETATM   18  C   UNL     1      -9.597  10.286  64.603  1.00  0.00    -0.312 A  
HETATM   19  C   UNL     1     -10.921  11.611  66.158  1.00  0.00    -0.339 A  
HETATM   20  C   UNL     1     -10.185  12.587  64.063  1.00  0.00    -0.390 A  
HETATM   21  C   UNL     1     -10.859  12.694  65.274  1.00  0.00    -0.288 A  
BRANCH  18  22
HETATM   22  O   UNL     1      -8.991   9.093  64.303  1.00  0.00    -0.163 OA 
BRANCH  22  23
HETATM   23  C   UNL     1      -8.412   8.955  63.004  1.00  0.00    -0.169 C  
HETATM   24  C   UNL     1      -7.583   7.686  62.958  1.00  0.00    -0.119 C  
ENDBRANCH  22  23
ENDBRANCH  18  22
BRANCH  21  25
HETATM   25  S   UNL     1     -11.450  14.285  65.786  1.00  0.00    -0.342 S  
HETATM   26  O   UNL     1     -12.440  14.059  66.816  1.00  0.00    -0.391 OA 
HETATM   27  O   UNL     1     -11.782  15.019  64.585  1.00  0.00    -0.414 OA 
BRANCH  25  28
HETATM   28  N   UNL     1     -10.080  15.000  66.516  1.00  0.00    -0.267 N  
HETATM   29  C   UNL     1      -9.590  16.288  65.929  1.00  0.00    -0.301 C  
HETATM   30  C   UNL     1     -10.437  17.505  66.380  1.00  0.00    -0.277 C  
HETATM   31  N   UNL     1     -10.659  17.620  67.841  1.00  0.00    -0.395 NA 
HETATM   32  C   UNL     1     -11.125  16.317  68.367  1.00  0.00    -0.362 C  
HETATM   33  C   UNL     1     -10.204  15.137  68.004  1.00  0.00    -0.230 C  
BRANCH  31  34
HETATM   34  C   UNL     1      -9.463  18.144  68.514  1.00  0.00    -0.329 C  
HETATM   35  C   UNL     1      -9.194  19.618  68.230  1.00  0.00    -0.412 C  
ENDBRANCH  31  34
ENDBRANCH  25  28
ENDBRANCH  21  25
ENDBRANCH  11  16
ENDBRANCH   3   4
ENDBRANCH   2   3
TORSDOF 8
ENDMDL
MODEL       12
REMARK 921   NORMALIZED FREE ENERGY PREDICTED BY IDOCK:   -6.80 KCAL/MOL
REMARK 922        TOTAL FREE ENERGY PREDICTED BY IDOCK:  -10.98 KCAL/MOL
REMARK 923 INTER-LIGAND FREE ENERGY PREDICTED BY IDOCK:   -9.90 KCAL/MOL
REMARK 924 INTRA-LIGAND FREE ENERGY PREDICTED BY IDOCK:   -1.09 KCAL/MOL
REMARK 927      BINDING AFFINITY PREDICTED BY RF-SCORE:    0.00 PKD
ROOT
HETATM    1  C   UNL     1     -13.401  10.104  71.870  1.00  0.00    -0.505 C  
HETATM    2  C   UNL     1     -13.917   8.693  72.127  1.00  0.00    -0.496 C  
ENDROOT
BRANCH   2   3
HETATM    3  C   UNL     1     -12.963   7.592  71.660  1.00  0.00    -0.397 C  
BRANCH   3   4
HETATM    4  C   UNL     1     -11.528   7.905  71.928  1.00  0.00    -0.280 A  
HETATM    5  N   UNL     1     -10.905   7.684  73.070  1.00  0.00    -0.385 NA 
HETATM    6  C   UNL     1      -9.608   8.096  72.882  1.00  0.00    -0.275 A  
HETATM    7  C   UNL     1      -9.453   8.587  71.603  1.00  0.00    -0.246 A  
HETATM    8  C   UNL     1      -8.606   7.981  73.965  1.00  0.00    -0.296 C  
HETATM    9  N   UNL     1     -10.662   8.453  71.009  1.00  0.00    -0.217 NA 
HETATM   10  N   UNL     1     -10.876   8.779  69.697  1.00  0.00    -0.209 NA 
HETATM   11  C   UNL     1      -9.802   9.427  69.099  1.00  0.00    -0.174 C  
HETATM   12  N   UNL     1      -8.635   9.596  69.641  1.00  0.00    -0.170 N  
HETATM   13  O   UNL     1      -7.216   9.209  71.383  1.00  0.00    -0.242 OA 
HETATM   14  H   UNL     1      -7.915  10.090  69.113  1.00  0.00     0.000 HD 
HETATM   15  C   UNL     1      -8.337   9.134  70.899  1.00  0.00    -0.185 C  
BRANCH  11  16
HETATM   16  C   UNL     1      -9.998   9.990  67.706  1.00  0.00    -0.203 A  
HETATM   17  C   UNL     1      -9.814   9.880  65.281  1.00  0.00    -0.373 A  
HETATM   18  C   UNL     1      -9.605   9.290  66.539  1.00  0.00    -0.224 A  
HETATM   19  C   UNL     1     -10.554  11.274  67.583  1.00  0.00    -0.252 A  
HETATM   20  C   UNL     1     -10.377  11.148  65.166  1.00  0.00    -0.354 A  
HETATM   21  C   UNL     1     -10.742  11.839  66.316  1.00  0.00    -0.270 A  
BRANCH  18  22
HETATM   22  O   UNL     1      -9.053   8.042  66.682  1.00  0.00    -0.145 OA 
BRANCH  22  23
HETATM   23  C   UNL     1      -9.753   6.940  66.103  1.00  0.00     0.112 C  
HETATM   24  C   UNL     1     -10.893   6.535  67.017  1.00  0.00    -0.465 C  
ENDBRANCH  22  23
ENDBRANCH  18  22
BRANCH  21  25
HETATM   25  S   UNL     1     -11.240  13.535  66.172  1.00  0.00    -0.299 S  
HETATM   26  O   UNL     1     -12.404  13.707  67.013  1.00  0.00    -0.355 OA 
HETATM   27  O   UNL     1     -11.292  13.841  64.759  1.00  0.00    -0.334 OA 
BRANCH  25  28
HETATM   28  N   UNL     1      -9.942  14.390  66.882  1.00  0.00    -0.256 N  
HETATM   29  C   UNL     1      -9.337  15.500  66.077  1.00  0.00    -0.344 C  
HETATM   30  C   UNL     1     -10.186  16.796  66.123  1.00  0.00    -0.351 C  
HETATM   31  N   UNL     1     -10.578  17.253  67.477  1.00  0.00    -0.351 NA 
HETATM   32  C   UNL     1     -11.151  16.114  68.229  1.00  0.00    -0.348 C  
HETATM   33  C   UNL     1     -10.238  14.875  68.269  1.00  0.00    -0.225 C  
BRANCH  31  34
HETATM   34  C   UNL     1      -9.453  17.912  68.154  1.00  0.00    -0.288 C  
HETATM   35  C   UNL     1      -9.703  19.381  68.474  1.00  0.00    -0.497 C  
ENDBRANCH  31  34
ENDBRANCH  25  28
ENDBRANCH  21  25
ENDBRANCH  11  16
ENDBRANCH   3   4
ENDBRANCH   2   3
TORSDOF 8
ENDMDL
MODEL       13
REMARK 921   NORMALIZED FREE ENERGY PREDICTED BY IDOCK:   -6.79 KCAL/MOL
REMARK 922        TOTAL FREE ENERGY PREDICTED BY IDOCK:  -10.98 KCAL/MOL
REMARK 923 INTER-LIGAND FREE ENERGY PREDICTED BY IDOCK:  -10.48 KCAL/MOL
REMARK 924 INTRA-LIGAND FREE ENERGY PREDICTED BY IDOCK:   -0.49 KCAL/MOL
REMARK 927      BINDING AFFINITY PREDICTED BY RF-SCORE:    0.00 PKD
ROOT
HETATM    1  C   UNL     1      -9.772   6.788  66.554  1.00  0.00    -0.183 C  
HETATM    2  C   UNL     1     -10.462   8.021  67.125  1.00  0.00    -0.408 C  
ENDROOT
BRANCH   2   3
HETATM    3  C   UNL     1      -9.699   8.677  68.278  1.00  0.00    -0.171 C  
BRANCH   3   4
HETATM    4  C   UNL     1     -10.589   9.391  69.240  1.00  0.00    -0.225 A  
HETATM    5  N   UNL     1     -11.148   8.845  70.304  1.00  0.00    -0.244 NA 
HETATM    6  C   UNL     1     -11.864   9.846  70.914  1.00  0.00    -0.356 A  
HETATM    7  C   UNL     1     -11.740  11.016  70.195  1.00  0.00    -0.356 A  
HETATM    8  C   UNL     1     -12.619   9.593  72.162  1.00  0.00    -0.388 C  
HETATM    9  N   UNL     1     -10.929  10.722  69.152  1.00  0.00    -0.225 NA 
HETATM   10  N   UNL     1     -10.524  11.666  68.248  1.00  0.00    -0.196 NA 
HETATM   11  C   UNL     1     -11.166  12.890  68.391  1.00  0.00    -0.270 C  
HETATM   12  N   UNL     1     -11.967  13.205  69.362  1.00  0.00    -0.308 N  
HETATM   13  O   UNL     1     -12.948  12.647  71.344  1.00  0.00    -0.361 OA 
HETATM   14  H   UNL     1     -12.388  14.134  69.371  1.00  0.00     0.000 HD 
HETATM   15  C   UNL     1     -12.266  12.331  70.379  1.00  0.00    -0.288 C  
BRANCH  11  16
HETATM   16  C   UNL     1     -10.924  13.948  67.334  1.00  0.00    -0.299 A  
HETATM   17  C   UNL     1     -10.607  14.679  65.033  1.00  0.00    -0.461 A  
HETATM   18  C   UNL     1     -10.840  13.642  65.954  1.00  0.00    -0.275 A  
HETATM   19  C   UNL     1     -10.738  15.275  67.757  1.00  0.00    -0.286 A  
HETATM   20  C   UNL     1     -10.435  15.993  65.459  1.00  0.00    -0.426 A  
HETATM   21  C   UNL     1     -10.498  16.284  66.817  1.00  0.00    -0.287 A  
BRANCH  18  22
HETATM   22  O   UNL     1     -11.014  12.339  65.563  1.00  0.00    -0.280 OA 
BRANCH  22  23
HETATM   23  C   UNL     1     -11.177  12.084  64.167  1.00  0.00    -0.373 C  
HETATM   24  C   UNL     1     -12.654  12.101  63.825  1.00  0.00    -0.585 C  
ENDBRANCH  22  23
ENDBRANCH  18  22
BRANCH  21  25
HETATM   25  S   UNL     1     -10.051  17.911  67.364  1.00  0.00    -0.356 S  
HETATM   26  O   UNL     1     -10.303  17.964  68.787  1.00  0.00    -0.366 OA 
HETATM   27  O   UNL     1     -10.683  18.848  66.462  1.00  0.00    -0.391 OA 
BRANCH  25  28
HETATM   28  N   UNL     1      -8.360  17.958  67.123  1.00  0.00    -0.224 N  
HETATM   29  C   UNL     1      -7.845  18.914  66.091  1.00  0.00    -0.250 C  
HETATM   30  C   UNL     1      -7.789  20.373  66.611  1.00  0.00    -0.211 C  
HETATM   31  N   UNL     1      -7.110  20.558  67.915  1.00  0.00    -0.295 NA 
HETATM   32  C   UNL     1      -7.644  19.578  68.887  1.00  0.00    -0.348 C  
HETATM   33  C   UNL     1      -7.583  18.120  68.395  1.00  0.00    -0.283 C  
BRANCH  31  34
HETATM   34  C   UNL     1      -5.650  20.509  67.758  1.00  0.00    -0.211 C  
HETATM   35  C   UNL     1      -5.126  21.356  66.603  1.00  0.00    -0.300 C  
ENDBRANCH  31  34
ENDBRANCH  25  28
ENDBRANCH  21  25
ENDBRANCH  11  16
ENDBRANCH   3   4
ENDBRANCH   2   3
TORSDOF 8
ENDMDL
MODEL       14
REMARK 921   NORMALIZED FREE ENERGY PREDICTED BY IDOCK:   -6.72 KCAL/MOL
REMARK 922        TOTAL FREE ENERGY PREDICTED BY IDOCK:  -10.87 KCAL/MOL
REMARK 923 INTER-LIGAND FREE ENERGY PREDICTED BY IDOCK:   -9.65 KCAL/MOL
REMARK 924 INTRA-LIGAND FREE ENERGY PREDICTED BY IDOCK:   -1.22 KCAL/MOL
REMARK 927      BINDING AFFINITY PREDICTED BY RF-SCORE:    0.00 PKD
ROOT
HETATM    1  C   UNL     1      -5.929  11.608  69.905  1.00  0.00    -0.137 C  
HETATM    2  C   UNL     1      -6.309  10.185  70.296  1.00  0.00    -0.117 C  
ENDROOT
BRANCH   2   3
HETATM    3  C   UNL     1      -7.316   9.532  69.346  1.00  0.00    -0.084 C  
BRANCH   3   4
HETATM    4  C   UNL     1      -8.721   9.597  69.847  1.00  0.00    -0.219 A  
HETATM    5  N   UNL     1      -9.224   8.830  70.796  1.00  0.00    -0.180 NA 
HETATM    6  C   UNL     1     -10.528   9.229  70.958  1.00  0.00    -0.314 A  
HETATM    7  C   UNL     1     -10.818  10.250  70.078  1.00  0.00    -0.307 A  
HETATM    8  C   UNL     1     -11.403   8.587  71.963  1.00  0.00    -0.425 C  
HETATM    9  N   UNL     1      -9.674  10.481  69.392  1.00  0.00    -0.199 NA 
HETATM   10  N   UNL     1      -9.562  11.481  68.466  1.00  0.00    -0.188 NA 
HETATM   11  C   UNL     1     -10.768  12.103  68.165  1.00  0.00    -0.211 C  
HETATM   12  N   UNL     1     -11.890  11.895  68.781  1.00  0.00    -0.319 N  
HETATM   13  O   UNL     1     -13.030  10.876  70.473  1.00  0.00    -0.259 OA 
HETATM   14  H   UNL     1     -12.720  12.405  68.478  1.00  0.00     0.000 HD 
HETATM   15  C   UNL     1     -11.999  11.013  69.829  1.00  0.00    -0.356 C  
BRANCH  11  16
HETATM   16  C   UNL     1     -10.788  13.101  67.025  1.00  0.00    -0.278 A  
HETATM   17  C   UNL     1     -10.911  13.694  64.667  1.00  0.00    -0.416 A  
HETATM   18  C   UNL     1     -10.905  12.709  65.670  1.00  0.00    -0.274 A  
HETATM   19  C   UNL     1     -10.645  14.464  67.337  1.00  0.00    -0.270 A  
HETATM   20  C   UNL     1     -10.781  15.043  64.985  1.00  0.00    -0.448 A  
HETATM   21  C   UNL     1     -10.646  15.421  66.316  1.00  0.00    -0.308 A  
BRANCH  18  22
HETATM   22  O   UNL     1     -11.032  11.373  65.386  1.00  0.00    -0.262 OA 
BRANCH  22  23
HETATM   23  C   UNL     1     -10.090  10.798  64.479  1.00  0.00    -0.350 C  
HETATM   24  C   UNL     1      -8.880  10.314  65.255  1.00  0.00    -0.200 C  
ENDBRANCH  22  23
ENDBRANCH  18  22
BRANCH  21  25
HETATM   25  S   UNL     1     -10.251  17.109  66.690  1.00  0.00    -0.310 S  
HETATM   26  O   UNL     1     -10.963  17.453  67.900  1.00  0.00    -0.332 OA 
HETATM   27  O   UNL     1     -10.444  17.867  65.473  1.00  0.00    -0.650 OA 
BRANCH  25  28
HETATM   28  N   UNL     1      -8.582  17.053  67.054  1.00  0.00    -0.202 N  
HETATM   29  C   UNL     1      -7.659  17.788  66.131  1.00  0.00    -0.267 C  
HETATM   30  C   UNL     1      -7.643  19.314  66.400  1.00  0.00    -0.265 C  
HETATM   31  N   UNL     1      -7.433  19.710  67.812  1.00  0.00    -0.270 NA 
HETATM   32  C   UNL     1      -8.357  18.942  68.677  1.00  0.00    -0.349 C  
HETATM   33  C   UNL     1      -8.272  17.418  68.475  1.00  0.00    -0.268 C  
BRANCH  31  34
HETATM   34  C   UNL     1      -6.018  19.583  68.188  1.00  0.00    -0.212 C  
HETATM   35  C   UNL     1      -5.561  20.609  69.220  1.00  0.00    -0.405 C  
ENDBRANCH  31  34
ENDBRANCH  25  28
ENDBRANCH  21  25
ENDBRANCH  11  16
ENDBRANCH   3   4
ENDBRANCH   2   3
TORSDOF 8
ENDMDL
MODEL       15
REMARK 921   NORMALIZED FREE ENERGY PREDICTED BY IDOCK:   -6.70 KCAL/MOL
REMARK 922        TOTAL FREE ENERGY PREDICTED BY IDOCK:  -10.84 KCAL/MOL
REMARK 923 INTER-LIGAND FREE ENERGY PREDICTED BY IDOCK:  -10.00 KCAL/MOL
REMARK 924 INTRA-LIGAND FREE ENERGY PREDICTED BY IDOCK:   -0.84 KCAL/MOL
REMARK 927      BINDING AFFINITY PREDICTED BY RF-SCORE:    0.00 PKD
ROOT
HETATM    1  C   UNL     1      -9.151  19.357  68.753  1.00  0.00    -0.411 C  
HETATM    2  C   UNL     1      -8.324  18.144  68.344  1.00  0.00    -0.311 C  
ENDROOT
BRANCH   2   3
HETATM    3  C   UNL     1      -8.975  16.805  68.698  1.00  0.00    -0.251 C  
BRANCH   3   4
HETATM    4  C   UNL     1      -9.844  16.268  67.609  1.00  0.00    -0.238 A  
HETATM    5  N   UNL     1     -10.001  16.823  66.422  1.00  0.00    -0.289 NA 
HETATM    6  C   UNL     1     -10.859  16.005  65.730  1.00  0.00    -0.230 A  
HETATM    7  C   UNL     1     -11.234  14.941  66.522  1.00  0.00    -0.335 A  
HETATM    8  C   UNL     1     -11.254  16.316  64.337  1.00  0.00    -0.119 C  
HETATM    9  N   UNL     1     -10.583  15.110  67.697  1.00  0.00    -0.258 NA 
HETATM   10  N   UNL     1     -10.661  14.202  68.717  1.00  0.00    -0.251 NA 
HETATM   11  C   UNL     1     -11.606  13.205  68.508  1.00  0.00    -0.326 C  
HETATM   12  N   UNL     1     -12.268  13.021  67.407  1.00  0.00    -0.217 N  
HETATM   13  O   UNL     1     -12.644  13.601  65.235  1.00  0.00    -0.482 OA 
HETATM   14  H   UNL     1     -12.942  12.257  67.361  1.00  0.00     0.000 HD 
HETATM   15  C   UNL     1     -12.091  13.819  66.304  1.00  0.00    -0.446 C  
BRANCH  11  16
HETATM   16  C   UNL     1     -11.900  12.253  69.650  1.00  0.00    -0.393 A  
HETATM   17  C   UNL     1     -12.919  11.681  71.785  1.00  0.00    -0.483 A  
HETATM   18  C   UNL     1     -12.696  12.618  70.762  1.00  0.00    -0.130 A  
HETATM   19  C   UNL     1     -11.320  10.973  69.609  1.00  0.00    -0.363 A  
HETATM   20  C   UNL     1     -12.351  10.411  71.732  1.00  0.00    -0.313 A  
HETATM   21  C   UNL     1     -11.553  10.064  70.648  1.00  0.00    -0.340 A  
BRANCH  18  22
HETATM   22  O   UNL     1     -13.244  13.876  70.787  1.00  0.00    -0.215 OA 
BRANCH  22  23
HETATM   23  C   UNL     1     -13.996  14.245  71.944  1.00  0.00    -0.478 C  
HETATM   24  C   UNL     1     -13.272  15.356  72.678  1.00  0.00    -0.567 C  
ENDBRANCH  22  23
ENDBRANCH  18  22
BRANCH  21  25
HETATM   25  S   UNL     1     -10.652   8.538  70.702  1.00  0.00    -0.216 S  
HETATM   26  O   UNL     1      -9.289   8.863  71.057  1.00  0.00    -0.204 OA 
HETATM   27  O   UNL     1     -10.953   7.827  69.480  1.00  0.00    -0.198 OA 
BRANCH  25  28
HETATM   28  N   UNL     1     -11.359   7.709  72.019  1.00  0.00    -0.265 N  
HETATM   29  C   UNL     1     -11.873   6.326  71.757  1.00  0.00    -0.286 C  
HETATM   30  C   UNL     1     -10.740   5.269  71.729  1.00  0.00    -0.170 C  
HETATM   31  N   UNL     1      -9.813   5.298  72.885  1.00  0.00    -0.154 NA 
HETATM   32  C   UNL     1      -9.353   6.687  73.107  1.00  0.00    -0.132 C  
HETATM   33  C   UNL     1     -10.501   7.705  73.248  1.00  0.00    -0.355 C  
BRANCH  31  34
HETATM   34  C   UNL     1     -10.427   4.675  74.065  1.00  0.00    -0.267 C  
HETATM   35  C   UNL     1     -10.978   3.277  73.808  1.00  0.00    -0.310 C  
ENDBRANCH  31  34
ENDBRANCH  25  28
ENDBRANCH  21  25
ENDBRANCH  11  16
ENDBRANCH   3   4
ENDBRANCH   2   3
TORSDOF 8
ENDMDL
MODEL       16
REMARK 921   NORMALIZED FREE ENERGY PREDICTED BY IDOCK:   -6.69 KCAL/MOL
REMARK 922        TOTAL FREE ENERGY PREDICTED BY IDOCK:  -10.83 KCAL/MOL
REMARK 923 INTER-LIGAND FREE ENERGY PREDICTED BY IDOCK:   -9.83 KCAL/MOL
REMARK 924 INTRA-LIGAND FREE ENERGY PREDICTED BY IDOCK:   -0.99 KCAL/MOL
REMARK 927      BINDING AFFINITY PREDICTED BY RF-SCORE:    0.00 PKD
ROOT
HETATM    1  C   UNL     1      -9.472   4.755  65.161  1.00  0.00    -0.114 C  
HETATM    2  C   UNL     1     -10.459   4.676  66.319  1.00  0.00    -0.249 C  
ENDROOT
BRANCH   2   3
HETATM    3  C   UNL     1     -10.508   5.943  67.176  1.00  0.00    -0.335 C  
BRANCH   3   4
HETATM    4  C   UNL     1     -10.280   5.679  68.628  1.00  0.00    -0.200 A  
HETATM    5  N   UNL     1      -9.874   4.529  69.134  1.00  0.00    -0.177 NA 
HETATM    6  C   UNL     1      -9.777   4.723  70.490  1.00  0.00    -0.211 A  
HETATM    7  C   UNL     1     -10.143   6.015  70.806  1.00  0.00    -0.197 A  
HETATM    8  C   UNL     1      -9.330   3.635  71.387  1.00  0.00    -0.211 C  
HETATM    9  N   UNL     1     -10.447   6.609  69.628  1.00  0.00    -0.200 NA 
HETATM   10  N   UNL     1     -10.795   7.930  69.540  1.00  0.00    -0.187 NA 
HETATM   11  C   UNL     1     -10.988   8.541  70.773  1.00  0.00    -0.247 C  
HETATM   12  N   UNL     1     -10.730   8.000  71.924  1.00  0.00    -0.237 N  
HETATM   13  O   UNL     1      -9.894   6.243  73.113  1.00  0.00    -0.161 OA 
HETATM   14  H   UNL     1     -10.911   8.538  72.772  1.00  0.00     0.000 HD 
HETATM   15  C   UNL     1     -10.223   6.729  72.040  1.00  0.00    -0.191 C  
BRANCH  11  16
HETATM   16  C   UNL     1     -11.546   9.949  70.789  1.00  0.00    -0.430 A  
HETATM   17  C   UNL     1     -13.025  11.683  71.646  1.00  0.00    -0.483 A  
HETATM   18  C   UNL     1     -12.553  10.360  71.696  1.00  0.00    -0.417 A  
HETATM   19  C   UNL     1     -11.065  10.862  69.836  1.00  0.00    -0.311 A  
HETATM   20  C   UNL     1     -12.535  12.585  70.705  1.00  0.00    -0.357 A  
HETATM   21  C   UNL     1     -11.561  12.171  69.804  1.00  0.00    -0.262 A  
BRANCH  18  22
HETATM   22  O   UNL     1     -13.017   9.450  72.611  1.00  0.00    -0.333 OA 
BRANCH  22  23
HETATM   23  C   UNL     1     -14.340   8.944  72.427  1.00  0.00    -0.300 C  
HETATM   24  C   UNL     1     -14.303   7.790  71.445  1.00  0.00    -0.513 C  
ENDBRANCH  22  23
ENDBRANCH  18  22
BRANCH  21  25
HETATM   25  S   UNL     1     -11.114  13.252  68.471  1.00  0.00    -0.279 S  
HETATM   26  O   UNL     1      -9.669  13.297  68.428  1.00  0.00    -0.224 OA 
HETATM   27  O   UNL     1     -11.891  14.461  68.630  1.00  0.00    -0.319 OA 
BRANCH  25  28
HETATM   28  N   UNL     1     -11.660  12.415  67.084  1.00  0.00    -0.355 N  
HETATM   29  C   UNL     1     -12.234  13.241  65.974  1.00  0.00    -0.424 C  
HETATM   30  C   UNL     1     -11.138  13.914  65.109  1.00  0.00    -0.334 C  
HETATM   31  N   UNL     1     -10.067  13.012  64.623  1.00  0.00    -0.276 NA 
HETATM   32  C   UNL     1      -9.551  12.212  65.756  1.00  0.00    -0.197 C  
HETATM   33  C   UNL     1     -10.647  11.458  66.532  1.00  0.00    -0.263 C  
BRANCH  31  34
HETATM   34  C   UNL     1     -10.534  12.208  63.486  1.00  0.00    -0.454 C  
HETATM   35  C   UNL     1      -9.496  11.221  62.962  1.00  0.00    -0.385 C  
ENDBRANCH  31  34
ENDBRANCH  25  28
ENDBRANCH  21  25
ENDBRANCH  11  16
ENDBRANCH   3   4
ENDBRANCH   2   3
TORSDOF 8
ENDMDL
MODEL       17
REMARK 921   NORMALIZED FREE ENERGY PREDICTED BY IDOCK:   -6.63 KCAL/MOL
REMARK 922        TOTAL FREE ENERGY PREDICTED BY IDOCK:  -10.74 KCAL/MOL
REMARK 923 INTER-LIGAND FREE ENERGY PREDICTED BY IDOCK:   -9.62 KCAL/MOL
REMARK 924 INTRA-LIGAND FREE ENERGY PREDICTED BY IDOCK:   -1.12 KCAL/MOL
REMARK 927      BINDING AFFINITY PREDICTED BY RF-SCORE:    0.00 PKD
ROOT
HETATM    1  C   UNL     1      -7.848  19.142  68.645  1.00  0.00    -0.390 C  
HETATM    2  C   UNL     1      -7.678  17.671  68.287  1.00  0.00    -0.253 C  
ENDROOT
BRANCH   2   3
HETATM    3  C   UNL     1      -8.794  16.772  68.823  1.00  0.00    -0.258 C  
BRANCH   3   4
HETATM    4  C   UNL     1      -9.701  16.260  67.752  1.00  0.00    -0.233 A  
HETATM    5  N   UNL     1      -9.793  16.761  66.535  1.00  0.00    -0.275 NA 
HETATM    6  C   UNL     1     -10.719  15.991  65.875  1.00  0.00    -0.280 A  
HETATM    7  C   UNL     1     -11.201  15.013  66.719  1.00  0.00    -0.322 A  
HETATM    8  C   UNL     1     -11.070  16.260  64.463  1.00  0.00    -0.174 C  
HETATM    9  N   UNL     1     -10.548  15.184  67.892  1.00  0.00    -0.253 NA 
HETATM   10  N   UNL     1     -10.722  14.347  68.960  1.00  0.00    -0.249 NA 
HETATM   11  C   UNL     1     -11.757  13.434  68.792  1.00  0.00    -0.340 C  
HETATM   12  N   UNL     1     -12.423  13.253  67.693  1.00  0.00    -0.017 N  
HETATM   13  O   UNL     1     -12.721  13.744  65.487  1.00  0.00    -0.515 OA 
HETATM   14  H   UNL     1     -13.167  12.555  67.678  1.00  0.00     0.000 HD 
HETATM   15  C   UNL     1     -12.160  13.968  66.550  1.00  0.00    -0.459 C  
BRANCH  11  16
HETATM   16  C   UNL     1     -12.151  12.579  69.979  1.00  0.00    -0.337 A  
HETATM   17  C   UNL     1     -13.332  12.192  72.073  1.00  0.00    -0.470 A  
HETATM   18  C   UNL     1     -13.017  13.043  70.999  1.00  0.00    -0.116 A  
HETATM   19  C   UNL     1     -11.596  11.292  70.081  1.00  0.00    -0.393 A  
HETATM   20  C   UNL     1     -12.787  10.914  72.160  1.00  0.00    -0.166 A  
HETATM   21  C   UNL     1     -11.921  10.471  71.166  1.00  0.00    -0.336 A  
BRANCH  18  22
HETATM   22  O   UNL     1     -13.538  14.307  70.886  1.00  0.00    -0.261 OA 
BRANCH  22  23
HETATM   23  C   UNL     1     -13.418  15.173  72.016  1.00  0.00    -0.421 C  
HETATM   24  C   UNL     1     -12.078  15.881  71.963  1.00  0.00    -0.591 C  
ENDBRANCH  22  23
ENDBRANCH  18  22
BRANCH  21  25
HETATM   25  S   UNL     1     -11.059   8.940  71.405  1.00  0.00    -0.335 S  
HETATM   26  O   UNL     1     -11.703   8.258  72.505  1.00  0.00    -0.386 OA 
HETATM   27  O   UNL     1      -9.647   9.253  71.448  1.00  0.00    -0.266 OA 
BRANCH  25  28
HETATM   28  N   UNL     1     -11.394   8.071  69.972  1.00  0.00    -0.094 N  
HETATM   29  C   UNL     1     -10.428   8.228  68.838  1.00  0.00    -0.191 C  
HETATM   30  C   UNL     1      -9.147   7.376  69.028  1.00  0.00    -0.133 C  
HETATM   31  N   UNL     1      -9.375   5.949  69.359  1.00  0.00    -0.129 NA 
HETATM   32  C   UNL     1     -10.348   5.855  70.471  1.00  0.00    -0.235 C  
HETATM   33  C   UNL     1     -11.662   6.615  70.210  1.00  0.00    -0.371 C  
BRANCH  31  34
HETATM   34  C   UNL     1      -9.759   5.188  68.163  1.00  0.00    -0.144 C  
HETATM   35  C   UNL     1      -9.405   3.707  68.235  1.00  0.00    -0.228 C  
ENDBRANCH  31  34
ENDBRANCH  25  28
ENDBRANCH  21  25
ENDBRANCH  11  16
ENDBRANCH   3   4
ENDBRANCH   2   3
TORSDOF 8
ENDMDL
MODEL       18
REMARK 921   NORMALIZED FREE ENERGY PREDICTED BY IDOCK:   -6.58 KCAL/MOL
REMARK 922        TOTAL FREE ENERGY PREDICTED BY IDOCK:  -10.67 KCAL/MOL
REMARK 923 INTER-LIGAND FREE ENERGY PREDICTED BY IDOCK:   -9.67 KCAL/MOL
REMARK 924 INTRA-LIGAND FREE ENERGY PREDICTED BY IDOCK:   -1.01 KCAL/MOL
REMARK 927      BINDING AFFINITY PREDICTED BY RF-SCORE:    0.00 PKD
ROOT
HETATM    1  C   UNL     1     -10.465  16.237  66.873  1.00  0.00    -0.302 C  
HETATM    2  C   UNL     1     -10.843  16.990  68.143  1.00  0.00    -0.338 C  
ENDROOT
BRANCH   2   3
HETATM    3  C   UNL     1     -10.166  16.451  69.405  1.00  0.00    -0.273 C  
BRANCH   3   4
HETATM    4  C   UNL     1     -11.119  15.794  70.348  1.00  0.00    -0.366 A  
HETATM    5  N   UNL     1     -11.781  16.412  71.308  1.00  0.00    -0.337 NA 
HETATM    6  C   UNL     1     -12.551  15.453  71.918  1.00  0.00    -0.380 A  
HETATM    7  C   UNL     1     -12.339  14.230  71.318  1.00  0.00    -0.363 A  
HETATM    8  C   UNL     1     -13.447  15.796  73.045  1.00  0.00    -0.672 C  
HETATM    9  N   UNL     1     -11.446  14.457  70.326  1.00  0.00    -0.234 NA 
HETATM   10  N   UNL     1     -11.040  13.476  69.464  1.00  0.00    -0.121 NA 
HETATM   11  C   UNL     1     -11.479  12.205  69.816  1.00  0.00    -0.188 C  
HETATM   12  N   UNL     1     -12.316  11.941  70.772  1.00  0.00    -0.366 N  
HETATM   13  O   UNL     1     -13.726  12.696  72.397  1.00  0.00    -0.517 OA 
HETATM   14  H   UNL     1     -12.571  10.969  70.948  1.00  0.00     0.000 HD 
HETATM   15  C   UNL     1     -12.870  12.925  71.553  1.00  0.00    -0.282 C  
BRANCH  11  16
HETATM   16  C   UNL     1     -10.942  11.025  69.033  1.00  0.00    -0.284 A  
HETATM   17  C   UNL     1     -10.664   9.725  66.992  1.00  0.00    -0.236 A  
HETATM   18  C   UNL     1     -11.192  10.850  67.650  1.00  0.00    -0.309 A  
HETATM   19  C   UNL     1     -10.202  10.052  69.725  1.00  0.00    -0.286 A  
HETATM   20  C   UNL     1      -9.922   8.772  67.684  1.00  0.00    -0.247 A  
HETATM   21  C   UNL     1      -9.697   8.938  69.046  1.00  0.00    -0.171 A  
BRANCH  18  22
HETATM   22  O   UNL     1     -11.927  11.806  66.994  1.00  0.00    -0.610 OA 
BRANCH  22  23
HETATM   23  C   UNL     1     -11.433  12.270  65.736  1.00  0.00    -0.367 C  
HETATM   24  C   UNL     1     -12.474  13.163  65.090  1.00  0.00    -0.539 C  
ENDBRANCH  22  23
ENDBRANCH  18  22
BRANCH  21  25
HETATM   25  S   UNL     1      -8.953   7.611  69.957  1.00  0.00    -0.143 S  
HETATM   26  O   UNL     1      -7.873   8.182  70.732  1.00  0.00    -0.082 OA 
HETATM   27  O   UNL     1      -8.708   6.539  69.017  1.00  0.00    -0.127 OA 
BRANCH  25  28
HETATM   28  N   UNL     1     -10.187   7.134  71.039  1.00  0.00    -0.196 N  
HETATM   29  C   UNL     1     -10.997   5.932  70.661  1.00  0.00    -0.287 C  
HETATM   30  C   UNL     1     -10.256   4.602  70.954  1.00  0.00    -0.143 C  
HETATM   31  N   UNL     1      -9.694   4.475  72.320  1.00  0.00    -0.156 NA 
HETATM   32  C   UNL     1      -8.921   5.695  72.644  1.00  0.00    -0.132 C  
HETATM   33  C   UNL     1      -9.715   7.001  72.455  1.00  0.00    -0.149 C  
BRANCH  31  34
HETATM   34  C   UNL     1     -10.747   4.157  73.294  1.00  0.00    -0.210 C  
HETATM   35  C   UNL     1     -10.572   2.801  73.968  1.00  0.00    -0.249 C  
ENDBRANCH  31  34
ENDBRANCH  25  28
ENDBRANCH  21  25
ENDBRANCH  11  16
ENDBRANCH   3   4
ENDBRANCH   2   3
TORSDOF 8
ENDMDL
MODEL       19
REMARK 921   NORMALIZED FREE ENERGY PREDICTED BY IDOCK:   -6.57 KCAL/MOL
REMARK 922        TOTAL FREE ENERGY PREDICTED BY IDOCK:  -10.64 KCAL/MOL
REMARK 923 INTER-LIGAND FREE ENERGY PREDICTED BY IDOCK:   -9.73 KCAL/MOL
REMARK 924 INTRA-LIGAND FREE ENERGY PREDICTED BY IDOCK:   -0.92 KCAL/MOL
REMARK 927      BINDING AFFINITY PREDICTED BY RF-SCORE:    0.00 PKD
ROOT
HETATM    1  C   UNL     1      -8.169  19.006  68.443  1.00  0.00    -0.382 C  
HETATM    2  C   UNL     1      -8.215  17.483  68.474  1.00  0.00    -0.278 C  
ENDROOT
BRANCH   2   3
HETATM    3  C   UNL     1      -9.580  16.913  68.867  1.00  0.00    -0.251 C  
BRANCH   3   4
HETATM    4  C   UNL     1     -10.252  16.181  67.754  1.00  0.00    -0.267 A  
HETATM    5  N   UNL     1     -10.329  16.604  66.506  1.00  0.00    -0.305 NA 
HETATM    6  C   UNL     1     -11.007  15.630  65.814  1.00  0.00    -0.248 A  
HETATM    7  C   UNL     1     -11.355  14.605  66.668  1.00  0.00    -0.356 A  
HETATM    8  C   UNL     1     -11.268  15.765  64.364  1.00  0.00    -0.249 C  
HETATM    9  N   UNL     1     -10.867  14.956  67.882  1.00  0.00    -0.269 NA 
HETATM   10  N   UNL     1     -10.966  14.141  68.977  1.00  0.00    -0.256 NA 
HETATM   11  C   UNL     1     -11.767  13.024  68.773  1.00  0.00    -0.324 C  
HETATM   12  N   UNL     1     -12.272  12.664  67.633  1.00  0.00    -0.074 N  
HETATM   13  O   UNL     1     -12.452  12.996  65.384  1.00  0.00    -0.469 OA 
HETATM   14  H   UNL     1     -12.850  11.825  67.594  1.00  0.00     0.000 HD 
HETATM   15  C   UNL     1     -12.055  13.375  66.478  1.00  0.00    -0.388 C  
BRANCH  11  16
HETATM   16  C   UNL     1     -12.087  12.151  69.969  1.00  0.00    -0.352 A  
HETATM   17  C   UNL     1     -13.217  11.695  72.077  1.00  0.00    -0.443 A  
HETATM   18  C   UNL     1     -12.974  12.559  70.994  1.00  0.00    -0.068 A  
HETATM   19  C   UNL     1     -11.442  10.907  70.072  1.00  0.00    -0.411 A  
HETATM   20  C   UNL     1     -12.583  10.459  72.165  1.00  0.00    -0.104 A  
HETATM   21  C   UNL     1     -11.697  10.073  71.165  1.00  0.00    -0.387 A  
BRANCH  18  22
HETATM   22  O   UNL     1     -13.585  13.782  70.880  1.00  0.00    -0.059 OA 
BRANCH  22  23
HETATM   23  C   UNL     1     -14.364  14.236  71.988  1.00  0.00    -0.544 C  
HETATM   24  C   UNL     1     -13.729  15.486  72.567  1.00  0.00    -0.668 C  
ENDBRANCH  22  23
ENDBRANCH  18  22
BRANCH  21  25
HETATM   25  S   UNL     1     -10.725   8.608  71.403  1.00  0.00    -0.294 S  
HETATM   26  O   UNL     1     -11.433   7.780  72.355  1.00  0.00    -0.314 OA 
HETATM   27  O   UNL     1      -9.368   9.039  71.657  1.00  0.00    -0.265 OA 
BRANCH  25  28
HETATM   28  N   UNL     1     -10.791   7.838  69.879  1.00  0.00    -0.245 N  
HETATM   29  C   UNL     1      -9.525   7.800  69.080  1.00  0.00    -0.151 C  
HETATM   30  C   UNL     1      -8.549   6.698  69.569  1.00  0.00    -0.132 C  
HETATM   31  N   UNL     1      -9.140   5.348  69.724  1.00  0.00    -0.125 NA 
HETATM   32  C   UNL     1     -10.394   5.450  70.503  1.00  0.00    -0.274 C  
HETATM   33  C   UNL     1     -11.398   6.469  69.932  1.00  0.00    -0.406 C  
BRANCH  31  34
HETATM   34  C   UNL     1      -9.299   4.692  68.418  1.00  0.00    -0.137 C  
HETATM   35  C   UNL     1      -9.228   3.170  68.482  1.00  0.00    -0.230 C  
ENDBRANCH  31  34
ENDBRANCH  25  28
ENDBRANCH  21  25
ENDBRANCH  11  16
ENDBRANCH   3   4
ENDBRANCH   2   3
TORSDOF 8
ENDMDL
MODEL       20
REMARK 921   NORMALIZED FREE ENERGY PREDICTED BY IDOCK:   -6.54 KCAL/MOL
REMARK 922        TOTAL FREE ENERGY PREDICTED BY IDOCK:  -10.61 KCAL/MOL
REMARK 923 INTER-LIGAND FREE ENERGY PREDICTED BY IDOCK:   -9.82 KCAL/MOL
REMARK 924 INTRA-LIGAND FREE ENERGY PREDICTED BY IDOCK:   -0.78 KCAL/MOL
REMARK 927      BINDING AFFINITY PREDICTED BY RF-SCORE:    0.00 PKD
ROOT
HETATM    1  C   UNL     1      -5.573  16.494  67.405  1.00  0.00    -0.184 C  
HETATM    2  C   UNL     1      -6.220  17.312  68.516  1.00  0.00    -0.160 C  
ENDROOT
BRANCH   2   3
HETATM    3  C   UNL     1      -7.652  16.886  68.844  1.00  0.00    -0.234 C  
BRANCH   3   4
HETATM    4  C   UNL     1      -8.629  17.235  67.770  1.00  0.00    -0.225 A  
HETATM    5  N   UNL     1      -9.061  18.454  67.506  1.00  0.00    -0.270 NA 
HETATM    6  C   UNL     1      -9.923  18.331  66.444  1.00  0.00    -0.380 A  
HETATM    7  C   UNL     1     -10.018  17.008  66.069  1.00  0.00    -0.269 A  
HETATM    8  C   UNL     1     -10.593  19.516  65.864  1.00  0.00    -0.572 C  
HETATM    9  N   UNL     1      -9.194  16.329  66.901  1.00  0.00    -0.209 NA 
HETATM   10  N   UNL     1      -8.979  14.983  66.785  1.00  0.00    -0.249 NA 
HETATM   11  C   UNL     1      -9.818  14.359  65.870  1.00  0.00    -0.310 C  
HETATM   12  N   UNL     1     -10.638  14.969  65.070  1.00  0.00    -0.410 N  
HETATM   13  O   UNL     1     -11.461  16.926  64.238  1.00  0.00    -1.142 OA 
HETATM   14  H   UNL     1     -11.212  14.413  64.436  1.00  0.00     0.000 HD 
HETATM   15  C   UNL     1     -10.758  16.337  65.047  1.00  0.00    -0.298 C  
BRANCH  11  16
HETATM   16  C   UNL     1      -9.786  12.846  65.792  1.00  0.00    -0.216 A  
HETATM   17  C   UNL     1     -10.228  10.724  64.682  1.00  0.00    -0.419 A  
HETATM   18  C   UNL     1     -10.287  12.129  64.678  1.00  0.00    -0.297 A  
HETATM   19  C   UNL     1      -9.274  12.138  66.892  1.00  0.00    -0.203 A  
HETATM   20  C   UNL     1      -9.708  10.030  65.771  1.00  0.00    -0.321 A  
HETATM   21  C   UNL     1      -9.236  10.739  66.871  1.00  0.00    -0.156 A  
BRANCH  18  22
HETATM   22  O   UNL     1     -10.793  12.839  63.620  1.00  0.00    -0.412 OA 
BRANCH  22  23
HETATM   23  C   UNL     1     -12.134  12.554  63.214  1.00  0.00    -0.430 C  
HETATM   24  C   UNL     1     -13.026  12.500  64.439  1.00  0.00    -0.248 C  
ENDBRANCH  22  23
ENDBRANCH  18  22
BRANCH  21  25
HETATM   25  S   UNL     1      -8.793   9.846  68.337  1.00  0.00    -0.122 S  
HETATM   26  O   UNL     1      -8.135  10.782  69.221  1.00  0.00    -0.150 OA 
HETATM   27  O   UNL     1      -8.128   8.635  67.908  1.00  0.00    -0.106 OA 
BRANCH  25  28
HETATM   28  N   UNL     1     -10.304   9.440  69.025  1.00  0.00    -0.205 N  
HETATM   29  C   UNL     1     -10.775   8.029  68.849  1.00  0.00    -0.065 C  
HETATM   30  C   UNL     1     -10.088   7.048  69.835  1.00  0.00    -0.193 C  
HETATM   31  N   UNL     1     -10.108   7.459  71.259  1.00  0.00    -0.189 NA 
HETATM   32  C   UNL     1      -9.651   8.862  71.368  1.00  0.00    -0.289 C  
HETATM   33  C   UNL     1     -10.427   9.839  70.464  1.00  0.00    -0.301 C  
BRANCH  31  34
HETATM   34  C   UNL     1     -11.426   7.210  71.858  1.00  0.00    -0.270 C  
HETATM   35  C   UNL     1     -11.557   5.838  72.509  1.00  0.00    -0.321 C  
ENDBRANCH  31  34
ENDBRANCH  25  28
ENDBRANCH  21  25
ENDBRANCH  11  16
ENDBRANCH   3   4
ENDBRANCH   2   3
TORSDOF 8
ENDMDL
MODEL       21
REMARK 921   NORMALIZED FREE ENERGY PREDICTED BY IDOCK:   -6.53 KCAL/MOL
REMARK 922        TOTAL FREE ENERGY PREDICTED BY IDOCK:  -10.59 KCAL/MOL
REMARK 923 INTER-LIGAND FREE ENERGY PREDICTED BY IDOCK:   -9.42 KCAL/MOL
REMARK 924 INTRA-LIGAND FREE ENERGY PREDICTED BY IDOCK:   -1.18 KCAL/MOL
REMARK 927      BINDING AFFINITY PREDICTED BY RF-SCORE:    0.00 PKD
ROOT
HETATM    1  C   UNL     1     -13.013  15.751  72.696  1.00  0.00    -0.569 C  
HETATM    2  C   UNL     1     -13.157  15.306  71.245  1.00  0.00    -0.540 C  
ENDROOT
BRANCH   2   3
HETATM    3  C   UNL     1     -11.901  14.643  70.676  1.00  0.00    -0.367 C  
BRANCH   3   4
HETATM    4  C   UNL     1     -11.231  15.461  69.622  1.00  0.00    -0.283 A  
HETATM    5  N   UNL     1     -11.148  16.779  69.625  1.00  0.00    -0.150 NA 
HETATM    6  C   UNL     1     -10.443  17.118  68.497  1.00  0.00    -0.377 A  
HETATM    7  C   UNL     1     -10.103  15.980  67.796  1.00  0.00    -0.243 A  
HETATM    8  C   UNL     1     -10.144  18.533  68.180  1.00  0.00    -0.408 C  
HETATM    9  N   UNL     1     -10.594  14.945  68.517  1.00  0.00    -0.239 NA 
HETATM   10  N   UNL     1     -10.392  13.640  68.159  1.00  0.00    -0.239 NA 
HETATM   11  C   UNL     1      -9.809  13.486  66.907  1.00  0.00    -0.257 C  
HETATM   12  N   UNL     1      -9.346  14.452  66.174  1.00  0.00    -0.490 N  
HETATM   13  O   UNL     1      -8.874  16.670  65.938  1.00  0.00    -0.486 OA 
HETATM   14  H   UNL     1      -8.938  14.229  65.266  1.00  0.00     0.000 HD 
HETATM   15  C   UNL     1      -9.386  15.764  66.580  1.00  0.00    -0.283 C  
BRANCH  11  16
HETATM   16  C   UNL     1      -9.703  12.086  66.338  1.00  0.00    -0.239 A  
HETATM   17  C   UNL     1      -9.818  10.473  64.517  1.00  0.00    -0.401 A  
HETATM   18  C   UNL     1      -9.929  11.800  64.970  1.00  0.00    -0.254 A  
HETATM   19  C   UNL     1      -9.408  11.034  67.221  1.00  0.00    -0.167 A  
HETATM   20  C   UNL     1      -9.513   9.438  65.397  1.00  0.00    -0.322 A  
HETATM   21  C   UNL     1      -9.313   9.722  66.743  1.00  0.00    -0.152 A  
BRANCH  18  22
HETATM   22  O   UNL     1     -10.227  12.840  64.126  1.00  0.00    -0.384 OA 
BRANCH  22  23
HETATM   23  C   UNL     1     -11.514  12.839  63.506  1.00  0.00    -0.459 C  
HETATM   24  C   UNL     1     -12.328  14.002  64.039  1.00  0.00    -0.341 C  
ENDBRANCH  22  23
ENDBRANCH  18  22
BRANCH  21  25
HETATM   25  S   UNL     1      -9.155   8.376  67.886  1.00  0.00    -0.132 S  
HETATM   26  O   UNL     1     -10.225   8.511  68.850  1.00  0.00    -0.199 OA 
HETATM   27  O   UNL     1      -7.773   8.341  68.309  1.00  0.00    -0.102 OA 
BRANCH  25  28
HETATM   28  N   UNL     1      -9.480   7.000  66.924  1.00  0.00    -0.153 N  
HETATM   29  C   UNL     1      -8.307   6.162  66.518  1.00  0.00    -0.113 C  
HETATM   30  C   UNL     1      -7.826   5.225  67.655  1.00  0.00    -0.096 C  
HETATM   31  N   UNL     1      -8.883   4.411  68.299  1.00  0.00    -0.101 NA 
HETATM   32  C   UNL     1     -10.020   5.286  68.663  1.00  0.00    -0.168 C  
HETATM   33  C   UNL     1     -10.558   6.124  67.487  1.00  0.00    -0.273 C  
BRANCH  31  34
HETATM   34  C   UNL     1      -9.254   3.269  67.453  1.00  0.00    -0.198 C  
HETATM   35  C   UNL     1      -9.529   1.988  68.234  1.00  0.00    -0.231 C  
ENDBRANCH  31  34
ENDBRANCH  25  28
ENDBRANCH  21  25
ENDBRANCH  11  16
ENDBRANCH   3   4
ENDBRANCH   2   3
TORSDOF 8
ENDMDL
MODEL       22
REMARK 921   NORMALIZED FREE ENERGY PREDICTED BY IDOCK:   -6.50 KCAL/MOL
REMARK 922        TOTAL FREE ENERGY PREDICTED BY IDOCK:  -10.55 KCAL/MOL
REMARK 923 INTER-LIGAND FREE ENERGY PREDICTED BY IDOCK:   -9.36 KCAL/MOL
REMARK 924 INTRA-LIGAND FREE ENERGY PREDICTED BY IDOCK:   -1.20 KCAL/MOL
REMARK 927      BINDING AFFINITY PREDICTED BY RF-SCORE:    0.00 PKD
ROOT
HETATM    1  C   UNL     1     -10.296   4.029  64.801  1.00  0.00    -0.212 C  
HETATM    2  C   UNL     1      -9.721   4.212  66.201  1.00  0.00    -0.215 C  
ENDROOT
BRANCH   2   3
HETATM    3  C   UNL     1     -10.479   5.235  67.050  1.00  0.00    -0.290 C  
BRANCH   3   4
HETATM    4  C   UNL     1     -10.244   5.071  68.515  1.00  0.00    -0.073 A  
HETATM    5  N   UNL     1      -9.880   3.946  69.102  1.00  0.00    -0.058 NA 
HETATM    6  C   UNL     1      -9.759   4.236  70.439  1.00  0.00    -0.209 A  
HETATM    7  C   UNL     1     -10.068   5.562  70.661  1.00  0.00    -0.223 A  
HETATM    8  C   UNL     1      -9.345   3.200  71.411  1.00  0.00    -0.207 C  
HETATM    9  N   UNL     1     -10.362   6.079  69.445  1.00  0.00    -0.211 NA 
HETATM   10  N   UNL     1     -10.657   7.402  69.261  1.00  0.00    -0.220 NA 
HETATM   11  C   UNL     1     -10.810   8.111  70.447  1.00  0.00    -0.236 C  
HETATM   12  N   UNL     1     -10.561   7.647  71.633  1.00  0.00    -0.202 N  
HETATM   13  O   UNL     1      -9.783   5.951  72.943  1.00  0.00    -0.155 OA 
HETATM   14  H   UNL     1     -10.710   8.254  72.439  1.00  0.00     0.000 HD 
HETATM   15  C   UNL     1     -10.105   6.369  71.839  1.00  0.00    -0.183 C  
BRANCH  11  16
HETATM   16  C   UNL     1     -11.311   9.539  70.362  1.00  0.00    -0.318 A  
HETATM   17  C   UNL     1     -12.660  11.410  71.139  1.00  0.00    -0.490 A  
HETATM   18  C   UNL     1     -12.238  10.078  71.287  1.00  0.00    -0.402 A  
HETATM   19  C   UNL     1     -10.860  10.336  69.297  1.00  0.00    -0.275 A  
HETATM   20  C   UNL     1     -12.199  12.198  70.088  1.00  0.00    -0.308 A  
HETATM   21  C   UNL     1     -11.305  11.657  69.171  1.00  0.00    -0.283 A  
BRANCH  18  22
HETATM   22  O   UNL     1     -12.674   9.279  72.313  1.00  0.00    -0.382 OA 
BRANCH  22  23
HETATM   23  C   UNL     1     -14.068   8.965  72.358  1.00  0.00    -0.420 C  
HETATM   24  C   UNL     1     -14.316   7.684  71.586  1.00  0.00    -0.613 C  
ENDBRANCH  22  23
ENDBRANCH  18  22
BRANCH  21  25
HETATM   25  S   UNL     1     -10.906  12.587  67.715  1.00  0.00    -0.234 S  
HETATM   26  O   UNL     1     -12.066  12.541  66.852  1.00  0.00    -0.537 OA 
HETATM   27  O   UNL     1      -9.618  12.119  67.255  1.00  0.00    -0.181 OA 
BRANCH  25  28
HETATM   28  N   UNL     1     -10.744  14.185  68.299  1.00  0.00    -0.243 N  
HETATM   29  C   UNL     1      -9.352  14.691  68.520  1.00  0.00    -0.201 C  
HETATM   30  C   UNL     1      -8.664  15.128  67.201  1.00  0.00    -0.216 C  
HETATM   31  N   UNL     1      -9.451  16.048  66.347  1.00  0.00    -0.268 NA 
HETATM   32  C   UNL     1     -10.819  15.507  66.178  1.00  0.00    -0.295 C  
HETATM   33  C   UNL     1     -11.528  15.189  67.507  1.00  0.00    -0.298 C  
BRANCH  31  34
HETATM   34  C   UNL     1      -9.411  17.418  66.875  1.00  0.00    -0.269 C  
HETATM   35  C   UNL     1     -10.365  18.377  66.171  1.00  0.00    -0.431 C  
ENDBRANCH  31  34
ENDBRANCH  25  28
ENDBRANCH  21  25
ENDBRANCH  11  16
ENDBRANCH   3   4
ENDBRANCH   2   3
TORSDOF 8
ENDMDL
MODEL       23
REMARK 921   NORMALIZED FREE ENERGY PREDICTED BY IDOCK:   -6.49 KCAL/MOL
REMARK 922        TOTAL FREE ENERGY PREDICTED BY IDOCK:  -10.54 KCAL/MOL
REMARK 923 INTER-LIGAND FREE ENERGY PREDICTED BY IDOCK:   -9.40 KCAL/MOL
REMARK 924 INTRA-LIGAND FREE ENERGY PREDICTED BY IDOCK:   -1.14 KCAL/MOL
REMARK 927      BINDING AFFINITY PREDICTED BY RF-SCORE:    0.00 PKD
ROOT
HETATM    1  C   UNL     1      -6.456  14.368  68.089  1.00  0.00    -0.139 C  
HETATM    2  C   UNL     1      -6.828  15.765  67.606  1.00  0.00    -0.198 C  
ENDROOT
BRANCH   2   3
HETATM    3  C   UNL     1      -8.188  16.251  68.113  1.00  0.00    -0.163 C  
BRANCH   3   4
HETATM    4  C   UNL     1      -9.312  15.924  67.186  1.00  0.00    -0.212 A  
HETATM    5  N   UNL     1      -9.530  16.510  66.024  1.00  0.00    -0.424 NA 
HETATM    6  C   UNL     1     -10.642  15.903  65.494  1.00  0.00    -0.401 A  
HETATM    7  C   UNL     1     -11.107  14.937  66.362  1.00  0.00    -0.342 A  
HETATM    8  C   UNL     1     -11.174  16.303  64.173  1.00  0.00     0.264 C  
HETATM    9  N   UNL     1     -10.259  14.952  67.417  1.00  0.00    -0.233 NA 
HETATM   10  N   UNL     1     -10.368  14.073  68.460  1.00  0.00    -0.243 NA 
HETATM   11  C   UNL     1     -11.526  13.306  68.426  1.00  0.00    -0.314 C  
HETATM   12  N   UNL     1     -12.376  13.278  67.446  1.00  0.00    -0.162 N  
HETATM   13  O   UNL     1     -12.955  13.944  65.344  1.00  0.00    -0.722 OA 
HETATM   14  H   UNL     1     -13.198  12.678  67.524  1.00  0.00     0.000 HD 
HETATM   15  C   UNL     1     -12.208  14.029  66.308  1.00  0.00    -0.462 C  
BRANCH  11  16
HETATM   16  C   UNL     1     -11.834  12.429  69.623  1.00  0.00    -0.380 A  
HETATM   17  C   UNL     1     -12.894  11.991  71.771  1.00  0.00    -0.377 A  
HETATM   18  C   UNL     1     -12.659  12.860  70.691  1.00  0.00    -0.177 A  
HETATM   19  C   UNL     1     -11.241  11.157  69.682  1.00  0.00    -0.333 A  
HETATM   20  C   UNL     1     -12.311  10.727  71.816  1.00  0.00    -0.163 A  
HETATM   21  C   UNL     1     -11.486  10.318  70.774  1.00  0.00    -0.351 A  
BRANCH  18  22
HETATM   22  O   UNL     1     -13.220  14.110  70.619  1.00  0.00    -0.254 OA 
BRANCH  22  23
HETATM   23  C   UNL     1     -12.752  15.097  71.540  1.00  0.00    -0.358 C  
HETATM   24  C   UNL     1     -13.909  15.566  72.400  1.00  0.00    -0.662 C  
ENDBRANCH  22  23
ENDBRANCH  18  22
BRANCH  21  25
HETATM   25  S   UNL     1     -10.571   8.810  70.951  1.00  0.00    -0.238 S  
HETATM   26  O   UNL     1      -9.310   9.149  71.572  1.00  0.00    -0.264 OA 
HETATM   27  O   UNL     1     -10.613   8.138  69.671  1.00  0.00    -0.227 OA 
BRANCH  25  28
HETATM   28  N   UNL     1     -11.494   7.917  72.080  1.00  0.00    -0.301 N  
HETATM   29  C   UNL     1     -12.249   6.733  71.558  1.00  0.00    -0.366 C  
HETATM   30  C   UNL     1     -11.340   5.494  71.356  1.00  0.00     0.091 C  
HETATM   31  N   UNL     1     -10.488   5.133  72.514  1.00  0.00    -0.207 NA 
HETATM   32  C   UNL     1      -9.783   6.342  72.997  1.00  0.00    -0.154 C  
HETATM   33  C   UNL     1     -10.720   7.526  73.302  1.00  0.00    -0.382 C  
BRANCH  31  34
HETATM   34  C   UNL     1     -11.273   4.446  73.549  1.00  0.00    -0.288 C  
HETATM   35  C   UNL     1     -11.227   2.925  73.447  1.00  0.00    -0.259 C  
ENDBRANCH  31  34
ENDBRANCH  25  28
ENDBRANCH  21  25
ENDBRANCH  11  16
ENDBRANCH   3   4
ENDBRANCH   2   3
TORSDOF 8
ENDMDL
MODEL       24
REMARK 921   NORMALIZED FREE ENERGY PREDICTED BY IDOCK:   -6.48 KCAL/MOL
REMARK 922        TOTAL FREE ENERGY PREDICTED BY IDOCK:  -10.51 KCAL/MOL
REMARK 923 INTER-LIGAND FREE ENERGY PREDICTED BY IDOCK:   -9.55 KCAL/MOL
REMARK 924 INTRA-LIGAND FREE ENERGY PREDICTED BY IDOCK:   -0.96 KCAL/MOL
REMARK 927      BINDING AFFINITY PREDICTED BY RF-SCORE:    0.00 PKD
ROOT
HETATM    1  C   UNL     1      -9.083  10.795  63.188  1.00  0.00    -0.276 C  
HETATM    2  C   UNL     1      -9.723  10.185  64.430  1.00  0.00    -0.345 C  
ENDROOT
BRANCH   2   3
HETATM    3  C   UNL     1      -8.711   9.719  65.480  1.00  0.00    -0.171 C  
BRANCH   3   4
HETATM    4  C   UNL     1      -9.189   8.551  66.277  1.00  0.00    -0.207 A  
HETATM    5  N   UNL     1      -8.977   7.286  65.969  1.00  0.00    -0.149 NA 
HETATM    6  C   UNL     1      -9.563   6.547  66.967  1.00  0.00    -0.144 A  
HETATM    7  C   UNL     1     -10.150   7.387  67.889  1.00  0.00    -0.178 A  
HETATM    8  C   UNL     1      -9.509   5.068  66.955  1.00  0.00    -0.148 C  
HETATM    9  N   UNL     1      -9.901   8.644  67.452  1.00  0.00    -0.178 NA 
HETATM   10  N   UNL     1     -10.279   9.755  68.155  1.00  0.00    -0.176 NA 
HETATM   11  C   UNL     1     -11.097   9.477  69.244  1.00  0.00    -0.082 C  
HETATM   12  N   UNL     1     -11.379   8.288  69.682  1.00  0.00    -0.437 N  
HETATM   13  O   UNL     1     -11.067   6.034  69.552  1.00  0.00    -0.373 OA 
HETATM   14  H   UNL     1     -11.994   8.196  70.491  1.00  0.00     0.000 HD 
HETATM   15  C   UNL     1     -10.880   7.152  69.095  1.00  0.00    -0.162 C  
BRANCH  11  16
HETATM   16  C   UNL     1     -11.717  10.644  69.985  1.00  0.00    -0.405 A  
HETATM   17  C   UNL     1     -13.029  11.610  71.794  1.00  0.00    -0.483 A  
HETATM   18  C   UNL     1     -12.480  10.479  71.166  1.00  0.00    -0.412 A  
HETATM   19  C   UNL     1     -11.555  11.931  69.445  1.00  0.00    -0.388 A  
HETATM   20  C   UNL     1     -12.853  12.884  71.260  1.00  0.00    -0.361 A  
HETATM   21  C   UNL     1     -12.121  13.038  70.088  1.00  0.00    -0.307 A  
BRANCH  18  22
HETATM   22  O   UNL     1     -12.636   9.212  71.670  1.00  0.00    -0.320 OA 
BRANCH  22  23
HETATM   23  C   UNL     1     -13.929   8.850  72.157  1.00  0.00    -0.456 C  
HETATM   24  C   UNL     1     -14.362   7.550  71.508  1.00  0.00    -0.603 C  
ENDBRANCH  22  23
ENDBRANCH  18  22
BRANCH  21  25
HETATM   25  S   UNL     1     -12.099  14.624  69.296  1.00  0.00    -0.232 S  
HETATM   26  O   UNL     1     -12.910  15.511  70.101  1.00  0.00    -0.299 OA 
HETATM   27  O   UNL     1     -12.402  14.403  67.899  1.00  0.00    -0.220 OA 
BRANCH  25  28
HETATM   28  N   UNL     1     -10.469  15.117  69.443  1.00  0.00    -0.246 N  
HETATM   29  C   UNL     1      -9.518  14.650  68.385  1.00  0.00    -0.209 C  
HETATM   30  C   UNL     1      -9.628  15.482  67.081  1.00  0.00    -0.222 C  
HETATM   31  N   UNL     1      -9.571  16.952  67.257  1.00  0.00    -0.242 NA 
HETATM   32  C   UNL     1     -10.516  17.352  68.324  1.00  0.00    -0.385 C  
HETATM   33  C   UNL     1     -10.312  16.594  69.649  1.00  0.00    -0.193 C  
BRANCH  31  34
HETATM   34  C   UNL     1      -8.191  17.401  67.481  1.00  0.00    -0.201 C  
HETATM   35  C   UNL     1      -7.299  17.286  66.249  1.00  0.00    -0.342 C  
ENDBRANCH  31  34
ENDBRANCH  25  28
ENDBRANCH  21  25
ENDBRANCH  11  16
ENDBRANCH   3   4
ENDBRANCH   2   3
TORSDOF 8
ENDMDL
MODEL       25
REMARK 921   NORMALIZED FREE ENERGY PREDICTED BY IDOCK:   -6.40 KCAL/MOL
REMARK 922        TOTAL FREE ENERGY PREDICTED BY IDOCK:  -10.41 KCAL/MOL
REMARK 923 INTER-LIGAND FREE ENERGY PREDICTED BY IDOCK:   -9.45 KCAL/MOL
REMARK 924 INTRA-LIGAND FREE ENERGY PREDICTED BY IDOCK:   -0.96 KCAL/MOL
REMARK 927      BINDING AFFINITY PREDICTED BY RF-SCORE:    0.00 PKD
ROOT
HETATM    1  C   UNL     1     -10.241   6.367  74.363  1.00  0.00    -0.343 C  
HETATM    2  C   UNL     1      -8.862   5.761  74.130  1.00  0.00    -0.122 C  
ENDROOT
BRANCH   2   3
HETATM    3  C   UNL     1      -8.121   6.356  72.931  1.00  0.00    -0.106 C  
BRANCH   3   4
HETATM    4  C   UNL     1      -8.724   5.975  71.620  1.00  0.00    -0.135 A  
HETATM    5  N   UNL     1      -8.493   4.844  70.980  1.00  0.00    -0.114 NA 
HETATM    6  C   UNL     1      -9.253   4.890  69.838  1.00  0.00    -0.124 A  
HETATM    7  C   UNL     1      -9.947   6.080  69.785  1.00  0.00    -0.175 A  
HETATM    8  C   UNL     1      -9.253   3.767  68.874  1.00  0.00    -0.220 C  
HETATM    9  N   UNL     1      -9.616   6.750  70.914  1.00  0.00    -0.168 NA 
HETATM   10  N   UNL     1     -10.169   7.958  71.240  1.00  0.00    -0.187 NA 
HETATM   11  C   UNL     1     -10.944   8.511  70.228  1.00  0.00    -0.235 C  
HETATM   12  N   UNL     1     -11.267   7.913  69.123  1.00  0.00    -0.382 N  
HETATM   13  O   UNL     1     -11.233   6.029  67.839  1.00  0.00    -0.245 OA 
HETATM   14  H   UNL     1     -11.842   8.412  68.443  1.00  0.00     0.000 HD 
HETATM   15  C   UNL     1     -10.862   6.632  68.836  1.00  0.00    -0.277 C  
BRANCH  11  16
HETATM   16  C   UNL     1     -11.457   9.924  70.416  1.00  0.00    -0.372 A  
HETATM   17  C   UNL     1     -12.852  11.595  71.508  1.00  0.00    -0.469 A  
HETATM   18  C   UNL     1     -12.420  10.261  71.398  1.00  0.00    -0.424 A  
HETATM   19  C   UNL     1     -10.979  10.922  69.550  1.00  0.00    -0.306 A  
HETATM   20  C   UNL     1     -12.364  12.580  70.653  1.00  0.00    -0.369 A  
HETATM   21  C   UNL     1     -11.434  12.239  69.678  1.00  0.00    -0.215 A  
BRANCH  18  22
HETATM   22  O   UNL     1     -12.883   9.270  72.225  1.00  0.00    -0.389 OA 
BRANCH  22  23
HETATM   23  C   UNL     1     -14.264   8.918  72.126  1.00  0.00    -0.388 C  
HETATM   24  C   UNL     1     -14.382   7.495  71.616  1.00  0.00    -0.621 C  
ENDBRANCH  22  23
ENDBRANCH  18  22
BRANCH  21  25
HETATM   25  S   UNL     1     -10.997  13.446  68.455  1.00  0.00    -0.279 S  
HETATM   26  O   UNL     1     -12.221  13.847  67.798  1.00  0.00    -0.338 OA 
HETATM   27  O   UNL     1      -9.892  12.899  67.698  1.00  0.00    -0.203 OA 
BRANCH  25  28
HETATM   28  N   UNL     1     -10.437  14.767  69.385  1.00  0.00    -0.227 N  
HETATM   29  C   UNL     1      -8.983  15.109  69.275  1.00  0.00    -0.202 C  
HETATM   30  C   UNL     1      -8.658  15.908  67.987  1.00  0.00    -0.164 C  
HETATM   31  N   UNL     1      -9.518  17.088  67.736  1.00  0.00    -0.242 NA 
HETATM   32  C   UNL     1     -10.938  16.695  67.874  1.00  0.00    -0.276 C  
HETATM   33  C   UNL     1     -11.263  16.006  69.213  1.00  0.00    -0.346 C  
BRANCH  31  34
HETATM   34  C   UNL     1      -9.123  18.216  68.590  1.00  0.00    -0.277 C  
HETATM   35  C   UNL     1      -9.885  19.505  68.298  1.00  0.00    -0.512 C  
ENDBRANCH  31  34
ENDBRANCH  25  28
ENDBRANCH  21  25
ENDBRANCH  11  16
ENDBRANCH   3   4
ENDBRANCH   2   3
TORSDOF 8
ENDMDL
MODEL       26
REMARK 921   NORMALIZED FREE ENERGY PREDICTED BY IDOCK:   -6.32 KCAL/MOL
REMARK 922        TOTAL FREE ENERGY PREDICTED BY IDOCK:  -10.28 KCAL/MOL
REMARK 923 INTER-LIGAND FREE ENERGY PREDICTED BY IDOCK:   -9.80 KCAL/MOL
REMARK 924 INTRA-LIGAND FREE ENERGY PREDICTED BY IDOCK:   -0.48 KCAL/MOL
REMARK 927      BINDING AFFINITY PREDICTED BY RF-SCORE:    0.00 PKD
ROOT
HETATM    1  C   UNL     1      -8.422  17.287  67.942  1.00  0.00    -0.218 C  
HETATM    2  C   UNL     1      -9.085  16.402  68.990  1.00  0.00    -0.252 C  
ENDROOT
BRANCH   2   3
HETATM    3  C   UNL     1     -10.542  16.770  69.278  1.00  0.00    -0.336 C  
BRANCH   3   4
HETATM    4  C   UNL     1     -11.230  15.789  70.168  1.00  0.00    -0.349 A  
HETATM    5  N   UNL     1     -11.705  16.060  71.370  1.00  0.00    -0.454 NA 
HETATM    6  C   UNL     1     -12.269  14.895  71.828  1.00  0.00    -0.348 A  
HETATM    7  C   UNL     1     -12.120  13.900  70.885  1.00  0.00    -0.313 A  
HETATM    8  C   UNL     1     -12.920  14.831  73.155  1.00  0.00    -0.623 C  
HETATM    9  N   UNL     1     -11.476  14.474  69.842  1.00  0.00    -0.267 NA 
HETATM   10  N   UNL     1     -11.209  13.801  68.682  1.00  0.00    -0.263 NA 
HETATM   11  C   UNL     1     -11.487  12.441  68.747  1.00  0.00    -0.304 C  
HETATM   12  N   UNL     1     -12.083  11.847  69.735  1.00  0.00    -0.278 N  
HETATM   13  O   UNL     1     -13.152  11.992  71.744  1.00  0.00    -0.445 OA 
HETATM   14  H   UNL     1     -12.237  10.839  69.682  1.00  0.00     0.000 HD 
HETATM   15  C   UNL     1     -12.512  12.526  70.849  1.00  0.00    -0.269 C  
BRANCH  11  16
HETATM   16  C   UNL     1     -11.064  11.571  67.581  1.00  0.00    -0.324 A  
HETATM   17  C   UNL     1     -10.786  11.120  65.205  1.00  0.00    -0.279 A  
HETATM   18  C   UNL     1     -11.196  11.985  66.234  1.00  0.00    -0.342 A  
HETATM   19  C   UNL     1     -10.558  10.290  67.860  1.00  0.00    -0.282 A  
HETATM   20  C   UNL     1     -10.275   9.856  65.490  1.00  0.00    -0.194 A  
HETATM   21  C   UNL     1     -10.167   9.447  66.815  1.00  0.00    -0.250 A  
BRANCH  18  22
HETATM   22  O   UNL     1     -11.702  13.235  65.983  1.00  0.00    -0.336 OA 
BRANCH  22  23
HETATM   23  C   UNL     1     -11.513  13.773  64.672  1.00  0.00    -0.371 C  
HETATM   24  C   UNL     1     -10.950  15.176  64.784  1.00  0.00    -0.394 C  
ENDBRANCH  22  23
ENDBRANCH  18  22
BRANCH  21  25
HETATM   25  S   UNL     1      -9.735   7.761  67.155  1.00  0.00    -0.205 S  
HETATM   26  O   UNL     1      -8.482   7.500  66.482  1.00  0.00    -0.120 OA 
HETATM   27  O   UNL     1     -10.908   6.961  66.880  1.00  0.00    -0.351 OA 
BRANCH  25  28
HETATM   28  N   UNL     1      -9.441   7.761  68.839  1.00  0.00    -0.150 N  
HETATM   29  C   UNL     1     -10.622   7.548  69.736  1.00  0.00    -0.241 C  
HETATM   30  C   UNL     1     -11.033   6.056  69.830  1.00  0.00    -0.388 C  
HETATM   31  N   UNL     1      -9.934   5.111  70.139  1.00  0.00    -0.231 NA 
HETATM   32  C   UNL     1      -8.792   5.379  69.237  1.00  0.00    -0.101 C  
HETATM   33  C   UNL     1      -8.325   6.847  69.247  1.00  0.00    -0.129 C  
BRANCH  31  34
HETATM   34  C   UNL     1      -9.591   5.154  71.567  1.00  0.00    -0.156 C  
HETATM   35  C   UNL     1     -10.787   4.963  72.494  1.00  0.00    -0.234 C  
ENDBRANCH  31  34
ENDBRANCH  25  28
ENDBRANCH  21  25
ENDBRANCH  11  16
ENDBRANCH   3   4
ENDBRANCH   2   3
TORSDOF 8
ENDMDL
MODEL       27
REMARK 921   NORMALIZED FREE ENERGY PREDICTED BY IDOCK:   -6.31 KCAL/MOL
REMARK 922        TOTAL FREE ENERGY PREDICTED BY IDOCK:  -10.27 KCAL/MOL
REMARK 923 INTER-LIGAND FREE ENERGY PREDICTED BY IDOCK:   -9.51 KCAL/MOL
REMARK 924 INTRA-LIGAND FREE ENERGY PREDICTED BY IDOCK:   -0.75 KCAL/MOL
REMARK 927      BINDING AFFINITY PREDICTED BY RF-SCORE:    0.00 PKD
ROOT
HETATM    1  C   UNL     1     -11.683  16.145  72.206  1.00  0.00    -0.564 C  
HETATM    2  C   UNL     1     -11.993  16.008  70.720  1.00  0.00    -0.339 C  
ENDROOT
BRANCH   2   3
HETATM    3  C   UNL     1     -10.749  15.873  69.839  1.00  0.00    -0.334 C  
BRANCH   3   4
HETATM    4  C   UNL     1     -11.007  15.131  68.570  1.00  0.00    -0.262 A  
HETATM    5  N   UNL     1     -11.048  15.677  67.369  1.00  0.00    -0.297 NA 
HETATM    6  C   UNL     1     -11.290  14.649  66.491  1.00  0.00    -0.353 A  
HETATM    7  C   UNL     1     -11.407  13.461  67.182  1.00  0.00    -0.315 A  
HETATM    8  C   UNL     1     -11.388  14.894  65.035  1.00  0.00    -0.398 C  
HETATM    9  N   UNL     1     -11.218  13.774  68.485  1.00  0.00    -0.260 NA 
HETATM   10  N   UNL     1     -11.198  12.827  69.473  1.00  0.00    -0.140 NA 
HETATM   11  C   UNL     1     -11.575  11.561  69.041  1.00  0.00    -0.318 C  
HETATM   12  N   UNL     1     -11.788  11.224  67.806  1.00  0.00    -0.176 N  
HETATM   13  O   UNL     1     -11.767  11.788  65.597  1.00  0.00    -0.321 OA 
HETATM   14  H   UNL     1     -12.063  10.264  67.598  1.00  0.00     0.000 HD 
HETATM   15  C   UNL     1     -11.655  12.116  66.770  1.00  0.00    -0.345 C  
BRANCH  11  16
HETATM   16  C   UNL     1     -11.759  10.479  70.086  1.00  0.00    -0.410 A  
HETATM   17  C   UNL     1     -12.796   9.551  72.084  1.00  0.00    -0.471 A  
HETATM   18  C   UNL     1     -12.686  10.596  71.150  1.00  0.00    -0.422 A  
HETATM   19  C   UNL     1     -10.943   9.337  70.007  1.00  0.00    -0.254 A  
HETATM   20  C   UNL     1     -11.992   8.418  71.992  1.00  0.00    -0.419 A  
HETATM   21  C   UNL     1     -11.068   8.318  70.958  1.00  0.00    -0.251 A  
BRANCH  18  22
HETATM   22  O   UNL     1     -13.465  11.723  71.214  1.00  0.00     0.052 OA 
BRANCH  22  23
HETATM   23  C   UNL     1     -13.195  12.653  72.265  1.00  0.00    -0.360 C  
HETATM   24  C   UNL     1     -14.262  13.729  72.268  1.00  0.00    -0.563 C  
ENDBRANCH  22  23
ENDBRANCH  18  22
BRANCH  21  25
HETATM   25  S   UNL     1      -9.898   6.987  70.983  1.00  0.00    -0.179 S  
HETATM   26  O   UNL     1      -9.839   6.500  72.344  1.00  0.00    -0.160 OA 
HETATM   27  O   UNL     1      -8.708   7.458  70.310  1.00  0.00    -0.143 OA 
BRANCH  25  28
HETATM   28  N   UNL     1     -10.644   5.785  70.023  1.00  0.00    -0.283 N  
HETATM   29  C   UNL     1     -11.072   6.185  68.644  1.00  0.00    -0.294 C  
HETATM   30  C   UNL     1      -9.889   6.218  67.643  1.00  0.00    -0.121 C  
HETATM   31  N   UNL     1      -9.039   5.005  67.621  1.00  0.00    -0.111 NA 
HETATM   32  C   UNL     1      -8.662   4.649  69.008  1.00  0.00    -0.085 C  
HETATM   33  C   UNL     1      -9.864   4.507  69.960  1.00  0.00    -0.226 C  
BRANCH  31  34
HETATM   34  C   UNL     1      -9.694   3.918  66.882  1.00  0.00    -0.157 C  
HETATM   35  C   UNL     1     -10.018   4.267  65.433  1.00  0.00    -0.233 C  
ENDBRANCH  31  34
ENDBRANCH  25  28
ENDBRANCH  21  25
ENDBRANCH  11  16
ENDBRANCH   3   4
ENDBRANCH   2   3
TORSDOF 8
ENDMDL
MODEL       28
REMARK 921   NORMALIZED FREE ENERGY PREDICTED BY IDOCK:   -6.29 KCAL/MOL
REMARK 922        TOTAL FREE ENERGY PREDICTED BY IDOCK:  -10.24 KCAL/MOL
REMARK 923 INTER-LIGAND FREE ENERGY PREDICTED BY IDOCK:   -9.23 KCAL/MOL
REMARK 924 INTRA-LIGAND FREE ENERGY PREDICTED BY IDOCK:   -1.01 KCAL/MOL
REMARK 927      BINDING AFFINITY PREDICTED BY RF-SCORE:    0.00 PKD
ROOT
HETATM    1  C   UNL     1     -11.074   7.643  72.881  1.00  0.00    -0.448 C  
HETATM    2  C   UNL     1     -10.645   8.767  71.946  1.00  0.00    -0.425 C  
ENDROOT
BRANCH   2   3
HETATM    3  C   UNL     1     -11.394   8.780  70.611  1.00  0.00    -0.289 C  
BRANCH   3   4
HETATM    4  C   UNL     1     -10.644   8.103  69.512  1.00  0.00    -0.213 A  
HETATM    5  N   UNL     1     -10.203   6.860  69.550  1.00  0.00    -0.180 NA 
HETATM    6  C   UNL     1      -9.592   6.635  68.341  1.00  0.00    -0.123 A  
HETATM    7  C   UNL     1      -9.660   7.772  67.563  1.00  0.00    -0.148 A  
HETATM    8  C   UNL     1      -8.987   5.323  68.023  1.00  0.00    -0.113 C  
HETATM    9  N   UNL     1     -10.331   8.685  68.304  1.00  0.00    -0.212 NA 
HETATM   10  N   UNL     1     -10.648   9.928  67.828  1.00  0.00    -0.243 NA 
HETATM   11  C   UNL     1     -10.060  10.225  66.605  1.00  0.00    -0.223 C  
HETATM   12  N   UNL     1      -9.391   9.388  65.874  1.00  0.00    -0.211 N  
HETATM   13  O   UNL     1      -8.641   7.263  65.528  1.00  0.00    -0.140 OA 
HETATM   14  H   UNL     1      -8.998   9.712  64.989  1.00  0.00     0.000 HD 
HETATM   15  C   UNL     1      -9.193   8.082  66.249  1.00  0.00    -0.184 C  
BRANCH  11  16
HETATM   16  C   UNL     1     -10.201  11.637  66.073  1.00  0.00    -0.270 A  
HETATM   17  C   UNL     1     -10.467  13.258  64.275  1.00  0.00    -0.372 A  
HETATM   18  C   UNL     1     -10.348  11.921  64.693  1.00  0.00    -0.284 A  
HETATM   19  C   UNL     1     -10.142  12.699  66.991  1.00  0.00    -0.228 A  
HETATM   20  C   UNL     1     -10.420  14.304  65.192  1.00  0.00    -0.432 A  
HETATM   21  C   UNL     1     -10.255  14.020  66.544  1.00  0.00    -0.279 A  
BRANCH  18  22
HETATM   22  O   UNL     1     -10.392  10.870  63.812  1.00  0.00    -0.354 OA 
BRANCH  22  23
HETATM   23  C   UNL     1      -9.456  10.874  62.733  1.00  0.00    -0.333 C  
HETATM   24  C   UNL     1      -9.015   9.451  62.449  1.00  0.00    -0.258 C  
ENDBRANCH  22  23
ENDBRANCH  18  22
BRANCH  21  25
HETATM   25  S   UNL     1      -9.965  15.360  67.669  1.00  0.00    -0.226 S  
HETATM   26  O   UNL     1      -8.895  14.949  68.550  1.00  0.00    -0.161 OA 
HETATM   27  O   UNL     1     -11.253  15.754  68.196  1.00  0.00    -0.329 OA 
BRANCH  25  28
HETATM   28  N   UNL     1      -9.371  16.604  66.658  1.00  0.00    -0.237 N  
HETATM   29  C   UNL     1     -10.280  17.766  66.401  1.00  0.00    -0.365 C  
HETATM   30  C   UNL     1     -10.306  18.770  67.583  1.00  0.00    -0.420 C  
HETATM   31  N   UNL     1      -8.979  19.211  68.072  1.00  0.00    -0.302 NA 
HETATM   32  C   UNL     1      -8.120  18.026  68.290  1.00  0.00    -0.291 C  
HETATM   33  C   UNL     1      -8.016  17.101  67.063  1.00  0.00    -0.201 C  
BRANCH  31  34
HETATM   34  C   UNL     1      -8.395  20.215  67.172  1.00  0.00    -0.337 C  
HETATM   35  C   UNL     1      -6.983  20.640  67.558  1.00  0.00    -0.395 C  
ENDBRANCH  31  34
ENDBRANCH  25  28
ENDBRANCH  21  25
ENDBRANCH  11  16
ENDBRANCH   3   4
ENDBRANCH   2   3
TORSDOF 8
ENDMDL
MODEL       29
REMARK 921   NORMALIZED FREE ENERGY PREDICTED BY IDOCK:   -6.29 KCAL/MOL
REMARK 922        TOTAL FREE ENERGY PREDICTED BY IDOCK:  -10.24 KCAL/MOL
REMARK 923 INTER-LIGAND FREE ENERGY PREDICTED BY IDOCK:   -9.50 KCAL/MOL
REMARK 924 INTRA-LIGAND FREE ENERGY PREDICTED BY IDOCK:   -0.74 KCAL/MOL
REMARK 927      BINDING AFFINITY PREDICTED BY RF-SCORE:    0.00 PKD
ROOT
HETATM    1  C   UNL     1      -9.034   6.403  69.073  1.00  0.00    -0.128 C  
HETATM    2  C   UNL     1      -9.209   6.960  67.665  1.00  0.00    -0.119 C  
ENDROOT
BRANCH   2   3
HETATM    3  C   UNL     1      -8.262   8.117  67.337  1.00  0.00    -0.122 C  
BRANCH   3   4
HETATM    4  C   UNL     1      -8.470   8.675  65.968  1.00  0.00    -0.141 A  
HETATM    5  N   UNL     1      -8.101   8.087  64.846  1.00  0.00    -0.144 NA 
HETATM    6  C   UNL     1      -8.494   8.924  63.830  1.00  0.00    -0.136 A  
HETATM    7  C   UNL     1      -9.103  10.044  64.355  1.00  0.00    -0.247 A  
HETATM    8  C   UNL     1      -8.252   8.571  62.414  1.00  0.00    -0.184 C  
HETATM    9  N   UNL     1      -9.092   9.873  65.698  1.00  0.00    -0.165 NA 
HETATM   10  N   UNL     1      -9.676  10.765  66.557  1.00  0.00    -0.190 NA 
HETATM   11  C   UNL     1     -10.105  11.935  65.942  1.00  0.00    -0.234 C  
HETATM   12  N   UNL     1     -10.112  12.148  64.662  1.00  0.00    -0.347 N  
HETATM   13  O   UNL     1      -9.769  11.361  62.550  1.00  0.00    -0.197 OA 
HETATM   14  H   UNL     1     -10.448  13.046  64.315  1.00  0.00     0.000 HD 
HETATM   15  C   UNL     1      -9.684  11.205  63.760  1.00  0.00    -0.301 C  
BRANCH  11  16
HETATM   16  C   UNL     1     -10.603  13.061  66.825  1.00  0.00    -0.269 A  
HETATM   17  C   UNL     1     -11.957  13.951  68.643  1.00  0.00    -0.401 A  
HETATM   18  C   UNL     1     -11.537  12.854  67.869  1.00  0.00    -0.345 A  
HETATM   19  C   UNL     1     -10.142  14.361  66.562  1.00  0.00    -0.281 A  
HETATM   20  C   UNL     1     -11.486  15.235  68.383  1.00  0.00    -0.358 A  
HETATM   21  C   UNL     1     -10.585  15.435  67.344  1.00  0.00    -0.289 A  
BRANCH  18  22
HETATM   22  O   UNL     1     -11.984  11.578  68.102  1.00  0.00    -0.571 OA 
BRANCH  22  23
HETATM   23  C   UNL     1     -12.147  11.174  69.463  1.00  0.00    -0.326 C  
HETATM   24  C   UNL     1     -10.983  10.290  69.866  1.00  0.00    -0.358 C  
ENDBRANCH  22  23
ENDBRANCH  18  22
BRANCH  21  25
HETATM   25  S   UNL     1     -10.173  17.095  66.877  1.00  0.00    -0.311 S  
HETATM   26  O   UNL     1     -10.849  17.976  67.803  1.00  0.00    -0.383 OA 
HETATM   27  O   UNL     1     -10.397  17.200  65.452  1.00  0.00    -0.619 OA 
BRANCH  25  28
HETATM   28  N   UNL     1      -8.494  17.188  67.187  1.00  0.00    -0.195 N  
HETATM   29  C   UNL     1      -7.650  17.877  66.160  1.00  0.00    -0.260 C  
HETATM   30  C   UNL     1      -7.732  19.422  66.265  1.00  0.00    -0.297 C  
HETATM   31  N   UNL     1      -7.510  19.980  67.619  1.00  0.00    -0.282 NA 
HETATM   32  C   UNL     1      -8.356  19.252  68.592  1.00  0.00    -0.372 C  
HETATM   33  C   UNL     1      -8.172  17.723  68.550  1.00  0.00    -0.296 C  
BRANCH  31  34
HETATM   34  C   UNL     1      -6.081  19.988  67.957  1.00  0.00    -0.234 C  
HETATM   35  C   UNL     1      -5.747  20.800  69.203  1.00  0.00    -0.398 C  
ENDBRANCH  31  34
ENDBRANCH  25  28
ENDBRANCH  21  25
ENDBRANCH  11  16
ENDBRANCH   3   4
ENDBRANCH   2   3
TORSDOF 8
ENDMDL
MODEL       30
REMARK 921   NORMALIZED FREE ENERGY PREDICTED BY IDOCK:   -6.19 KCAL/MOL
REMARK 922        TOTAL FREE ENERGY PREDICTED BY IDOCK:  -10.09 KCAL/MOL
REMARK 923 INTER-LIGAND FREE ENERGY PREDICTED BY IDOCK:   -9.01 KCAL/MOL
REMARK 924 INTRA-LIGAND FREE ENERGY PREDICTED BY IDOCK:   -1.09 KCAL/MOL
REMARK 927      BINDING AFFINITY PREDICTED BY RF-SCORE:    0.00 PKD
ROOT
HETATM    1  C   UNL     1      -5.144  15.508  71.107  1.00  0.00    -0.149 C  
HETATM    2  C   UNL     1      -5.371  16.829  70.381  1.00  0.00    -0.215 C  
ENDROOT
BRANCH   2   3
HETATM    3  C   UNL     1      -5.793  16.665  68.919  1.00  0.00    -0.143 C  
BRANCH   3   4
HETATM    4  C   UNL     1      -6.914  17.569  68.526  1.00  0.00    -0.214 A  
HETATM    5  N   UNL     1      -6.772  18.812  68.105  1.00  0.00    -0.221 NA 
HETATM    6  C   UNL     1      -8.038  19.270  67.837  1.00  0.00    -0.290 A  
HETATM    7  C   UNL     1      -8.962  18.284  68.114  1.00  0.00    -0.302 A  
HETATM    8  C   UNL     1      -8.263  20.640  67.324  1.00  0.00    -0.309 C  
HETATM    9  N   UNL     1      -8.244  17.217  68.536  1.00  0.00    -0.253 NA 
HETATM   10  N   UNL     1      -8.825  16.017  68.844  1.00  0.00    -0.219 NA 
HETATM   11  C   UNL     1     -10.214  16.055  68.863  1.00  0.00    -0.231 C  
HETATM   12  N   UNL     1     -10.939  17.064  68.488  1.00  0.00    -0.302 N  
HETATM   13  O   UNL     1     -11.060  19.151  67.579  1.00  0.00    -0.405 OA 
HETATM   14  H   UNL     1     -11.955  16.987  68.545  1.00  0.00     0.000 HD 
HETATM   15  C   UNL     1     -10.386  18.230  68.017  1.00  0.00    -0.391 C  
BRANCH  11  16
HETATM   16  C   UNL     1     -10.952  14.831  69.363  1.00  0.00    -0.282 A  
HETATM   17  C   UNL     1     -12.424  13.675  70.921  1.00  0.00    -0.448 A  
HETATM   18  C   UNL     1     -11.776  14.854  70.515  1.00  0.00    -0.292 A  
HETATM   19  C   UNL     1     -10.773  13.621  68.671  1.00  0.00    -0.272 A  
HETATM   20  C   UNL     1     -12.251  12.483  70.222  1.00  0.00    -0.345 A  
HETATM   21  C   UNL     1     -11.425  12.461  69.104  1.00  0.00    -0.302 A  
BRANCH  18  22
HETATM   22  O   UNL     1     -11.928  16.043  71.183  1.00  0.00    -0.411 OA 
BRANCH  22  23
HETATM   23  C   UNL     1     -11.913  16.003  72.612  1.00  0.00    -0.541 C  
HETATM   24  C   UNL     1     -13.339  15.944  73.125  1.00  0.00    -0.681 C  
ENDBRANCH  22  23
ENDBRANCH  18  22
BRANCH  21  25
HETATM   25  S   UNL     1     -11.032  10.899  68.363  1.00  0.00    -0.261 S  
HETATM   26  O   UNL     1     -11.753  10.829  67.111  1.00  0.00    -0.312 OA 
HETATM   27  O   UNL     1     -11.214   9.890  69.383  1.00  0.00    -0.221 OA 
BRANCH  25  28
HETATM   28  N   UNL     1      -9.366  11.039  68.007  1.00  0.00    -0.158 N  
HETATM   29  C   UNL     1      -8.421  10.227  68.838  1.00  0.00    -0.138 C  
HETATM   30  C   UNL     1      -8.368   8.742  68.394  1.00  0.00    -0.126 C  
HETATM   31  N   UNL     1      -8.152   8.519  66.945  1.00  0.00    -0.098 NA 
HETATM   32  C   UNL     1      -9.099   9.358  66.176  1.00  0.00    -0.171 C  
HETATM   33  C   UNL     1      -9.051  10.850  66.553  1.00  0.00    -0.169 C  
BRANCH  31  34
HETATM   34  C   UNL     1      -6.743   8.724  66.587  1.00  0.00    -0.072 C  
HETATM   35  C   UNL     1      -6.446   8.505  65.107  1.00  0.00    -0.063 C  
ENDBRANCH  31  34
ENDBRANCH  25  28
ENDBRANCH  21  25
ENDBRANCH  11  16
ENDBRANCH   3   4
ENDBRANCH   2   3
TORSDOF 8
ENDMDL
MODEL       31
REMARK 921   NORMALIZED FREE ENERGY PREDICTED BY IDOCK:   -6.11 KCAL/MOL
REMARK 922        TOTAL FREE ENERGY PREDICTED BY IDOCK:   -9.97 KCAL/MOL
REMARK 923 INTER-LIGAND FREE ENERGY PREDICTED BY IDOCK:   -9.14 KCAL/MOL
REMARK 924 INTRA-LIGAND FREE ENERGY PREDICTED BY IDOCK:   -0.84 KCAL/MOL
REMARK 927      BINDING AFFINITY PREDICTED BY RF-SCORE:    0.00 PKD
ROOT
HETATM    1  C   UNL     1     -10.719   5.892  66.743  1.00  0.00    -0.371 C  
HETATM    2  C   UNL     1      -9.403   5.937  67.511  1.00  0.00    -0.110 C  
ENDROOT
BRANCH   2   3
HETATM    3  C   UNL     1      -9.098   7.300  68.135  1.00  0.00    -0.134 C  
BRANCH   3   4
HETATM    4  C   UNL     1     -10.120   7.729  69.135  1.00  0.00    -0.196 A  
HETATM    5  N   UNL     1     -10.678   6.940  70.034  1.00  0.00    -0.232 NA 
HETATM    6  C   UNL     1     -11.537   7.732  70.756  1.00  0.00    -0.255 A  
HETATM    7  C   UNL     1     -11.501   9.023  70.273  1.00  0.00    -0.124 A  
HETATM    8  C   UNL     1     -12.333   7.176  71.873  1.00  0.00    -0.352 C  
HETATM    9  N   UNL     1     -10.601   9.013  69.262  1.00  0.00    -0.227 NA 
HETATM   10  N   UNL     1     -10.250  10.145  68.578  1.00  0.00    -0.166 NA 
HETATM   11  C   UNL     1     -11.033  11.251  68.888  1.00  0.00    -0.223 C  
HETATM   12  N   UNL     1     -11.921  11.297  69.833  1.00  0.00    -0.336 N  
HETATM   13  O   UNL     1     -12.951  10.282  71.596  1.00  0.00    -0.394 OA 
HETATM   14  H   UNL     1     -12.443  12.162  69.976  1.00  0.00     0.000 HD 
HETATM   15  C   UNL     1     -12.182  10.222  70.648  1.00  0.00    -0.329 C  
BRANCH  11  16
HETATM   16  C   UNL     1     -10.847  12.508  68.063  1.00  0.00    -0.252 A  
HETATM   17  C   UNL     1     -10.765  13.722  65.954  1.00  0.00    -0.285 A  
HETATM   18  C   UNL     1     -10.957  12.516  66.651  1.00  0.00    -0.266 A  
HETATM   19  C   UNL     1     -10.513  13.697  68.734  1.00  0.00    -0.214 A  
HETATM   20  C   UNL     1     -10.446  14.898  66.627  1.00  0.00    -0.292 A  
HETATM   21  C   UNL     1     -10.319  14.879  68.011  1.00  0.00    -0.244 A  
BRANCH  18  22
HETATM   22  O   UNL     1     -11.273  11.342  66.015  1.00  0.00    -0.234 OA 
BRANCH  22  23
HETATM   23  C   UNL     1     -10.554  11.024  64.822  1.00  0.00    -0.280 C  
HETATM   24  C   UNL     1      -9.598   9.882  65.104  1.00  0.00    -0.367 C  
ENDBRANCH  22  23
ENDBRANCH  18  22
BRANCH  21  25
HETATM   25  S   UNL     1      -9.690  16.320  68.831  1.00  0.00    -0.258 S  
HETATM   26  O   UNL     1      -8.430  15.948  69.436  1.00  0.00    -0.255 OA 
HETATM   27  O   UNL     1     -10.769  16.856  69.631  1.00  0.00    -0.318 OA 
BRANCH  25  28
HETATM   28  N   UNL     1      -9.362  17.396  67.543  1.00  0.00    -0.232 N  
HETATM   29  C   UNL     1      -9.982  18.757  67.618  1.00  0.00    -0.345 C  
HETATM   30  C   UNL     1      -9.216  19.705  68.576  1.00  0.00    -0.316 C  
HETATM   31  N   UNL     1      -7.752  19.783  68.358  1.00  0.00    -0.322 NA 
HETATM   32  C   UNL     1      -7.198  18.413  68.275  1.00  0.00    -0.263 C  
HETATM   33  C   UNL     1      -7.901  17.522  67.233  1.00  0.00    -0.203 C  
BRANCH  31  34
HETATM   34  C   UNL     1      -7.438  20.626  67.197  1.00  0.00    -0.330 C  
HETATM   35  C   UNL     1      -6.099  21.348  67.305  1.00  0.00    -0.409 C  
ENDBRANCH  31  34
ENDBRANCH  25  28
ENDBRANCH  21  25
ENDBRANCH  11  16
ENDBRANCH   3   4
ENDBRANCH   2   3
TORSDOF 8
ENDMDL
MODEL       32
REMARK 921   NORMALIZED FREE ENERGY PREDICTED BY IDOCK:   -6.07 KCAL/MOL
REMARK 922        TOTAL FREE ENERGY PREDICTED BY IDOCK:   -9.92 KCAL/MOL
REMARK 923 INTER-LIGAND FREE ENERGY PREDICTED BY IDOCK:   -8.69 KCAL/MOL
REMARK 924 INTRA-LIGAND FREE ENERGY PREDICTED BY IDOCK:   -1.23 KCAL/MOL
REMARK 927      BINDING AFFINITY PREDICTED BY RF-SCORE:    0.00 PKD
ROOT
HETATM    1  C   UNL     1      -6.056   8.883  71.414  1.00  0.00    -0.061 C  
HETATM    2  C   UNL     1      -5.582   8.036  70.239  1.00  0.00    -0.022 C  
ENDROOT
BRANCH   2   3
HETATM    3  C   UNL     1      -5.935   8.624  68.871  1.00  0.00    -0.044 C  
BRANCH   3   4
HETATM    4  C   UNL     1      -7.052   7.903  68.192  1.00  0.00    -0.089 A  
HETATM    5  N   UNL     1      -6.911   6.832  67.433  1.00  0.00    -0.079 NA 
HETATM    6  C   UNL     1      -8.176   6.484  67.028  1.00  0.00    -0.113 A  
HETATM    7  C   UNL     1      -9.095   7.371  67.547  1.00  0.00    -0.125 A  
HETATM    8  C   UNL     1      -8.404   5.304  66.164  1.00  0.00    -0.115 C  
HETATM    9  N   UNL     1      -8.380   8.252  68.285  1.00  0.00    -0.131 NA 
HETATM   10  N   UNL     1      -8.969   9.251  69.012  1.00  0.00    -0.138 NA 
HETATM   11  C   UNL     1     -10.331   9.389  68.771  1.00  0.00    -0.209 C  
HETATM   12  N   UNL     1     -11.049   8.581  68.054  1.00  0.00    -0.379 N  
HETATM   13  O   UNL     1     -11.200   6.657  66.839  1.00  0.00    -0.391 OA 
HETATM   14  H   UNL     1     -12.044   8.777  67.940  1.00  0.00     0.000 HD 
HETATM   15  C   UNL     1     -10.517   7.472  67.443  1.00  0.00    -0.297 C  
BRANCH  11  16
HETATM   16  C   UNL     1     -11.045  10.575  69.387  1.00  0.00    -0.310 A  
HETATM   17  C   UNL     1     -12.507  11.603  71.041  1.00  0.00    -0.436 A  
HETATM   18  C   UNL     1     -11.873  10.457  70.530  1.00  0.00    -0.337 A  
HETATM   19  C   UNL     1     -10.903  11.828  68.767  1.00  0.00    -0.268 A  
HETATM   20  C   UNL     1     -12.352  12.843  70.427  1.00  0.00    -0.333 A  
HETATM   21  C   UNL     1     -11.554  12.949  69.293  1.00  0.00    -0.310 A  
BRANCH  18  22
HETATM   22  O   UNL     1     -12.006   9.223  71.114  1.00  0.00    -0.293 OA 
BRANCH  22  23
HETATM   23  C   UNL     1     -12.973   9.087  72.157  1.00  0.00    -0.424 C  
HETATM   24  C   UNL     1     -14.203   8.388  71.611  1.00  0.00    -0.516 C  
ENDBRANCH  22  23
ENDBRANCH  18  22
BRANCH  21  25
HETATM   25  S   UNL     1     -11.550  14.476  68.391  1.00  0.00    -0.338 S  
HETATM   26  O   UNL     1     -12.095  15.488  69.268  1.00  0.00    -0.332 OA 
HETATM   27  O   UNL     1     -12.149  14.207  67.103  1.00  0.00    -0.426 OA 
BRANCH  25  28
HETATM   28  N   UNL     1      -9.886  14.802  68.175  1.00  0.00    -0.217 N  
HETATM   29  C   UNL     1      -9.290  14.453  66.845  1.00  0.00    -0.256 C  
HETATM   30  C   UNL     1      -9.615  15.508  65.756  1.00  0.00    -0.332 C  
HETATM   31  N   UNL     1      -9.336  16.915  66.129  1.00  0.00    -0.424 NA 
HETATM   32  C   UNL     1      -9.931  17.196  67.454  1.00  0.00    -0.280 C  
HETATM   33  C   UNL     1      -9.502  16.202  68.550  1.00  0.00    -0.216 C  
BRANCH  31  34
HETATM   34  C   UNL     1      -7.898  17.204  66.045  1.00  0.00    -0.158 C  
HETATM   35  C   UNL     1      -7.553  18.674  66.260  1.00  0.00    -0.291 C  
ENDBRANCH  31  34
ENDBRANCH  25  28
ENDBRANCH  21  25
ENDBRANCH  11  16
ENDBRANCH   3   4
ENDBRANCH   2   3
TORSDOF 8
ENDMDL
MODEL       33
REMARK 921   NORMALIZED FREE ENERGY PREDICTED BY IDOCK:   -6.03 KCAL/MOL
REMARK 922        TOTAL FREE ENERGY PREDICTED BY IDOCK:   -9.86 KCAL/MOL
REMARK 923 INTER-LIGAND FREE ENERGY PREDICTED BY IDOCK:   -8.94 KCAL/MOL
REMARK 924 INTRA-LIGAND FREE ENERGY PREDICTED BY IDOCK:   -0.92 KCAL/MOL
REMARK 927      BINDING AFFINITY PREDICTED BY RF-SCORE:    0.00 PKD
ROOT
HETATM    1  C   UNL     1     -10.189  19.830  65.851  1.00  0.00    -0.556 C  
HETATM    2  C   UNL     1     -10.910  19.195  67.034  1.00  0.00    -0.479 C  
ENDROOT
BRANCH   2   3
HETATM    3  C   UNL     1     -10.282  19.526  68.389  1.00  0.00    -0.536 C  
BRANCH   3   4
HETATM    4  C   UNL     1      -8.973  18.844  68.612  1.00  0.00    -0.350 A  
HETATM    5  N   UNL     1      -7.833  19.459  68.869  1.00  0.00    -0.357 NA 
HETATM    6  C   UNL     1      -6.893  18.470  69.022  1.00  0.00    -0.274 A  
HETATM    7  C   UNL     1      -7.479  17.235  68.843  1.00  0.00    -0.240 A  
HETATM    8  C   UNL     1      -5.484  18.797  69.337  1.00  0.00    -0.214 C  
HETATM    9  N   UNL     1      -8.787  17.480  68.596  1.00  0.00    -0.275 NA 
HETATM   10  N   UNL     1      -9.704  16.479  68.429  1.00  0.00    -0.229 NA 
HETATM   11  C   UNL     1      -9.141  15.211  68.349  1.00  0.00    -0.185 C  
HETATM   12  N   UNL     1      -7.890  14.935  68.557  1.00  0.00    -0.120 N  
HETATM   13  O   UNL     1      -5.810  15.639  69.172  1.00  0.00    -0.104 OA 
HETATM   14  H   UNL     1      -7.579  13.967  68.470  1.00  0.00     0.000 HD 
HETATM   15  C   UNL     1      -6.971  15.900  68.888  1.00  0.00    -0.143 C  
BRANCH  11  16
HETATM   16  C   UNL     1     -10.046  14.052  67.989  1.00  0.00    -0.239 A  
HETATM   17  C   UNL     1     -11.314  12.704  66.406  1.00  0.00    -0.381 A  
HETATM   18  C   UNL     1     -10.468  13.797  66.661  1.00  0.00    -0.272 A  
HETATM   19  C   UNL     1     -10.511  13.227  69.027  1.00  0.00    -0.044 A  
HETATM   20  C   UNL     1     -11.761  11.885  67.439  1.00  0.00    -0.326 A  
HETATM   21  C   UNL     1     -11.360  12.152  68.744  1.00  0.00    -0.288 A  
BRANCH  18  22
HETATM   22  O   UNL     1     -10.011  14.621  65.663  1.00  0.00    -0.324 OA 
BRANCH  22  23
HETATM   23  C   UNL     1     -10.903  14.907  64.584  1.00  0.00    -0.275 C  
HETATM   24  C   UNL     1     -11.402  16.333  64.712  1.00  0.00    -0.214 C  
ENDBRANCH  22  23
ENDBRANCH  18  22
BRANCH  21  25
HETATM   25  S   UNL     1     -12.115  11.249  70.070  1.00  0.00    -0.347 S  
HETATM   26  O   UNL     1     -13.100  10.372  69.479  1.00  0.00     0.118 OA 
HETATM   27  O   UNL     1     -12.489  12.216  71.079  1.00  0.00    -0.370 OA 
BRANCH  25  28
HETATM   28  N   UNL     1     -10.837  10.284  70.669  1.00  0.00    -0.240 N  
HETATM   29  C   UNL     1     -11.189   9.244  71.687  1.00  0.00    -0.379 C  
HETATM   30  C   UNL     1     -11.816   7.978  71.048  1.00  0.00    -0.263 C  
HETATM   31  N   UNL     1     -11.061   7.398  69.912  1.00  0.00    -0.229 NA 
HETATM   32  C   UNL     1     -10.727   8.472  68.950  1.00  0.00    -0.073 C  
HETATM   33  C   UNL     1     -10.000   9.671  69.587  1.00  0.00    -0.221 C  
BRANCH  31  34
HETATM   34  C   UNL     1      -9.898   6.638  70.388  1.00  0.00    -0.175 C  
HETATM   35  C   UNL     1     -10.117   5.129  70.412  1.00  0.00    -0.333 C  
ENDBRANCH  31  34
ENDBRANCH  25  28
ENDBRANCH  21  25
ENDBRANCH  11  16
ENDBRANCH   3   4
ENDBRANCH   2   3
TORSDOF 8
ENDMDL
MODEL       34
REMARK 921   NORMALIZED FREE ENERGY PREDICTED BY IDOCK:   -5.98 KCAL/MOL
REMARK 922        TOTAL FREE ENERGY PREDICTED BY IDOCK:   -9.79 KCAL/MOL
REMARK 923 INTER-LIGAND FREE ENERGY PREDICTED BY IDOCK:   -9.27 KCAL/MOL
REMARK 924 INTRA-LIGAND FREE ENERGY PREDICTED BY IDOCK:   -0.52 KCAL/MOL
REMARK 927      BINDING AFFINITY PREDICTED BY RF-SCORE:    0.00 PKD
ROOT
HETATM    1  C   UNL     1     -10.304  19.655  68.258  1.00  0.00    -0.539 C  
HETATM    2  C   UNL     1     -10.646  19.738  66.775  1.00  0.00    -0.586 C  
ENDROOT
BRANCH   2   3
HETATM    3  C   UNL     1     -10.509  18.406  66.035  1.00  0.00    -0.400 C  
BRANCH   3   4
HETATM    4  C   UNL     1      -9.174  17.764  66.224  1.00  0.00    -0.182 A  
HETATM    5  N   UNL     1      -8.028  18.257  65.794  1.00  0.00    -0.501 NA 
HETATM    6  C   UNL     1      -7.058  17.371  66.191  1.00  0.00    -0.284 A  
HETATM    7  C   UNL     1      -7.636  16.316  66.866  1.00  0.00    -0.244 A  
HETATM    8  C   UNL     1      -5.630  17.615  65.889  1.00  0.00    -0.184 C  
HETATM    9  N   UNL     1      -8.964  16.577  66.890  1.00  0.00    -0.207 NA 
HETATM   10  N   UNL     1      -9.860  15.772  67.539  1.00  0.00    -0.228 NA 
HETATM   11  C   UNL     1      -9.311  14.582  68.000  1.00  0.00    -0.201 C  
HETATM   12  N   UNL     1      -8.048  14.282  67.976  1.00  0.00    -0.134 N  
HETATM   13  O   UNL     1      -5.901  14.906  67.532  1.00  0.00    -0.325 OA 
HETATM   14  H   UNL     1      -7.751  13.377  68.340  1.00  0.00     0.000 HD 
HETATM   15  C   UNL     1      -7.100  15.142  67.478  1.00  0.00    -0.198 C  
BRANCH  11  16
HETATM   16  C   UNL     1     -10.250  13.541  68.575  1.00  0.00    -0.229 A  
HETATM   17  C   UNL     1     -12.275  12.861  69.742  1.00  0.00    -0.227 A  
HETATM   18  C   UNL     1     -11.458  13.883  69.228  1.00  0.00    -0.297 A  
HETATM   19  C   UNL     1      -9.875  12.190  68.484  1.00  0.00    -0.167 A  
HETATM   20  C   UNL     1     -11.903  11.523  69.637  1.00  0.00    -0.421 A  
HETATM   21  C   UNL     1     -10.705  11.195  69.013  1.00  0.00    -0.225 A  
BRANCH  18  22
HETATM   22  O   UNL     1     -11.800  15.209  69.316  1.00  0.00    -0.304 OA 
BRANCH  22  23
HETATM   23  C   UNL     1     -12.628  15.606  70.411  1.00  0.00    -0.336 C  
HETATM   24  C   UNL     1     -11.752  15.992  71.586  1.00  0.00    -0.583 C  
ENDBRANCH  22  23
ENDBRANCH  18  22
BRANCH  21  25
HETATM   25  S   UNL     1     -10.133   9.518  69.089  1.00  0.00    -0.206 S  
HETATM   26  O   UNL     1      -8.706   9.546  68.854  1.00  0.00    -0.127 OA 
HETATM   27  O   UNL     1     -11.010   8.734  68.249  1.00  0.00    -0.027 OA 
BRANCH  25  28
HETATM   28  N   UNL     1     -10.392   9.087  70.723  1.00  0.00    -0.223 N  
HETATM   29  C   UNL     1     -11.550   8.182  71.013  1.00  0.00    -0.279 C  
HETATM   30  C   UNL     1     -11.237   6.698  70.694  1.00  0.00    -0.317 C  
HETATM   31  N   UNL     1      -9.977   6.175  71.272  1.00  0.00    -0.180 NA 
HETATM   32  C   UNL     1      -8.874   7.115  70.970  1.00  0.00    -0.145 C  
HETATM   33  C   UNL     1      -9.161   8.566  71.401  1.00  0.00    -0.206 C  
BRANCH  31  34
HETATM   34  C   UNL     1     -10.138   5.881  72.703  1.00  0.00    -0.179 C  
HETATM   35  C   UNL     1     -11.396   5.085  73.030  1.00  0.00    -0.374 C  
ENDBRANCH  31  34
ENDBRANCH  25  28
ENDBRANCH  21  25
ENDBRANCH  11  16
ENDBRANCH   3   4
ENDBRANCH   2   3
TORSDOF 8
ENDMDL
MODEL       35
REMARK 921   NORMALIZED FREE ENERGY PREDICTED BY IDOCK:   -5.98 KCAL/MOL
REMARK 922        TOTAL FREE ENERGY PREDICTED BY IDOCK:   -9.78 KCAL/MOL
REMARK 923 INTER-LIGAND FREE ENERGY PREDICTED BY IDOCK:   -9.35 KCAL/MOL
REMARK 924 INTRA-LIGAND FREE ENERGY PREDICTED BY IDOCK:   -0.43 KCAL/MOL
REMARK 927      BINDING AFFINITY PREDICTED BY RF-SCORE:    0.00 PKD
ROOT
HETATM    1  C   UNL     1      -9.516   4.102  70.019  1.00  0.00    -0.260 C  
HETATM    2  C   UNL     1     -10.410   5.112  70.727  1.00  0.00    -0.294 C  
ENDROOT
BRANCH   2   3
HETATM    3  C   UNL     1     -11.103   6.094  69.779  1.00  0.00    -0.486 C  
BRANCH   3   4
HETATM    4  C   UNL     1     -11.851   7.170  70.494  1.00  0.00    -0.243 A  
HETATM    5  N   UNL     1     -12.810   6.968  71.378  1.00  0.00    -0.378 NA 
HETATM    6  C   UNL     1     -13.210   8.212  71.799  1.00  0.00    -0.341 A  
HETATM    7  C   UNL     1     -12.482   9.184  71.145  1.00  0.00    -0.254 A  
HETATM    8  C   UNL     1     -14.274   8.370  72.815  1.00  0.00    -0.014 C  
HETATM    9  N   UNL     1     -11.625   8.519  70.335  1.00  0.00    -0.144 NA 
HETATM   10  N   UNL     1     -10.689   9.160  69.570  1.00  0.00    -0.229 NA 
HETATM   11  C   UNL     1     -10.828  10.543  69.559  1.00  0.00    -0.256 C  
HETATM   12  N   UNL     1     -11.651  11.218  70.302  1.00  0.00    -0.445 N  
HETATM   13  O   UNL     1     -13.207  11.242  71.968  1.00  0.00    -0.506 OA 
HETATM   14  H   UNL     1     -11.673  12.234  70.213  1.00  0.00     0.000 HD 
HETATM   15  C   UNL     1     -12.492  10.611  71.202  1.00  0.00    -0.418 C  
BRANCH  11  16
HETATM   16  C   UNL     1      -9.958  11.337  68.607  1.00  0.00    -0.210 A  
HETATM   17  C   UNL     1      -7.846  11.824  67.497  1.00  0.00    -0.148 A  
HETATM   18  C   UNL     1      -8.591  11.037  68.393  1.00  0.00    -0.149 A  
HETATM   19  C   UNL     1     -10.532  12.437  67.947  1.00  0.00    -0.227 A  
HETATM   20  C   UNL     1      -8.426  12.905  66.838  1.00  0.00    -0.093 A  
HETATM   21  C   UNL     1      -9.763  13.207  67.067  1.00  0.00    -0.241 A  
BRANCH  18  22
HETATM   22  O   UNL     1      -8.046   9.967  69.056  1.00  0.00    -0.097 OA 
BRANCH  22  23
HETATM   23  C   UNL     1      -7.077  10.242  70.069  1.00  0.00    -0.158 C  
HETATM   24  C   UNL     1      -7.097   9.126  71.096  1.00  0.00    -0.088 C  
ENDBRANCH  22  23
ENDBRANCH  18  22
BRANCH  21  25
HETATM   25  S   UNL     1     -10.425  14.713  66.405  1.00  0.00    -0.304 S  
HETATM   26  O   UNL     1     -11.861  14.654  66.570  1.00  0.00    -0.373 OA 
HETATM   27  O   UNL     1      -9.834  14.895  65.098  1.00  0.00    -0.300 OA 
BRANCH  25  28
HETATM   28  N   UNL     1      -9.819  15.911  67.464  1.00  0.00    -0.229 N  
HETATM   29  C   UNL     1      -8.368  16.261  67.335  1.00  0.00    -0.169 C  
HETATM   30  C   UNL     1      -8.091  17.210  66.140  1.00  0.00    -0.248 C  
HETATM   31  N   UNL     1      -8.954  18.413  66.070  1.00  0.00    -0.494 NA 
HETATM   32  C   UNL     1     -10.369  18.008  66.220  1.00  0.00    -0.382 C  
HETATM   33  C   UNL     1     -10.643  17.163  67.477  1.00  0.00    -0.323 C  
BRANCH  31  34
HETATM   34  C   UNL     1      -8.517  19.429  67.037  1.00  0.00    -0.287 C  
HETATM   35  C   UNL     1      -9.504  20.578  67.211  1.00  0.00    -0.559 C  
ENDBRANCH  31  34
ENDBRANCH  25  28
ENDBRANCH  21  25
ENDBRANCH  11  16
ENDBRANCH   3   4
ENDBRANCH   2   3
TORSDOF 8
ENDMDL
MODEL       36
REMARK 921   NORMALIZED FREE ENERGY PREDICTED BY IDOCK:   -5.94 KCAL/MOL
REMARK 922        TOTAL FREE ENERGY PREDICTED BY IDOCK:   -9.73 KCAL/MOL
REMARK 923 INTER-LIGAND FREE ENERGY PREDICTED BY IDOCK:   -8.70 KCAL/MOL
REMARK 924 INTRA-LIGAND FREE ENERGY PREDICTED BY IDOCK:   -1.03 KCAL/MOL
REMARK 927      BINDING AFFINITY PREDICTED BY RF-SCORE:    0.00 PKD
ROOT
HETATM    1  C   UNL     1      -6.017  10.813  70.345  1.00  0.00    -0.128 C  
HETATM    2  C   UNL     1      -5.922   9.579  71.234  1.00  0.00    -0.069 C  
ENDROOT
BRANCH   2   3
HETATM    3  C   UNL     1      -6.634   8.350  70.663  1.00  0.00    -0.037 C  
BRANCH   3   4
HETATM    4  C   UNL     1      -8.067   8.258  71.073  1.00  0.00    -0.110 A  
HETATM    5  N   UNL     1      -8.502   7.687  72.181  1.00  0.00    -0.110 NA 
HETATM    6  C   UNL     1      -9.867   7.839  72.176  1.00  0.00    -0.187 A  
HETATM    7  C   UNL     1     -10.260   8.506  71.035  1.00  0.00    -0.203 A  
HETATM    8  C   UNL     1     -10.696   7.325  73.289  1.00  0.00    -0.428 C  
HETATM    9  N   UNL     1      -9.121   8.774  70.354  1.00  0.00    -0.164 NA 
HETATM   10  N   UNL     1      -9.113   9.491  69.189  1.00  0.00    -0.145 NA 
HETATM   11  C   UNL     1     -10.381   9.748  68.682  1.00  0.00    -0.201 C  
HETATM   12  N   UNL     1     -11.497   9.489  69.291  1.00  0.00    -0.438 N  
HETATM   13  O   UNL     1     -12.577   8.749  71.157  1.00  0.00    -0.272 OA 
HETATM   14  H   UNL     1     -12.376   9.718  68.826  1.00  0.00     0.000 HD 
HETATM   15  C   UNL     1     -11.535   8.916  70.539  1.00  0.00    -0.200 C  
BRANCH  11  16
HETATM   16  C   UNL     1     -10.482  10.379  67.308  1.00  0.00    -0.304 A  
HETATM   17  C   UNL     1     -10.208  10.357  64.889  1.00  0.00    -0.330 A  
HETATM   18  C   UNL     1     -10.090   9.703  66.127  1.00  0.00    -0.258 A  
HETATM   19  C   UNL     1     -10.948  11.702  67.220  1.00  0.00    -0.318 A  
HETATM   20  C   UNL     1     -10.682  11.664  64.809  1.00  0.00    -0.365 A  
HETATM   21  C   UNL     1     -11.046  12.330  65.974  1.00  0.00    -0.309 A  
BRANCH  18  22
HETATM   22  O   UNL     1      -9.627   8.416  66.237  1.00  0.00    -0.223 OA 
BRANCH  22  23
HETATM   23  C   UNL     1      -8.460   8.068  65.489  1.00  0.00    -0.144 C  
HETATM   24  C   UNL     1      -7.246   8.708  66.132  1.00  0.00    -0.085 C  
ENDBRANCH  22  23
ENDBRANCH  18  22
BRANCH  21  25
HETATM   25  S   UNL     1     -11.426  14.060  65.885  1.00  0.00    -0.339 S  
HETATM   26  O   UNL     1     -12.611  14.276  66.686  1.00  0.00    -0.318 OA 
HETATM   27  O   UNL     1     -11.397  14.427  64.486  1.00  0.00    -0.366 OA 
BRANCH  25  28
HETATM   28  N   UNL     1     -10.106  14.796  66.683  1.00  0.00    -0.257 N  
HETATM   29  C   UNL     1      -9.453  15.955  65.993  1.00  0.00    -0.354 C  
HETATM   30  C   UNL     1     -10.257  17.270  66.156  1.00  0.00    -0.331 C  
HETATM   31  N   UNL     1     -10.646  17.610  67.545  1.00  0.00    -0.364 NA 
HETATM   32  C   UNL     1     -11.268  16.426  68.181  1.00  0.00    -0.273 C  
HETATM   33  C   UNL     1     -10.400  15.156  68.108  1.00  0.00    -0.239 C  
BRANCH  31  34
HETATM   34  C   UNL     1      -9.506  18.159  68.291  1.00  0.00    -0.307 C  
HETATM   35  C   UNL     1      -9.787  19.513  68.935  1.00  0.00    -0.522 C  
ENDBRANCH  31  34
ENDBRANCH  25  28
ENDBRANCH  21  25
ENDBRANCH  11  16
ENDBRANCH   3   4
ENDBRANCH   2   3
TORSDOF 8
ENDMDL
MODEL       37
REMARK 921   NORMALIZED FREE ENERGY PREDICTED BY IDOCK:   -5.94 KCAL/MOL
REMARK 922        TOTAL FREE ENERGY PREDICTED BY IDOCK:   -9.72 KCAL/MOL
REMARK 923 INTER-LIGAND FREE ENERGY PREDICTED BY IDOCK:   -9.36 KCAL/MOL
REMARK 924 INTRA-LIGAND FREE ENERGY PREDICTED BY IDOCK:   -0.37 KCAL/MOL
REMARK 927      BINDING AFFINITY PREDICTED BY RF-SCORE:    0.00 PKD
ROOT
HETATM    1  C   UNL     1      -8.786   3.413  66.309  1.00  0.00    -0.134 C  
HETATM    2  C   UNL     1      -9.714   3.926  67.403  1.00  0.00    -0.173 C  
ENDROOT
BRANCH   2   3
HETATM    3  C   UNL     1     -10.462   5.208  67.028  1.00  0.00    -0.256 C  
BRANCH   3   4
HETATM    4  C   UNL     1     -10.621   6.151  68.174  1.00  0.00    -0.264 A  
HETATM    5  N   UNL     1     -10.794   5.792  69.432  1.00  0.00    -0.333 NA 
HETATM    6  C   UNL     1     -10.876   6.958  70.153  1.00  0.00    -0.263 A  
HETATM    7  C   UNL     1     -10.760   8.041  69.307  1.00  0.00    -0.129 A  
HETATM    8  C   UNL     1     -11.058   6.937  71.621  1.00  0.00    -0.271 C  
HETATM    9  N   UNL     1     -10.590   7.524  68.068  1.00  0.00    -0.185 NA 
HETATM   10  N   UNL     1     -10.374   8.307  66.967  1.00  0.00    -0.309 NA 
HETATM   11  C   UNL     1     -10.533   9.667  67.209  1.00  0.00    -0.258 C  
HETATM   12  N   UNL     1     -10.720  10.202  68.376  1.00  0.00    -0.216 N  
HETATM   13  O   UNL     1     -10.865   9.954  70.638  1.00  0.00    -0.301 OA 
HETATM   14  H   UNL     1     -10.827  11.215  68.441  1.00  0.00     0.000 HD 
HETATM   15  C   UNL     1     -10.778   9.453  69.525  1.00  0.00    -0.222 C  
BRANCH  11  16
HETATM   16  C   UNL     1     -10.492  10.609  66.023  1.00  0.00    -0.250 A  
HETATM   17  C   UNL     1      -9.772  11.244  63.785  1.00  0.00    -0.330 A  
HETATM   18  C   UNL     1      -9.768  10.316  64.841  1.00  0.00    -0.320 A  
HETATM   19  C   UNL     1     -11.169  11.835  66.128  1.00  0.00    -0.363 A  
HETATM   20  C   UNL     1     -10.456  12.452  63.893  1.00  0.00    -0.469 A  
HETATM   21  C   UNL     1     -11.148  12.743  65.063  1.00  0.00    -0.285 A  
BRANCH  18  22
HETATM   22  O   UNL     1      -9.104   9.118  64.764  1.00  0.00    -0.200 OA 
BRANCH  22  23
HETATM   23  C   UNL     1      -7.700   9.158  64.503  1.00  0.00    -0.114 C  
HETATM   24  C   UNL     1      -6.945   8.950  65.802  1.00  0.00    -0.080 C  
ENDBRANCH  22  23
ENDBRANCH  18  22
BRANCH  21  25
HETATM   25  S   UNL     1     -11.818  14.370  65.277  1.00  0.00    -0.373 S  
HETATM   26  O   UNL     1     -12.478  14.391  66.564  1.00  0.00    -0.376 OA 
HETATM   27  O   UNL     1     -12.541  14.692  64.067  1.00  0.00    -0.819 OA 
BRANCH  25  28
HETATM   28  N   UNL     1     -10.428  15.360  65.378  1.00  0.00    -0.372 N  
HETATM   29  C   UNL     1     -10.643  16.803  65.715  1.00  0.00    -0.250 C  
HETATM   30  C   UNL     1     -10.885  17.028  67.230  1.00  0.00    -0.123 C  
HETATM   31  N   UNL     1      -9.895  16.397  68.133  1.00  0.00    -0.234 NA 
HETATM   32  C   UNL     1      -9.711  14.982  67.743  1.00  0.00    -0.215 C  
HETATM   33  C   UNL     1      -9.356  14.789  66.257  1.00  0.00    -0.278 C  
BRANCH  31  34
HETATM   34  C   UNL     1      -8.648  17.174  68.171  1.00  0.00    -0.232 C  
HETATM   35  C   UNL     1      -8.850  18.646  68.517  1.00  0.00    -0.361 C  
ENDBRANCH  31  34
ENDBRANCH  25  28
ENDBRANCH  21  25
ENDBRANCH  11  16
ENDBRANCH   3   4
ENDBRANCH   2   3
TORSDOF 8
ENDMDL
MODEL       38
REMARK 921   NORMALIZED FREE ENERGY PREDICTED BY IDOCK:   -5.88 KCAL/MOL
REMARK 922        TOTAL FREE ENERGY PREDICTED BY IDOCK:   -9.64 KCAL/MOL
REMARK 923 INTER-LIGAND FREE ENERGY PREDICTED BY IDOCK:   -8.40 KCAL/MOL
REMARK 924 INTRA-LIGAND FREE ENERGY PREDICTED BY IDOCK:   -1.25 KCAL/MOL
REMARK 927      BINDING AFFINITY PREDICTED BY RF-SCORE:    0.00 PKD
ROOT
HETATM    1  C   UNL     1      -5.593  15.450  70.681  1.00  0.00    -0.096 C  
HETATM    2  C   UNL     1      -5.196  16.668  69.857  1.00  0.00    -0.172 C  
ENDROOT
BRANCH   2   3
HETATM    3  C   UNL     1      -5.667  16.609  68.402  1.00  0.00    -0.121 C  
BRANCH   3   4
HETATM    4  C   UNL     1      -6.851  17.477  68.133  1.00  0.00    -0.197 A  
HETATM    5  N   UNL     1      -6.794  18.739  67.750  1.00  0.00    -0.213 NA 
HETATM    6  C   UNL     1      -8.096  19.151  67.599  1.00  0.00    -0.269 A  
HETATM    7  C   UNL     1      -8.953  18.116  67.909  1.00  0.00    -0.269 A  
HETATM    8  C   UNL     1      -8.416  20.527  67.159  1.00  0.00    -0.357 C  
HETATM    9  N   UNL     1      -8.162  17.067  68.233  1.00  0.00    -0.218 NA 
HETATM   10  N   UNL     1      -8.666  15.832  68.538  1.00  0.00    -0.176 NA 
HETATM   11  C   UNL     1     -10.050  15.809  68.667  1.00  0.00    -0.211 C  
HETATM   12  N   UNL     1     -10.843  16.798  68.388  1.00  0.00    -0.357 N  
HETATM   13  O   UNL     1     -11.121  18.909  67.573  1.00  0.00    -0.356 OA 
HETATM   14  H   UNL     1     -11.847  16.675  68.521  1.00  0.00     0.000 HD 
HETATM   15  C   UNL     1     -10.377  18.003  67.922  1.00  0.00    -0.392 C  
BRANCH  11  16
HETATM   16  C   UNL     1     -10.696  14.537  69.175  1.00  0.00    -0.263 A  
HETATM   17  C   UNL     1     -12.113  13.293  70.715  1.00  0.00    -0.311 A  
HETATM   18  C   UNL     1     -11.556  14.515  70.300  1.00  0.00    -0.268 A  
HETATM   19  C   UNL     1     -10.390  13.332  68.520  1.00  0.00    -0.244 A  
HETATM   20  C   UNL     1     -11.814  12.105  70.053  1.00  0.00    -0.383 A  
HETATM   21  C   UNL     1     -10.953  12.130  68.962  1.00  0.00    -0.205 A  
BRANCH  18  22
HETATM   22  O   UNL     1     -11.833  15.700  70.932  1.00  0.00    -0.319 OA 
BRANCH  22  23
HETATM   23  C   UNL     1     -12.868  15.698  71.916  1.00  0.00    -0.449 C  
HETATM   24  C   UNL     1     -12.299  16.162  73.242  1.00  0.00    -0.647 C  
ENDBRANCH  22  23
ENDBRANCH  18  22
BRANCH  21  25
HETATM   25  S   UNL     1     -10.400  10.591  68.275  1.00  0.00    -0.180 S  
HETATM   26  O   UNL     1      -9.164  10.859  67.574  1.00  0.00    -0.147 OA 
HETATM   27  O   UNL     1     -11.531  10.005  67.590  1.00  0.00    -0.192 OA 
BRANCH  25  28
HETATM   28  N   UNL     1     -10.034   9.651  69.655  1.00  0.00    -0.206 N  
HETATM   29  C   UNL     1     -10.994   8.556  70.006  1.00  0.00    -0.196 C  
HETATM   30  C   UNL     1     -10.803   7.295  69.125  1.00  0.00    -0.136 C  
HETATM   31  N   UNL     1      -9.412   6.793  69.024  1.00  0.00    -0.134 NA 
HETATM   32  C   UNL     1      -8.510   7.918  68.693  1.00  0.00    -0.128 C  
HETATM   33  C   UNL     1      -8.634   9.116  69.653  1.00  0.00    -0.143 C  
BRANCH  31  34
HETATM   34  C   UNL     1      -9.031   6.058  70.238  1.00  0.00    -0.148 C  
HETATM   35  C   UNL     1     -10.031   4.980  70.644  1.00  0.00    -0.300 C  
ENDBRANCH  31  34
ENDBRANCH  25  28
ENDBRANCH  21  25
ENDBRANCH  11  16
ENDBRANCH   3   4
ENDBRANCH   2   3
TORSDOF 8
ENDMDL
MODEL       39
REMARK 921   NORMALIZED FREE ENERGY PREDICTED BY IDOCK:   -5.88 KCAL/MOL
REMARK 922        TOTAL FREE ENERGY PREDICTED BY IDOCK:   -9.64 KCAL/MOL
REMARK 923 INTER-LIGAND FREE ENERGY PREDICTED BY IDOCK:   -8.50 KCAL/MOL
REMARK 924 INTRA-LIGAND FREE ENERGY PREDICTED BY IDOCK:   -1.14 KCAL/MOL
REMARK 927      BINDING AFFINITY PREDICTED BY RF-SCORE:    0.00 PKD
ROOT
HETATM    1  C   UNL     1      -8.144   9.739  63.197  1.00  0.00    -0.149 C  
HETATM    2  C   UNL     1      -7.347  10.238  64.397  1.00  0.00    -0.075 C  
ENDROOT
BRANCH   2   3
HETATM    3  C   UNL     1      -6.717   9.119  65.229  1.00  0.00    -0.069 C  
BRANCH   3   4
HETATM    4  C   UNL     1      -7.690   8.053  65.612  1.00  0.00    -0.094 A  
HETATM    5  N   UNL     1      -7.653   6.805  65.185  1.00  0.00    -0.091 NA 
HETATM    6  C   UNL     1      -8.707   6.164  65.789  1.00  0.00    -0.145 A  
HETATM    7  C   UNL     1      -9.398   7.050  66.588  1.00  0.00    -0.165 A  
HETATM    8  C   UNL     1      -8.967   4.728  65.548  1.00  0.00    -0.146 C  
HETATM    9  N   UNL     1      -8.745   8.231  66.478  1.00  0.00    -0.134 NA 
HETATM   10  N   UNL     1      -9.110   9.342  67.189  1.00  0.00    -0.129 NA 
HETATM   11  C   UNL     1     -10.309   9.197  67.877  1.00  0.00    -0.232 C  
HETATM   12  N   UNL     1     -10.977   8.090  67.989  1.00  0.00    -0.460 N  
HETATM   13  O   UNL     1     -11.125   5.849  67.595  1.00  0.00    -0.243 OA 
HETATM   14  H   UNL     1     -11.850   8.094  68.518  1.00  0.00     0.000 HD 
HETATM   15  C   UNL     1     -10.550   6.915  67.422  1.00  0.00    -0.303 C  
BRANCH  11  16
HETATM   16  C   UNL     1     -10.894  10.420  68.552  1.00  0.00    -0.278 A  
HETATM   17  C   UNL     1     -11.972  11.560  70.414  1.00  0.00    -0.459 A  
HETATM   18  C   UNL     1     -11.442  10.383  69.857  1.00  0.00    -0.297 A  
HETATM   19  C   UNL     1     -10.925  11.624  67.827  1.00  0.00    -0.287 A  
HETATM   20  C   UNL     1     -11.988  12.751  69.694  1.00  0.00    -0.354 A  
HETATM   21  C   UNL     1     -11.468  12.777  68.405  1.00  0.00    -0.311 A  
BRANCH  18  22
HETATM   22  O   UNL     1     -11.412   9.195  70.543  1.00  0.00    -0.262 OA 
BRANCH  22  23
HETATM   23  C   UNL     1     -12.584   8.824  71.270  1.00  0.00    -0.246 C  
HETATM   24  C   UNL     1     -12.499   7.356  71.640  1.00  0.00    -0.381 C  
ENDBRANCH  22  23
ENDBRANCH  18  22
BRANCH  21  25
HETATM   25  S   UNL     1     -11.702  14.232  67.418  1.00  0.00    -0.404 S  
HETATM   26  O   UNL     1     -11.949  15.327  68.330  1.00  0.00    -0.297 OA 
HETATM   27  O   UNL     1     -12.657  13.893  66.386  1.00  0.00    -0.413 OA 
BRANCH  25  28
HETATM   28  N   UNL     1     -10.168  14.474  66.702  1.00  0.00    -0.270 N  
HETATM   29  C   UNL     1     -10.119  15.328  65.472  1.00  0.00    -0.375 C  
HETATM   30  C   UNL     1     -10.181  16.842  65.799  1.00  0.00    -0.291 C  
HETATM   31  N   UNL     1      -9.223  17.310  66.829  1.00  0.00    -0.246 NA 
HETATM   32  C   UNL     1      -9.304  16.422  68.010  1.00  0.00    -0.216 C  
HETATM   33  C   UNL     1      -9.124  14.929  67.676  1.00  0.00    -0.183 C  
BRANCH  31  34
HETATM   34  C   UNL     1      -7.872  17.440  66.269  1.00  0.00    -0.295 C  
HETATM   35  C   UNL     1      -6.852  18.012  67.247  1.00  0.00    -0.203 C  
ENDBRANCH  31  34
ENDBRANCH  25  28
ENDBRANCH  21  25
ENDBRANCH  11  16
ENDBRANCH   3   4
ENDBRANCH   2   3
TORSDOF 8
ENDMDL
MODEL       40
REMARK 921   NORMALIZED FREE ENERGY PREDICTED BY IDOCK:   -5.87 KCAL/MOL
REMARK 922        TOTAL FREE ENERGY PREDICTED BY IDOCK:   -9.62 KCAL/MOL
REMARK 923 INTER-LIGAND FREE ENERGY PREDICTED BY IDOCK:   -8.82 KCAL/MOL
REMARK 924 INTRA-LIGAND FREE ENERGY PREDICTED BY IDOCK:   -0.80 KCAL/MOL
REMARK 927      BINDING AFFINITY PREDICTED BY RF-SCORE:    0.00 PKD
ROOT
HETATM    1  C   UNL     1     -13.413   7.771  71.351  1.00  0.00    -0.317 C  
HETATM    2  C   UNL     1     -12.536   8.531  72.339  1.00  0.00    -0.409 C  
ENDROOT
BRANCH   2   3
HETATM    3  C   UNL     1     -11.379   9.287  71.684  1.00  0.00    -0.467 C  
BRANCH   3   4
HETATM    4  C   UNL     1     -10.857   8.613  70.458  1.00  0.00    -0.228 A  
HETATM    5  N   UNL     1     -10.547   7.333  70.371  1.00  0.00    -0.221 NA 
HETATM    6  C   UNL     1     -10.129   7.129  69.079  1.00  0.00    -0.183 A  
HETATM    7  C   UNL     1     -10.180   8.315  68.377  1.00  0.00    -0.209 A  
HETATM    8  C   UNL     1      -9.711   5.788  68.613  1.00  0.00    -0.165 C  
HETATM    9  N   UNL     1     -10.648   9.239  69.249  1.00  0.00    -0.224 NA 
HETATM   10  N   UNL     1     -10.895  10.534  68.886  1.00  0.00    -0.219 NA 
HETATM   11  C   UNL     1     -10.447  10.852  67.609  1.00  0.00    -0.209 C  
HETATM   12  N   UNL     1      -9.972  10.003  66.751  1.00  0.00    -0.200 N  
HETATM   13  O   UNL     1      -9.500   7.843  66.197  1.00  0.00    -0.169 OA 
HETATM   14  H   UNL     1      -9.669  10.344  65.838  1.00  0.00     0.000 HD 
HETATM   15  C   UNL     1      -9.863   8.663  67.028  1.00  0.00    -0.220 C  
BRANCH  11  16
HETATM   16  C   UNL     1     -10.510  12.302  67.174  1.00  0.00    -0.238 A  
HETATM   17  C   UNL     1     -11.279  14.096  65.718  1.00  0.00    -0.312 A  
HETATM   18  C   UNL     1     -11.276  12.733  66.064  1.00  0.00    -0.299 A  
HETATM   19  C   UNL     1      -9.741  13.240  67.885  1.00  0.00    -0.224 A  
HETATM   20  C   UNL     1     -10.524  15.020  66.435  1.00  0.00    -0.296 A  
HETATM   21  C   UNL     1      -9.757  14.588  67.511  1.00  0.00    -0.211 A  
BRANCH  18  22
HETATM   22  O   UNL     1     -12.010  11.800  65.377  1.00  0.00    -0.294 OA 
BRANCH  22  23
HETATM   23  C   UNL     1     -12.039  11.901  63.953  1.00  0.00    -0.401 C  
HETATM   24  C   UNL     1     -10.649  11.642  63.405  1.00  0.00    -0.472 C  
ENDBRANCH  22  23
ENDBRANCH  18  22
BRANCH  21  25
HETATM   25  S   UNL     1      -8.627  15.727  68.267  1.00  0.00    -0.174 S  
HETATM   26  O   UNL     1      -7.296  15.341  67.854  1.00  0.00    -0.118 OA 
HETATM   27  O   UNL     1      -8.978  15.802  69.668  1.00  0.00    -0.242 OA 
BRANCH  25  28
HETATM   28  N   UNL     1      -9.004  17.215  67.516  1.00  0.00    -0.219 N  
HETATM   29  C   UNL     1      -9.328  18.369  68.415  1.00  0.00    -0.329 C  
HETATM   30  C   UNL     1      -8.058  19.022  69.020  1.00  0.00    -0.200 C  
HETATM   31  N   UNL     1      -6.995  19.367  68.047  1.00  0.00    -0.248 NA 
HETATM   32  C   UNL     1      -6.731  18.199  67.178  1.00  0.00    -0.187 C  
HETATM   33  C   UNL     1      -7.992  17.638  66.494  1.00  0.00    -0.267 C  
BRANCH  31  34
HETATM   34  C   UNL     1      -7.333  20.595  67.314  1.00  0.00    -0.344 C  
HETATM   35  C   UNL     1      -6.290  21.000  66.278  1.00  0.00    -0.299 C  
ENDBRANCH  31  34
ENDBRANCH  25  28
ENDBRANCH  21  25
ENDBRANCH  11  16
ENDBRANCH   3   4
ENDBRANCH   2   3
TORSDOF 8
ENDMDL
MODEL       41
REMARK 921   NORMALIZED FREE ENERGY PREDICTED BY IDOCK:   -5.86 KCAL/MOL
REMARK 922        TOTAL FREE ENERGY PREDICTED BY IDOCK:   -9.61 KCAL/MOL
REMARK 923 INTER-LIGAND FREE ENERGY PREDICTED BY IDOCK:   -8.61 KCAL/MOL
REMARK 924 INTRA-LIGAND FREE ENERGY PREDICTED BY IDOCK:   -1.01 KCAL/MOL
REMARK 927      BINDING AFFINITY PREDICTED BY RF-SCORE:    0.00 PKD
ROOT
HETATM    1  C   UNL     1     -10.040   3.777  63.814  1.00  0.00    -0.203 C  
HETATM    2  C   UNL     1     -10.646   4.214  65.142  1.00  0.00    -0.139 C  
ENDROOT
BRANCH   2   3
HETATM    3  C   UNL     1      -9.792   5.227  65.907  1.00  0.00    -0.112 C  
BRANCH   3   4
HETATM    4  C   UNL     1      -9.718   4.946  67.372  1.00  0.00    -0.165 A  
HETATM    5  N   UNL     1      -9.479   3.762  67.905  1.00  0.00    -0.182 NA 
HETATM    6  C   UNL     1      -9.480   3.949  69.265  1.00  0.00    -0.186 A  
HETATM    7  C   UNL     1      -9.737   5.273  69.555  1.00  0.00    -0.178 A  
HETATM    8  C   UNL     1      -9.227   2.823  70.191  1.00  0.00    -0.205 C  
HETATM    9  N   UNL     1      -9.875   5.892  68.360  1.00  0.00    -0.128 NA 
HETATM   10  N   UNL     1     -10.075   7.240  68.249  1.00  0.00    -0.164 NA 
HETATM   11  C   UNL     1     -10.310   7.873  69.464  1.00  0.00    -0.217 C  
HETATM   12  N   UNL     1     -10.210   7.312  70.630  1.00  0.00    -0.195 N  
HETATM   13  O   UNL     1      -9.667   5.482  71.877  1.00  0.00    -0.158 OA 
HETATM   14  H   UNL     1     -10.408   7.869  71.462  1.00  0.00     0.000 HD 
HETATM   15  C   UNL     1      -9.849   5.996  70.782  1.00  0.00    -0.181 C  
BRANCH  11  16
HETATM   16  C   UNL     1     -10.719   9.331  69.440  1.00  0.00    -0.222 A  
HETATM   17  C   UNL     1     -12.006  11.234  70.249  1.00  0.00    -0.466 A  
HETATM   18  C   UNL     1     -11.673   9.871  70.337  1.00  0.00    -0.258 A  
HETATM   19  C   UNL     1     -10.153  10.161  68.458  1.00  0.00    -0.186 A  
HETATM   20  C   UNL     1     -11.431  12.052  69.280  1.00  0.00    -0.361 A  
HETATM   21  C   UNL     1     -10.510  11.512  68.389  1.00  0.00    -0.207 A  
BRANCH  18  22
HETATM   22  O   UNL     1     -12.223   9.041  71.280  1.00  0.00    -0.302 OA 
BRANCH  22  23
HETATM   23  C   UNL     1     -13.332   9.538  72.031  1.00  0.00    -0.452 C  
HETATM   24  C   UNL     1     -14.375   8.446  72.166  1.00  0.00    -0.520 C  
ENDBRANCH  22  23
ENDBRANCH  18  22
BRANCH  21  25
HETATM   25  S   UNL     1      -9.962  12.501  67.023  1.00  0.00    -0.217 S  
HETATM   26  O   UNL     1     -10.525  11.919  65.825  1.00  0.00    -0.240 OA 
HETATM   27  O   UNL     1      -8.532  12.666  67.168  1.00  0.00    -0.184 OA 
BRANCH  25  28
HETATM   28  N   UNL     1     -10.728  14.006  67.292  1.00  0.00    -0.276 N  
HETATM   29  C   UNL     1      -9.861  15.140  67.745  1.00  0.00    -0.223 C  
HETATM   30  C   UNL     1      -9.064  15.779  66.579  1.00  0.00    -0.293 C  
HETATM   31  N   UNL     1      -9.865  16.145  65.386  1.00  0.00    -0.472 NA 
HETATM   32  C   UNL     1     -10.712  14.996  64.996  1.00  0.00    -0.427 C  
HETATM   33  C   UNL     1     -11.583  14.450  66.143  1.00  0.00    -0.369 C  
BRANCH  31  34
HETATM   34  C   UNL     1     -10.613  17.388  65.618  1.00  0.00    -0.153 C  
HETATM   35  C   UNL     1      -9.810  18.464  66.341  1.00  0.00    -0.369 C  
ENDBRANCH  31  34
ENDBRANCH  25  28
ENDBRANCH  21  25
ENDBRANCH  11  16
ENDBRANCH   3   4
ENDBRANCH   2   3
TORSDOF 8
ENDMDL
MODEL       42
REMARK 921   NORMALIZED FREE ENERGY PREDICTED BY IDOCK:   -5.85 KCAL/MOL
REMARK 922        TOTAL FREE ENERGY PREDICTED BY IDOCK:   -9.59 KCAL/MOL
REMARK 923 INTER-LIGAND FREE ENERGY PREDICTED BY IDOCK:   -8.74 KCAL/MOL
REMARK 924 INTRA-LIGAND FREE ENERGY PREDICTED BY IDOCK:   -0.86 KCAL/MOL
REMARK 927      BINDING AFFINITY PREDICTED BY RF-SCORE:    0.00 PKD
ROOT
HETATM    1  C   UNL     1      -5.954  16.846  67.584  1.00  0.00    -0.158 C  
HETATM    2  C   UNL     1      -6.549  17.327  68.902  1.00  0.00    -0.212 C  
ENDROOT
BRANCH   2   3
HETATM    3  C   UNL     1      -7.993  16.875  69.130  1.00  0.00    -0.102 C  
BRANCH   3   4
HETATM    4  C   UNL     1      -8.887  17.156  67.968  1.00  0.00    -0.229 A  
HETATM    5  N   UNL     1      -9.232  18.360  67.551  1.00  0.00    -0.270 NA 
HETATM    6  C   UNL     1     -10.039  18.167  66.457  1.00  0.00    -0.386 A  
HETATM    7  C   UNL     1     -10.191  16.817  66.218  1.00  0.00    -0.332 A  
HETATM    8  C   UNL     1     -10.607  19.315  65.715  1.00  0.00    -0.450 C  
HETATM    9  N   UNL     1      -9.455  16.191  67.166  1.00  0.00    -0.221 NA 
HETATM   10  N   UNL     1      -9.312  14.831  67.206  1.00  0.00    -0.200 NA 
HETATM   11  C   UNL     1     -10.134  14.156  66.312  1.00  0.00    -0.300 C  
HETATM   12  N   UNL     1     -10.871  14.717  65.403  1.00  0.00    -0.333 N  
HETATM   13  O   UNL     1     -11.532  16.611  64.321  1.00  0.00    -1.075 OA 
HETATM   14  H   UNL     1     -11.440  14.126  64.798  1.00  0.00     0.000 HD 
HETATM   15  C   UNL     1     -10.910  16.079  65.230  1.00  0.00    -0.362 C  
BRANCH  11  16
HETATM   16  C   UNL     1     -10.185  12.644  66.396  1.00  0.00    -0.263 A  
HETATM   17  C   UNL     1     -10.309  10.422  65.408  1.00  0.00    -0.270 A  
HETATM   18  C   UNL     1     -10.258  11.818  65.248  1.00  0.00    -0.267 A  
HETATM   19  C   UNL     1     -10.201  12.052  67.671  1.00  0.00    -0.210 A  
HETATM   20  C   UNL     1     -10.312   9.844  66.674  1.00  0.00    -0.275 A  
HETATM   21  C   UNL     1     -10.262  10.660  67.798  1.00  0.00    -0.180 A  
BRANCH  18  22
HETATM   22  O   UNL     1     -10.252  12.416  64.014  1.00  0.00    -0.366 OA 
BRANCH  22  23
HETATM   23  C   UNL     1     -11.272  12.031  63.090  1.00  0.00    -0.178 C  
HETATM   24  C   UNL     1     -12.622  12.462  63.627  1.00  0.00    -0.550 C  
ENDBRANCH  22  23
ENDBRANCH  18  22
BRANCH  21  25
HETATM   25  S   UNL     1     -10.499   9.930  69.396  1.00  0.00    -0.247 S  
HETATM   26  O   UNL     1     -11.038   8.605  69.181  1.00  0.00    -0.013 OA 
HETATM   27  O   UNL     1     -11.207  10.899  70.203  1.00  0.00    -0.288 OA 
BRANCH  25  28
HETATM   28  N   UNL     1      -8.906   9.762  69.995  1.00  0.00    -0.221 N  
HETATM   29  C   UNL     1      -8.731   8.964  71.250  1.00  0.00    -0.215 C  
HETATM   30  C   UNL     1      -8.770   7.436  70.991  1.00  0.00    -0.139 C  
HETATM   31  N   UNL     1      -7.884   6.951  69.907  1.00  0.00    -0.112 NA 
HETATM   32  C   UNL     1      -8.087   7.785  68.701  1.00  0.00    -0.127 C  
HETATM   33  C   UNL     1      -7.929   9.296  68.958  1.00  0.00    -0.097 C  
BRANCH  31  34
HETATM   34  C   UNL     1      -6.488   6.885  70.360  1.00  0.00    -0.047 C  
HETATM   35  C   UNL     1      -6.333   6.461  71.816  1.00  0.00    -0.042 C  
ENDBRANCH  31  34
ENDBRANCH  25  28
ENDBRANCH  21  25
ENDBRANCH  11  16
ENDBRANCH   3   4
ENDBRANCH   2   3
TORSDOF 8
ENDMDL
MODEL       43
REMARK 921   NORMALIZED FREE ENERGY PREDICTED BY IDOCK:   -5.81 KCAL/MOL
REMARK 922        TOTAL FREE ENERGY PREDICTED BY IDOCK:   -9.53 KCAL/MOL
REMARK 923 INTER-LIGAND FREE ENERGY PREDICTED BY IDOCK:   -8.50 KCAL/MOL
REMARK 924 INTRA-LIGAND FREE ENERGY PREDICTED BY IDOCK:   -1.04 KCAL/MOL
REMARK 927      BINDING AFFINITY PREDICTED BY RF-SCORE:    0.00 PKD
ROOT
HETATM    1  C   UNL     1     -12.531  13.853  71.102  1.00  0.00    -0.450 C  
HETATM    2  C   UNL     1     -12.131  14.064  69.647  1.00  0.00    -0.408 C  
ENDROOT
BRANCH   2   3
HETATM    3  C   UNL     1     -11.770  12.772  68.912  1.00  0.00    -0.370 C  
BRANCH   3   4
HETATM    4  C   UNL     1     -11.733  12.931  67.428  1.00  0.00    -0.372 A  
HETATM    5  N   UNL     1     -12.278  13.930  66.759  1.00  0.00    -0.426 NA 
HETATM    6  C   UNL     1     -11.997  13.700  65.435  1.00  0.00    -0.378 A  
HETATM    7  C   UNL     1     -11.276  12.532  65.304  1.00  0.00    -0.304 A  
HETATM    8  C   UNL     1     -12.449  14.639  64.384  1.00  0.00    -0.312 C  
HETATM    9  N   UNL     1     -11.106  12.062  66.563  1.00  0.00    -0.299 NA 
HETATM   10  N   UNL     1     -10.373  10.940  66.835  1.00  0.00    -0.228 NA 
HETATM   11  C   UNL     1      -9.987  10.235  65.702  1.00  0.00    -0.280 C  
HETATM   12  N   UNL     1     -10.149  10.638  64.479  1.00  0.00    -0.342 N  
HETATM   13  O   UNL     1     -10.815  12.270  63.033  1.00  0.00    -0.271 OA 
HETATM   14  H   UNL     1      -9.830  10.039  63.717  1.00  0.00     0.000 HD 
HETATM   15  C   UNL     1     -10.737  11.841  64.176  1.00  0.00    -0.357 C  
BRANCH  11  16
HETATM   16  C   UNL     1      -9.325   8.885  65.894  1.00  0.00    -0.301 A  
HETATM   17  C   UNL     1      -7.671   7.186  65.344  1.00  0.00    -0.111 A  
HETATM   18  C   UNL     1      -8.228   8.455  65.110  1.00  0.00    -0.157 A  
HETATM   19  C   UNL     1      -9.856   8.021  66.867  1.00  0.00    -0.318 A  
HETATM   20  C   UNL     1      -8.196   6.340  66.317  1.00  0.00    -0.117 A  
HETATM   21  C   UNL     1      -9.286   6.759  67.071  1.00  0.00    -0.143 A  
BRANCH  18  22
HETATM   22  O   UNL     1      -7.732   9.310  64.158  1.00  0.00    -0.111 OA 
BRANCH  22  23
HETATM   23  C   UNL     1      -6.591   8.879  63.414  1.00  0.00    -0.089 C  
HETATM   24  C   UNL     1      -5.612  10.029  63.290  1.00  0.00    -0.110 C  
ENDBRANCH  22  23
ENDBRANCH  18  22
BRANCH  21  25
HETATM   25  S   UNL     1     -10.086   5.593  68.140  1.00  0.00    -0.180 S  
HETATM   26  O   UNL     1      -9.905   4.284  67.551  1.00  0.00    -0.175 OA 
HETATM   27  O   UNL     1     -11.409   6.108  68.414  1.00  0.00    -0.271 OA 
BRANCH  25  28
HETATM   28  N   UNL     1      -9.152   5.663  69.571  1.00  0.00    -0.124 N  
HETATM   29  C   UNL     1      -8.624   7.005  69.974  1.00  0.00    -0.141 C  
HETATM   30  C   UNL     1      -9.701   7.884  70.660  1.00  0.00    -0.173 C  
HETATM   31  N   UNL     1     -10.443   7.234  71.766  1.00  0.00    -0.197 NA 
HETATM   32  C   UNL     1     -10.925   5.908  71.317  1.00  0.00    -0.259 C  
HETATM   33  C   UNL     1      -9.815   5.007  70.744  1.00  0.00    -0.208 C  
BRANCH  31  34
HETATM   34  C   UNL     1      -9.631   7.192  72.990  1.00  0.00    -0.163 C  
HETATM   35  C   UNL     1     -10.317   6.498  74.161  1.00  0.00    -0.351 C  
ENDBRANCH  31  34
ENDBRANCH  25  28
ENDBRANCH  21  25
ENDBRANCH  11  16
ENDBRANCH   3   4
ENDBRANCH   2   3
TORSDOF 8
ENDMDL
MODEL       44
REMARK 921   NORMALIZED FREE ENERGY PREDICTED BY IDOCK:   -5.80 KCAL/MOL
REMARK 922        TOTAL FREE ENERGY PREDICTED BY IDOCK:   -9.52 KCAL/MOL
REMARK 923 INTER-LIGAND FREE ENERGY PREDICTED BY IDOCK:   -8.42 KCAL/MOL
REMARK 924 INTRA-LIGAND FREE ENERGY PREDICTED BY IDOCK:   -1.09 KCAL/MOL
REMARK 927      BINDING AFFINITY PREDICTED BY RF-SCORE:    0.00 PKD
ROOT
HETATM    1  C   UNL     1     -10.702  16.267  69.599  1.00  0.00    -0.338 C  
HETATM    2  C   UNL     1     -11.079  15.878  68.175  1.00  0.00    -0.338 C  
ENDROOT
BRANCH   2   3
HETATM    3  C   UNL     1     -12.129  14.768  68.096  1.00  0.00    -0.167 C  
BRANCH   3   4
HETATM    4  C   UNL     1     -11.862  13.784  67.005  1.00  0.00    -0.410 A  
HETATM    5  N   UNL     1     -12.295  13.894  65.763  1.00  0.00    -0.460 NA 
HETATM    6  C   UNL     1     -11.813  12.797  65.092  1.00  0.00    -0.391 A  
HETATM    7  C   UNL     1     -11.084  12.005  65.954  1.00  0.00    -0.324 A  
HETATM    8  C   UNL     1     -12.094  12.597  63.653  1.00  0.00    -0.632 C  
HETATM    9  N   UNL     1     -11.113  12.639  67.150  1.00  0.00    -0.268 NA 
HETATM   10  N   UNL     1     -10.434  12.175  68.243  1.00  0.00    -0.207 NA 
HETATM   11  C   UNL     1      -9.879  10.913  68.064  1.00  0.00    -0.171 C  
HETATM   12  N   UNL     1      -9.850  10.262  66.942  1.00  0.00    -0.189 N  
HETATM   13  O   UNL     1     -10.279  10.208  64.704  1.00  0.00    -0.279 OA 
HETATM   14  H   UNL     1      -9.418   9.338  66.921  1.00  0.00     0.000 HD 
HETATM   15  C   UNL     1     -10.380  10.774  65.783  1.00  0.00    -0.230 C  
BRANCH  11  16
HETATM   16  C   UNL     1      -9.260  10.232  69.267  1.00  0.00    -0.215 A  
HETATM   17  C   UNL     1      -7.359   9.489  70.595  1.00  0.00    -0.133 A  
HETATM   18  C   UNL     1      -7.859  10.143  69.456  1.00  0.00    -0.162 A  
HETATM   19  C   UNL     1     -10.119   9.634  70.204  1.00  0.00    -0.311 A  
HETATM   20  C   UNL     1      -8.217   8.909  71.525  1.00  0.00    -0.143 A  
HETATM   21  C   UNL     1      -9.591   8.982  71.324  1.00  0.00    -0.291 A  
BRANCH  18  22
HETATM   22  O   UNL     1      -7.038  10.724  68.523  1.00  0.00    -0.065 OA 
BRANCH  22  23
HETATM   23  C   UNL     1      -6.285   9.855  67.675  1.00  0.00    -0.059 C  
HETATM   24  C   UNL     1      -6.169  10.478  66.297  1.00  0.00    -0.105 C  
ENDBRANCH  22  23
ENDBRANCH  18  22
BRANCH  21  25
HETATM   25  S   UNL     1     -10.661   8.047  72.386  1.00  0.00    -0.334 S  
HETATM   26  O   UNL     1     -11.948   8.706  72.378  1.00  0.00    -0.375 OA 
HETATM   27  O   UNL     1      -9.944   7.832  73.624  1.00  0.00    -0.301 OA 
BRANCH  25  28
HETATM   28  N   UNL     1     -10.824   6.555  71.568  1.00  0.00    -0.239 N  
HETATM   29  C   UNL     1      -9.561   5.830  71.216  1.00  0.00    -0.166 C  
HETATM   30  C   UNL     1      -8.954   5.075  72.426  1.00  0.00    -0.130 C  
HETATM   31  N   UNL     1      -9.895   4.204  73.170  1.00  0.00    -0.125 NA 
HETATM   32  C   UNL     1     -11.127   4.966  73.475  1.00  0.00    -0.332 C  
HETATM   33  C   UNL     1     -11.778   5.612  72.238  1.00  0.00    -0.138 C  
BRANCH  31  34
HETATM   34  C   UNL     1     -10.132   2.948  72.446  1.00  0.00    -0.161 C  
HETATM   35  C   UNL     1     -11.075   1.991  73.167  1.00  0.00    -0.237 C  
ENDBRANCH  31  34
ENDBRANCH  25  28
ENDBRANCH  21  25
ENDBRANCH  11  16
ENDBRANCH   3   4
ENDBRANCH   2   3
TORSDOF 8
ENDMDL
MODEL       45
REMARK 921   NORMALIZED FREE ENERGY PREDICTED BY IDOCK:   -5.79 KCAL/MOL
REMARK 922        TOTAL FREE ENERGY PREDICTED BY IDOCK:   -9.50 KCAL/MOL
REMARK 923 INTER-LIGAND FREE ENERGY PREDICTED BY IDOCK:   -8.42 KCAL/MOL
REMARK 924 INTRA-LIGAND FREE ENERGY PREDICTED BY IDOCK:   -1.08 KCAL/MOL
REMARK 927      BINDING AFFINITY PREDICTED BY RF-SCORE:    0.00 PKD
ROOT
HETATM    1  C   UNL     1      -5.277   8.820  73.950  1.00  0.00    -0.098 C  
HETATM    2  C   UNL     1      -5.718   7.971  72.765  1.00  0.00    -0.047 C  
ENDROOT
BRANCH   2   3
HETATM    3  C   UNL     1      -6.773   8.642  71.883  1.00  0.00    -0.078 C  
BRANCH   3   4
HETATM    4  C   UNL     1      -8.105   7.969  71.945  1.00  0.00    -0.121 A  
HETATM    5  N   UNL     1      -8.438   7.028  72.809  1.00  0.00    -0.114 NA 
HETATM    6  C   UNL     1      -9.743   6.703  72.533  1.00  0.00    -0.157 A  
HETATM    7  C   UNL     1     -10.200   7.458  71.474  1.00  0.00    -0.192 A  
HETATM    8  C   UNL     1     -10.459   5.678  73.325  1.00  0.00    -0.256 C  
HETATM    9  N   UNL     1      -9.167   8.257  71.119  1.00  0.00    -0.152 NA 
HETATM   10  N   UNL     1      -9.272   9.200  70.133  1.00  0.00    -0.189 NA 
HETATM   11  C   UNL     1     -10.460   9.129  69.415  1.00  0.00    -0.219 C  
HETATM   12  N   UNL     1     -11.466   8.363  69.708  1.00  0.00    -0.431 N  
HETATM   13  O   UNL     1     -12.428   6.860  71.127  1.00  0.00    -0.378 OA 
HETATM   14  H   UNL     1     -12.293   8.388  69.111  1.00  0.00     0.000 HD 
HETATM   15  C   UNL     1     -11.454   7.520  70.792  1.00  0.00    -0.284 C  
BRANCH  11  16
HETATM   16  C   UNL     1     -10.605  10.009  68.190  1.00  0.00    -0.268 A  
HETATM   17  C   UNL     1     -10.367  10.463  65.810  1.00  0.00    -0.257 A  
HETATM   18  C   UNL     1     -10.207   9.588  66.898  1.00  0.00    -0.249 A  
HETATM   19  C   UNL     1     -11.117  11.306  68.363  1.00  0.00    -0.296 A  
HETATM   20  C   UNL     1     -10.887  11.743  65.988  1.00  0.00    -0.343 A  
HETATM   21  C   UNL     1     -11.256  12.158  67.262  1.00  0.00    -0.306 A  
BRANCH  18  22
HETATM   22  O   UNL     1      -9.699   8.322  66.753  1.00  0.00    -0.197 OA 
BRANCH  22  23
HETATM   23  C   UNL     1      -8.280   8.169  66.820  1.00  0.00    -0.107 C  
HETATM   24  C   UNL     1      -7.951   6.825  67.440  1.00  0.00    -0.114 C  
ENDBRANCH  22  23
ENDBRANCH  18  22
BRANCH  21  25
HETATM   25  S   UNL     1     -11.697  13.857  67.513  1.00  0.00    -0.400 S  
HETATM   26  O   UNL     1     -12.354  13.940  68.799  1.00  0.00    -0.288 OA 
HETATM   27  O   UNL     1     -12.363  14.303  66.308  1.00  0.00    -0.443 OA 
BRANCH  25  28
HETATM   28  N   UNL     1     -10.185  14.644  67.638  1.00  0.00    -0.232 N  
HETATM   29  C   UNL     1      -9.636  15.267  66.392  1.00  0.00    -0.292 C  
HETATM   30  C   UNL     1     -10.295  16.634  66.073  1.00  0.00    -0.340 C  
HETATM   31  N   UNL     1     -10.332  17.600  67.197  1.00  0.00    -0.340 NA 
HETATM   32  C   UNL     1     -10.865  16.925  68.402  1.00  0.00    -0.347 C  
HETATM   33  C   UNL     1     -10.120  15.628  68.767  1.00  0.00    -0.211 C  
BRANCH  31  34
HETATM   34  C   UNL     1      -9.019  18.227  67.394  1.00  0.00    -0.257 C  
HETATM   35  C   UNL     1      -8.988  19.248  68.526  1.00  0.00    -0.414 C  
ENDBRANCH  31  34
ENDBRANCH  25  28
ENDBRANCH  21  25
ENDBRANCH  11  16
ENDBRANCH   3   4
ENDBRANCH   2   3
TORSDOF 8
ENDMDL
MODEL       46
REMARK 921   NORMALIZED FREE ENERGY PREDICTED BY IDOCK:   -5.78 KCAL/MOL
REMARK 922        TOTAL FREE ENERGY PREDICTED BY IDOCK:   -9.50 KCAL/MOL
REMARK 923 INTER-LIGAND FREE ENERGY PREDICTED BY IDOCK:   -8.23 KCAL/MOL
REMARK 924 INTRA-LIGAND FREE ENERGY PREDICTED BY IDOCK:   -1.27 KCAL/MOL
REMARK 927      BINDING AFFINITY PREDICTED BY RF-SCORE:    0.00 PKD
ROOT
HETATM    1  C   UNL     1     -11.628  12.821  63.438  1.00  0.00    -0.506 C  
HETATM    2  C   UNL     1     -12.649  12.520  64.529  1.00  0.00    -0.503 C  
ENDROOT
BRANCH   2   3
HETATM    3  C   UNL     1     -12.656  13.543  65.667  1.00  0.00    -0.512 C  
BRANCH   3   4
HETATM    4  C   UNL     1     -11.301  14.088  65.976  1.00  0.00    -0.328 A  
HETATM    5  N   UNL     1     -10.890  15.308  65.687  1.00  0.00    -0.348 NA 
HETATM    6  C   UNL     1      -9.603  15.399  66.157  1.00  0.00    -0.329 A  
HETATM    7  C   UNL     1      -9.229  14.202  66.731  1.00  0.00    -0.266 A  
HETATM    8  C   UNL     1      -8.825  16.649  66.016  1.00  0.00    -0.242 C  
HETATM    9  N   UNL     1     -10.306  13.389  66.622  1.00  0.00    -0.266 NA 
HETATM   10  N   UNL     1     -10.328  12.125  67.145  1.00  0.00    -0.213 NA 
HETATM   11  C   UNL     1      -9.096  11.696  67.623  1.00  0.00    -0.174 C  
HETATM   12  N   UNL     1      -8.034  12.435  67.725  1.00  0.00    -0.143 N  
HETATM   13  O   UNL     1      -7.057  14.486  67.532  1.00  0.00    -0.175 OA 
HETATM   14  H   UNL     1      -7.177  12.018  68.089  1.00  0.00     0.000 HD 
HETATM   15  C   UNL     1      -8.025  13.759  67.359  1.00  0.00    -0.162 C  
BRANCH  11  16
HETATM   16  C   UNL     1      -8.967  10.251  68.061  1.00  0.00    -0.132 A  
HETATM   17  C   UNL     1      -8.244   7.948  67.743  1.00  0.00    -0.129 A  
HETATM   18  C   UNL     1      -8.319   9.270  67.272  1.00  0.00    -0.125 A  
HETATM   19  C   UNL     1      -9.554   9.874  69.281  1.00  0.00    -0.215 A  
HETATM   20  C   UNL     1      -8.818   7.585  68.959  1.00  0.00    -0.132 A  
HETATM   21  C   UNL     1      -9.471   8.548  69.720  1.00  0.00    -0.166 A  
BRANCH  18  22
HETATM   22  O   UNL     1      -7.763   9.656  66.079  1.00  0.00    -0.099 OA 
BRANCH  22  23
HETATM   23  C   UNL     1      -8.305   9.090  64.884  1.00  0.00    -0.169 C  
HETATM   24  C   UNL     1      -9.393   9.999  64.348  1.00  0.00    -0.348 C  
ENDBRANCH  22  23
ENDBRANCH  18  22
BRANCH  21  25
HETATM   25  S   UNL     1     -10.391   8.031  71.145  1.00  0.00    -0.199 S  
HETATM   26  O   UNL     1     -11.730   7.719  70.695  1.00  0.00    -0.266 OA 
HETATM   27  O   UNL     1     -10.165   9.021  72.175  1.00  0.00    -0.300 OA 
BRANCH  25  28
HETATM   28  N   UNL     1      -9.630   6.569  71.598  1.00  0.00    -0.161 N  
HETATM   29  C   UNL     1      -8.949   6.542  72.932  1.00  0.00    -0.129 C  
HETATM   30  C   UNL     1      -9.948   6.359  74.103  1.00  0.00    -0.309 C  
HETATM   31  N   UNL     1     -10.905   5.237  73.955  1.00  0.00    -0.272 NA 
HETATM   32  C   UNL     1     -11.532   5.306  72.616  1.00  0.00    -0.201 C  
HETATM   33  C   UNL     1     -10.519   5.370  71.458  1.00  0.00    -0.223 C  
BRANCH  31  34
HETATM   34  C   UNL     1     -10.256   3.952  74.246  1.00  0.00    -0.185 C  
HETATM   35  C   UNL     1     -11.037   2.741  73.745  1.00  0.00    -0.304 C  
ENDBRANCH  31  34
ENDBRANCH  25  28
ENDBRANCH  21  25
ENDBRANCH  11  16
ENDBRANCH   3   4
ENDBRANCH   2   3
TORSDOF 8
ENDMDL
MODEL       47
REMARK 921   NORMALIZED FREE ENERGY PREDICTED BY IDOCK:   -5.78 KCAL/MOL
REMARK 922        TOTAL FREE ENERGY PREDICTED BY IDOCK:   -9.49 KCAL/MOL
REMARK 923 INTER-LIGAND FREE ENERGY PREDICTED BY IDOCK:   -9.20 KCAL/MOL
REMARK 924 INTRA-LIGAND FREE ENERGY PREDICTED BY IDOCK:   -0.29 KCAL/MOL
REMARK 927      BINDING AFFINITY PREDICTED BY RF-SCORE:    0.00 PKD
ROOT
HETATM    1  C   UNL     1     -11.165   5.767  72.172  1.00  0.00    -0.327 C  
HETATM    2  C   UNL     1     -10.446   6.228  70.911  1.00  0.00    -0.274 C  
ENDROOT
BRANCH   2   3
HETATM    3  C   UNL     1     -11.388   6.612  69.768  1.00  0.00    -0.412 C  
BRANCH   3   4
HETATM    4  C   UNL     1     -10.679   6.849  68.476  1.00  0.00    -0.207 A  
HETATM    5  N   UNL     1     -10.118   5.910  67.737  1.00  0.00    -0.145 NA 
HETATM    6  C   UNL     1      -9.599   6.549  66.638  1.00  0.00    -0.160 A  
HETATM    7  C   UNL     1      -9.845   7.903  66.724  1.00  0.00    -0.248 A  
HETATM    8  C   UNL     1      -8.901   5.794  65.574  1.00  0.00    -0.119 C  
HETATM    9  N   UNL     1     -10.532   8.080  67.877  1.00  0.00    -0.216 NA 
HETATM   10  N   UNL     1     -11.010   9.300  68.268  1.00  0.00    -0.068 NA 
HETATM   11  C   UNL     1     -10.565  10.354  67.479  1.00  0.00    -0.262 C  
HETATM   12  N   UNL     1      -9.886  10.231  66.380  1.00  0.00    -0.207 N  
HETATM   13  O   UNL     1      -8.969   8.875  64.793  1.00  0.00    -0.157 OA 
HETATM   14  H   UNL     1      -9.607  11.073  65.877  1.00  0.00     0.000 HD 
HETATM   15  C   UNL     1      -9.531   9.006  65.872  1.00  0.00    -0.249 C  
BRANCH  11  16
HETATM   16  C   UNL     1     -10.888  11.765  67.928  1.00  0.00    -0.255 A  
HETATM   17  C   UNL     1     -12.018  13.376  69.362  1.00  0.00    -0.369 A  
HETATM   18  C   UNL     1     -11.762  12.040  69.008  1.00  0.00    -0.325 A  
HETATM   19  C   UNL     1     -10.324  12.833  67.211  1.00  0.00    -0.235 A  
HETATM   20  C   UNL     1     -11.446  14.429  68.654  1.00  0.00    -0.316 A  
HETATM   21  C   UNL     1     -10.605  14.153  67.581  1.00  0.00    -0.253 A  
BRANCH  18  22
HETATM   22  O   UNL     1     -12.311  10.982  69.688  1.00  0.00    -0.321 OA 
BRANCH  22  23
HETATM   23  C   UNL     1     -12.464  11.114  71.102  1.00  0.00    -0.393 C  
HETATM   24  C   UNL     1     -13.143   9.874  71.650  1.00  0.00    -0.538 C  
ENDBRANCH  22  23
ENDBRANCH  18  22
BRANCH  21  25
HETATM   25  S   UNL     1     -10.069  15.492  66.549  1.00  0.00    -0.295 S  
HETATM   26  O   UNL     1     -11.191  15.857  65.712  1.00  0.00    -0.139 OA 
HETATM   27  O   UNL     1      -8.805  15.097  65.968  1.00  0.00    -0.198 OA 
BRANCH  25  28
HETATM   28  N   UNL     1      -9.801  16.764  67.659  1.00  0.00    -0.256 N  
HETATM   29  C   UNL     1      -8.379  17.167  67.902  1.00  0.00    -0.207 C  
HETATM   30  C   UNL     1      -7.817  18.066  66.771  1.00  0.00    -0.235 C  
HETATM   31  N   UNL     1      -8.660  19.228  66.403  1.00  0.00    -0.334 NA 
HETATM   32  C   UNL     1     -10.053  18.773  66.193  1.00  0.00    -0.384 C  
HETATM   33  C   UNL     1     -10.631  17.980  67.380  1.00  0.00    -0.365 C  
BRANCH  31  34
HETATM   34  C   UNL     1      -8.525  20.307  67.390  1.00  0.00    -0.339 C  
HETATM   35  C   UNL     1      -7.120  20.895  67.473  1.00  0.00    -0.389 C  
ENDBRANCH  31  34
ENDBRANCH  25  28
ENDBRANCH  21  25
ENDBRANCH  11  16
ENDBRANCH   3   4
ENDBRANCH   2   3
TORSDOF 8
ENDMDL
MODEL       48
REMARK 921   NORMALIZED FREE ENERGY PREDICTED BY IDOCK:   -5.74 KCAL/MOL
REMARK 922        TOTAL FREE ENERGY PREDICTED BY IDOCK:   -9.43 KCAL/MOL
REMARK 923 INTER-LIGAND FREE ENERGY PREDICTED BY IDOCK:   -9.07 KCAL/MOL
REMARK 924 INTRA-LIGAND FREE ENERGY PREDICTED BY IDOCK:   -0.36 KCAL/MOL
REMARK 927      BINDING AFFINITY PREDICTED BY RF-SCORE:    0.00 PKD
ROOT
HETATM    1  C   UNL     1      -9.448   1.993  68.044  1.00  0.00    -0.199 C  
HETATM    2  C   UNL     1      -8.867   3.109  68.904  1.00  0.00    -0.167 C  
ENDROOT
BRANCH   2   3
HETATM    3  C   UNL     1      -9.327   4.509  68.494  1.00  0.00    -0.198 C  
BRANCH   3   4
HETATM    4  C   UNL     1      -9.991   5.257  69.603  1.00  0.00    -0.232 A  
HETATM    5  N   UNL     1     -10.328   4.740  70.770  1.00  0.00    -0.168 NA 
HETATM    6  C   UNL     1     -10.888   5.764  71.493  1.00  0.00    -0.253 A  
HETATM    7  C   UNL     1     -10.897   6.919  70.739  1.00  0.00    -0.245 A  
HETATM    8  C   UNL     1     -11.374   5.548  72.874  1.00  0.00    -0.348 C  
HETATM    9  N   UNL     1     -10.323   6.592  69.558  1.00  0.00    -0.192 NA 
HETATM   10  N   UNL     1     -10.099   7.512  68.570  1.00  0.00    -0.179 NA 
HETATM   11  C   UNL     1     -10.680   8.750  68.816  1.00  0.00    -0.077 C  
HETATM   12  N   UNL     1     -11.259   9.097  69.924  1.00  0.00    -0.402 N  
HETATM   13  O   UNL     1     -11.820   8.593  72.076  1.00  0.00    -0.324 OA 
HETATM   14  H   UNL     1     -11.657  10.034  69.999  1.00  0.00     0.000 HD 
HETATM   15  C   UNL     1     -11.356   8.247  70.999  1.00  0.00    -0.269 C  
BRANCH  11  16
HETATM   16  C   UNL     1     -10.645   9.784  67.710  1.00  0.00    -0.320 A  
HETATM   17  C   UNL     1     -10.055  10.544  65.473  1.00  0.00    -0.349 A  
HETATM   18  C   UNL     1     -10.054   9.532  66.448  1.00  0.00    -0.258 A  
HETATM   19  C   UNL     1     -11.189  11.053  67.973  1.00  0.00    -0.372 A  
HETATM   20  C   UNL     1     -10.606  11.795  65.738  1.00  0.00    -0.312 A  
HETATM   21  C   UNL     1     -11.167  12.044  66.985  1.00  0.00    -0.320 A  
BRANCH  18  22
HETATM   22  O   UNL     1      -9.519   8.290  66.216  1.00  0.00    -0.206 OA 
BRANCH  22  23
HETATM   23  C   UNL     1      -8.249   8.230  65.563  1.00  0.00    -0.138 C  
HETATM   24  C   UNL     1      -7.157   8.562  66.561  1.00  0.00    -0.079 C  
ENDBRANCH  22  23
ENDBRANCH  18  22
BRANCH  21  25
HETATM   25  S   UNL     1     -11.655  13.701  67.387  1.00  0.00    -0.379 S  
HETATM   26  O   UNL     1     -12.285  13.653  68.688  1.00  0.00    -0.339 OA 
HETATM   27  O   UNL     1     -12.361  14.224  66.239  1.00  0.00    -0.443 OA 
BRANCH  25  28
HETATM   28  N   UNL     1     -10.165  14.523  67.550  1.00  0.00    -0.232 N  
HETATM   29  C   UNL     1      -9.691  15.313  66.369  1.00  0.00    -0.285 C  
HETATM   30  C   UNL     1     -10.407  16.682  66.245  1.00  0.00    -0.317 C  
HETATM   31  N   UNL     1     -10.429  17.503  67.478  1.00  0.00    -0.355 NA 
HETATM   32  C   UNL     1     -10.887  16.669  68.612  1.00  0.00    -0.344 C  
HETATM   33  C   UNL     1     -10.085  15.366  68.787  1.00  0.00    -0.213 C  
BRANCH  31  34
HETATM   34  C   UNL     1      -9.129  18.151  67.700  1.00  0.00    -0.259 C  
HETATM   35  C   UNL     1      -8.530  18.774  66.444  1.00  0.00    -0.296 C  
ENDBRANCH  31  34
ENDBRANCH  25  28
ENDBRANCH  21  25
ENDBRANCH  11  16
ENDBRANCH   3   4
ENDBRANCH   2   3
TORSDOF 8
ENDMDL
MODEL       49
REMARK 921   NORMALIZED FREE ENERGY PREDICTED BY IDOCK:   -5.73 KCAL/MOL
REMARK 922        TOTAL FREE ENERGY PREDICTED BY IDOCK:   -9.42 KCAL/MOL
REMARK 923 INTER-LIGAND FREE ENERGY PREDICTED BY IDOCK:   -8.88 KCAL/MOL
REMARK 924 INTRA-LIGAND FREE ENERGY PREDICTED BY IDOCK:   -0.54 KCAL/MOL
REMARK 927      BINDING AFFINITY PREDICTED BY RF-SCORE:    0.00 PKD
ROOT
HETATM    1  C   UNL     1      -6.666   5.159  73.405  1.00  0.00    -0.073 C  
HETATM    2  C   UNL     1      -6.547   5.524  71.930  1.00  0.00    -0.056 C  
ENDROOT
BRANCH   2   3
HETATM    3  C   UNL     1      -7.605   6.521  71.454  1.00  0.00    -0.094 C  
BRANCH   3   4
HETATM    4  C   UNL     1      -8.297   6.089  70.203  1.00  0.00    -0.120 A  
HETATM    5  N   UNL     1      -8.108   4.934  69.593  1.00  0.00    -0.073 NA 
HETATM    6  C   UNL     1      -8.946   4.936  68.505  1.00  0.00    -0.109 A  
HETATM    7  C   UNL     1      -9.645   6.124  68.454  1.00  0.00    -0.118 A  
HETATM    8  C   UNL     1      -9.011   3.776  67.588  1.00  0.00    -0.158 C  
HETATM    9  N   UNL     1      -9.237   6.837  69.531  1.00  0.00    -0.147 NA 
HETATM   10  N   UNL     1      -9.768   8.057  69.848  1.00  0.00    -0.179 NA 
HETATM   11  C   UNL     1     -10.613   8.571  68.871  1.00  0.00    -0.144 C  
HETATM   12  N   UNL     1     -11.011   7.931  67.815  1.00  0.00    -0.498 N  
HETATM   13  O   UNL     1     -11.062   5.998  66.606  1.00  0.00    -0.263 OA 
HETATM   14  H   UNL     1     -11.632   8.403  67.158  1.00  0.00     0.000 HD 
HETATM   15  C   UNL     1     -10.624   6.639  67.551  1.00  0.00    -0.281 C  
BRANCH  11  16
HETATM   16  C   UNL     1     -11.114   9.991  69.039  1.00  0.00    -0.221 A  
HETATM   17  C   UNL     1     -12.030  11.822  70.356  1.00  0.00    -0.422 A  
HETATM   18  C   UNL     1     -11.575  10.495  70.280  1.00  0.00    -0.332 A  
HETATM   19  C   UNL     1     -11.155  10.817  67.904  1.00  0.00    -0.369 A  
HETATM   20  C   UNL     1     -12.057  12.638  69.228  1.00  0.00    -0.218 A  
HETATM   21  C   UNL     1     -11.622  12.131  68.008  1.00  0.00    -0.348 A  
BRANCH  18  22
HETATM   22  O   UNL     1     -11.537   9.668  71.374  1.00  0.00    -0.358 OA 
BRANCH  22  23
HETATM   23  C   UNL     1     -12.767   9.421  72.058  1.00  0.00    -0.403 C  
HETATM   24  C   UNL     1     -13.284   8.048  71.677  1.00  0.00    -0.358 C  
ENDBRANCH  22  23
ENDBRANCH  18  22
BRANCH  21  25
HETATM   25  S   UNL     1     -11.875  13.097  66.543  1.00  0.00    -0.398 S  
HETATM   26  O   UNL     1     -12.623  14.272  66.933  1.00  0.00    -0.233 OA 
HETATM   27  O   UNL     1     -12.378  12.199  65.527  1.00  0.00    -0.548 OA 
BRANCH  25  28
HETATM   28  N   UNL     1     -10.295  13.592  66.118  1.00  0.00    -0.290 N  
HETATM   29  C   UNL     1     -10.164  14.529  64.957  1.00  0.00    -0.365 C  
HETATM   30  C   UNL     1     -10.496  15.995  65.338  1.00  0.00    -0.392 C  
HETATM   31  N   UNL     1      -9.801  16.513  66.540  1.00  0.00    -0.263 NA 
HETATM   32  C   UNL     1      -9.949  15.541  67.646  1.00  0.00    -0.233 C  
HETATM   33  C   UNL     1      -9.503  14.112  67.280  1.00  0.00    -0.229 C  
BRANCH  31  34
HETATM   34  C   UNL     1      -8.407  16.860  66.232  1.00  0.00    -0.296 C  
HETATM   35  C   UNL     1      -8.076  18.332  66.456  1.00  0.00    -0.293 C  
ENDBRANCH  31  34
ENDBRANCH  25  28
ENDBRANCH  21  25
ENDBRANCH  11  16
ENDBRANCH   3   4
ENDBRANCH   2   3
TORSDOF 8
ENDMDL
MODEL       50
REMARK 921   NORMALIZED FREE ENERGY PREDICTED BY IDOCK:   -5.73 KCAL/MOL
REMARK 922        TOTAL FREE ENERGY PREDICTED BY IDOCK:   -9.42 KCAL/MOL
REMARK 923 INTER-LIGAND FREE ENERGY PREDICTED BY IDOCK:   -8.11 KCAL/MOL
REMARK 924 INTRA-LIGAND FREE ENERGY PREDICTED BY IDOCK:   -1.30 KCAL/MOL
REMARK 927      BINDING AFFINITY PREDICTED BY RF-SCORE:    0.00 PKD
ROOT
HETATM    1  C   UNL     1      -8.088   8.723  64.844  1.00  0.00    -0.147 C  
HETATM    2  C   UNL     1      -8.466  10.153  64.478  1.00  0.00    -0.182 C  
ENDROOT
BRANCH   2   3
HETATM    3  C   UNL     1      -9.965  10.355  64.243  1.00  0.00    -0.368 C  
BRANCH   3   4
HETATM    4  C   UNL     1     -10.503  11.579  64.907  1.00  0.00    -0.291 A  
HETATM    5  N   UNL     1     -10.747  12.725  64.298  1.00  0.00    -0.369 NA 
HETATM    6  C   UNL     1     -11.245  13.569  65.260  1.00  0.00    -0.292 A  
HETATM    7  C   UNL     1     -11.290  12.919  66.476  1.00  0.00    -0.318 A  
HETATM    8  C   UNL     1     -11.646  14.954  64.928  1.00  0.00    -0.395 C  
HETATM    9  N   UNL     1     -10.832  11.667  66.241  1.00  0.00    -0.277 NA 
HETATM   10  N   UNL     1     -10.793  10.704  67.212  1.00  0.00    -0.286 NA 
HETATM   11  C   UNL     1     -11.085  11.181  68.484  1.00  0.00    -0.244 C  
HETATM   12  N   UNL     1     -11.505  12.378  68.756  1.00  0.00    -0.279 N  
HETATM   13  O   UNL     1     -12.191  14.422  68.015  1.00  0.00    -0.281 OA 
HETATM   14  H   UNL     1     -11.688  12.626  69.728  1.00  0.00     0.000 HD 
HETATM   15  C   UNL     1     -11.712  13.322  67.780  1.00  0.00    -0.358 C  
BRANCH  11  16
HETATM   16  C   UNL     1     -10.898  10.239  69.656  1.00  0.00    -0.311 A  
HETATM   17  C   UNL     1     -11.554   9.296  71.803  1.00  0.00    -0.458 A  
HETATM   18  C   UNL     1     -11.798  10.192  70.748  1.00  0.00    -0.351 A  
HETATM   19  C   UNL     1      -9.761   9.414  69.667  1.00  0.00    -0.202 A  
HETATM   20  C   UNL     1     -10.431   8.473  71.800  1.00  0.00    -0.370 A  
HETATM   21  C   UNL     1      -9.540   8.537  70.735  1.00  0.00    -0.180 A  
BRANCH  18  22
HETATM   22  O   UNL     1     -12.896  11.015  70.723  1.00  0.00    -0.322 OA 
BRANCH  22  23
HETATM   23  C   UNL     1     -13.279  11.641  71.949  1.00  0.00    -0.369 C  
HETATM   24  C   UNL     1     -12.950  13.120  71.879  1.00  0.00    -0.414 C  
ENDBRANCH  22  23
ENDBRANCH  18  22
BRANCH  21  25
HETATM   25  S   UNL     1      -8.004   7.659  70.853  1.00  0.00    -0.096 S  
HETATM   26  O   UNL     1      -7.487   7.884  72.184  1.00  0.00    -0.073 OA 
HETATM   27  O   UNL     1      -7.227   8.009  69.684  1.00  0.00    -0.063 OA 
BRANCH  25  28
HETATM   28  N   UNL     1      -8.476   6.020  70.738  1.00  0.00    -0.129 N  
HETATM   29  C   UNL     1      -9.468   5.670  69.672  1.00  0.00    -0.140 C  
HETATM   30  C   UNL     1      -8.816   5.556  68.270  1.00  0.00    -0.104 C  
HETATM   31  N   UNL     1      -7.609   4.699  68.197  1.00  0.00    -0.076 NA 
HETATM   32  C   UNL     1      -6.676   5.077  69.282  1.00  0.00    -0.052 C  
HETATM   33  C   UNL     1      -7.318   5.071  70.682  1.00  0.00    -0.065 C  
BRANCH  31  34
HETATM   34  C   UNL     1      -7.976   3.276  68.193  1.00  0.00    -0.070 C  
HETATM   35  C   UNL     1      -9.003   2.909  67.127  1.00  0.00    -0.181 C  
ENDBRANCH  31  34
ENDBRANCH  25  28
ENDBRANCH  21  25
ENDBRANCH  11  16
ENDBRANCH   3   4
ENDBRANCH   2   3
TORSDOF 8
ENDMDL
MODEL       51
REMARK 921   NORMALIZED FREE ENERGY PREDICTED BY IDOCK:   -5.73 KCAL/MOL
REMARK 922        TOTAL FREE ENERGY PREDICTED BY IDOCK:   -9.41 KCAL/MOL
REMARK 923 INTER-LIGAND FREE ENERGY PREDICTED BY IDOCK:   -8.66 KCAL/MOL
REMARK 924 INTRA-LIGAND FREE ENERGY PREDICTED BY IDOCK:   -0.75 KCAL/MOL
REMARK 927      BINDING AFFINITY PREDICTED BY RF-SCORE:    0.00 PKD
ROOT
HETATM    1  C   UNL     1     -13.342   9.113  72.317  1.00  0.00    -0.540 C  
HETATM    2  C   UNL     1     -12.029   8.368  72.111  1.00  0.00    -0.438 C  
ENDROOT
BRANCH   2   3
HETATM    3  C   UNL     1     -10.901   9.245  71.564  1.00  0.00    -0.442 C  
BRANCH   3   4
HETATM    4  C   UNL     1     -10.773   9.179  70.078  1.00  0.00    -0.232 A  
HETATM    5  N   UNL     1     -10.783   8.068  69.366  1.00  0.00    -0.201 NA 
HETATM    6  C   UNL     1     -10.660   8.455  68.054  1.00  0.00    -0.130 A  
HETATM    7  C   UNL     1     -10.565   9.829  67.978  1.00  0.00    -0.243 A  
HETATM    8  C   UNL     1     -10.648   7.458  66.961  1.00  0.00    -0.414 C  
HETATM    9  N   UNL     1     -10.647  10.274  69.254  1.00  0.00    -0.214 NA 
HETATM   10  N   UNL     1     -10.653  11.606  69.568  1.00  0.00     0.030 NA 
HETATM   11  C   UNL     1     -10.380  12.437  68.489  1.00  0.00    -0.221 C  
HETATM   12  N   UNL     1     -10.272  12.049  67.255  1.00  0.00    -0.203 N  
HETATM   13  O   UNL     1     -10.411  10.373  65.716  1.00  0.00    -0.248 OA 
HETATM   14  H   UNL     1     -10.067  12.744  66.537  1.00  0.00     0.000 HD 
HETATM   15  C   UNL     1     -10.423  10.736  66.883  1.00  0.00    -0.252 C  
BRANCH  11  16
HETATM   16  C   UNL     1     -10.188  13.915  68.760  1.00  0.00    -0.188 A  
HETATM   17  C   UNL     1     -10.962  16.098  69.511  1.00  0.00    -0.341 A  
HETATM   18  C   UNL     1     -11.214  14.733  69.292  1.00  0.00    -0.283 A  
HETATM   19  C   UNL     1      -8.950  14.493  68.430  1.00  0.00    -0.186 A  
HETATM   20  C   UNL     1      -9.729  16.661  69.192  1.00  0.00    -0.226 A  
HETATM   21  C   UNL     1      -8.731  15.857  68.651  1.00  0.00    -0.199 A  
BRANCH  18  22
HETATM   22  O   UNL     1     -12.419  14.151  69.597  1.00  0.00    -0.310 OA 
BRANCH  22  23
HETATM   23  C   UNL     1     -12.769  14.045  70.978  1.00  0.00    -0.361 C  
HETATM   24  C   UNL     1     -13.857  15.052  71.297  1.00  0.00    -0.528 C  
ENDBRANCH  22  23
ENDBRANCH  18  22
BRANCH  21  25
HETATM   25  S   UNL     1      -7.255  16.625  68.037  1.00  0.00    -0.159 S  
HETATM   26  O   UNL     1      -6.802  15.834  66.914  1.00  0.00    -0.248 OA 
HETATM   27  O   UNL     1      -6.396  16.858  69.177  1.00  0.00    -0.178 OA 
BRANCH  25  28
HETATM   28  N   UNL     1      -7.810  18.127  67.439  1.00  0.00    -0.216 N  
HETATM   29  C   UNL     1      -7.195  19.361  68.023  1.00  0.00    -0.273 C  
HETATM   30  C   UNL     1      -5.797  19.666  67.427  1.00  0.00    -0.184 C  
HETATM   31  N   UNL     1      -5.722  19.666  65.947  1.00  0.00    -0.162 NA 
HETATM   32  C   UNL     1      -6.358  18.435  65.427  1.00  0.00    -0.238 C  
HETATM   33  C   UNL     1      -7.792  18.212  65.942  1.00  0.00    -0.053 C  
BRANCH  31  34
HETATM   34  C   UNL     1      -6.279  20.907  65.394  1.00  0.00    -0.224 C  
HETATM   35  C   UNL     1      -6.109  21.038  63.884  1.00  0.00    -0.358 C  
ENDBRANCH  31  34
ENDBRANCH  25  28
ENDBRANCH  21  25
ENDBRANCH  11  16
ENDBRANCH   3   4
ENDBRANCH   2   3
TORSDOF 8
ENDMDL
MODEL       52
REMARK 921   NORMALIZED FREE ENERGY PREDICTED BY IDOCK:   -5.73 KCAL/MOL
REMARK 922        TOTAL FREE ENERGY PREDICTED BY IDOCK:   -9.41 KCAL/MOL
REMARK 923 INTER-LIGAND FREE ENERGY PREDICTED BY IDOCK:   -8.51 KCAL/MOL
REMARK 924 INTRA-LIGAND FREE ENERGY PREDICTED BY IDOCK:   -0.90 KCAL/MOL
REMARK 927      BINDING AFFINITY PREDICTED BY RF-SCORE:    0.00 PKD
ROOT
HETATM    1  C   UNL     1     -10.319  19.907  66.729  1.00  0.00    -0.599 C  
HETATM    2  C   UNL     1     -10.884  18.686  67.445  1.00  0.00    -0.381 C  
ENDROOT
BRANCH   2   3
HETATM    3  C   UNL     1     -10.076  18.261  68.672  1.00  0.00    -0.407 C  
BRANCH   3   4
HETATM    4  C   UNL     1      -8.719  17.741  68.330  1.00  0.00    -0.292 A  
HETATM    5  N   UNL     1      -7.637  18.484  68.189  1.00  0.00    -0.266 NA 
HETATM    6  C   UNL     1      -6.614  17.616  67.896  1.00  0.00    -0.187 A  
HETATM    7  C   UNL     1      -7.094  16.324  67.850  1.00  0.00    -0.133 A  
HETATM    8  C   UNL     1      -5.233  18.106  67.685  1.00  0.00    -0.143 C  
HETATM    9  N   UNL     1      -8.415  16.413  68.134  1.00  0.00    -0.183 NA 
HETATM   10  N   UNL     1      -9.219  15.311  68.243  1.00  0.00    -0.186 NA 
HETATM   11  C   UNL     1      -8.602  14.128  67.854  1.00  0.00    -0.178 C  
HETATM   12  N   UNL     1      -7.346  14.004  67.552  1.00  0.00    -0.199 N  
HETATM   13  O   UNL     1      -5.273  14.940  67.396  1.00  0.00    -0.335 OA 
HETATM   14  H   UNL     1      -6.995  13.086  67.277  1.00  0.00     0.000 HD 
HETATM   15  C   UNL     1      -6.474  15.064  67.592  1.00  0.00    -0.150 C  
BRANCH  11  16
HETATM   16  C   UNL     1      -9.453  12.878  67.766  1.00  0.00    -0.202 A  
HETATM   17  C   UNL     1     -11.101  11.451  66.681  1.00  0.00    -0.333 A  
HETATM   18  C   UNL     1     -10.339  12.632  66.689  1.00  0.00    -0.236 A  
HETATM   19  C   UNL     1      -9.381  11.953  68.821  1.00  0.00     0.013 A  
HETATM   20  C   UNL     1     -11.015  10.534  67.725  1.00  0.00    -0.372 A  
HETATM   21  C   UNL     1     -10.159  10.790  68.790  1.00  0.00    -0.191 A  
BRANCH  18  22
HETATM   22  O   UNL     1     -10.403  13.553  65.674  1.00  0.00    -0.284 OA 
BRANCH  22  23
HETATM   23  C   UNL     1     -11.281  13.274  64.583  1.00  0.00    -0.348 C  
HETATM   24  C   UNL     1     -12.217  14.449  64.380  1.00  0.00    -0.481 C  
ENDBRANCH  22  23
ENDBRANCH  18  22
BRANCH  21  25
HETATM   25  S   UNL     1     -10.228   9.736  70.215  1.00  0.00    -0.274 S  
HETATM   26  O   UNL     1     -11.338  10.190  71.024  1.00  0.00    -0.347 OA 
HETATM   27  O   UNL     1      -8.889   9.672  70.758  1.00  0.00    -0.202 OA 
BRANCH  25  28
HETATM   28  N   UNL     1     -10.639   8.212  69.559  1.00  0.00    -0.227 N  
HETATM   29  C   UNL     1      -9.516   7.375  69.027  1.00  0.00    -0.148 C  
HETATM   30  C   UNL     1      -8.729   6.655  70.152  1.00  0.00    -0.141 C  
HETATM   31  N   UNL     1      -9.556   5.905  71.127  1.00  0.00    -0.168 NA 
HETATM   32  C   UNL     1     -10.656   6.773  71.604  1.00  0.00    -0.214 C  
HETATM   33  C   UNL     1     -11.498   7.387  70.469  1.00  0.00    -0.255 C  
BRANCH  31  34
HETATM   34  C   UNL     1     -10.006   4.626  70.559  1.00  0.00    -0.225 C  
HETATM   35  C   UNL     1      -9.638   3.413  71.407  1.00  0.00    -0.236 C  
ENDBRANCH  31  34
ENDBRANCH  25  28
ENDBRANCH  21  25
ENDBRANCH  11  16
ENDBRANCH   3   4
ENDBRANCH   2   3
TORSDOF 8
ENDMDL
MODEL       53
REMARK 921   NORMALIZED FREE ENERGY PREDICTED BY IDOCK:   -5.72 KCAL/MOL
REMARK 922        TOTAL FREE ENERGY PREDICTED BY IDOCK:   -9.40 KCAL/MOL
REMARK 923 INTER-LIGAND FREE ENERGY PREDICTED BY IDOCK:   -8.44 KCAL/MOL
REMARK 924 INTRA-LIGAND FREE ENERGY PREDICTED BY IDOCK:   -0.95 KCAL/MOL
REMARK 927      BINDING AFFINITY PREDICTED BY RF-SCORE:    0.00 PKD
ROOT
HETATM    1  C   UNL     1     -12.855   9.870  71.216  1.00  0.00    -0.486 C  
HETATM    2  C   UNL     1     -13.264   8.784  72.203  1.00  0.00    -0.456 C  
ENDROOT
BRANCH   2   3
HETATM    3  C   UNL     1     -13.444   7.405  71.564  1.00  0.00    -0.445 C  
BRANCH   3   4
HETATM    4  C   UNL     1     -12.188   6.599  71.542  1.00  0.00    -0.340 A  
HETATM    5  N   UNL     1     -11.826   5.735  72.471  1.00  0.00    -0.250 NA 
HETATM    6  C   UNL     1     -10.628   5.207  72.055  1.00  0.00    -0.200 A  
HETATM    7  C   UNL     1     -10.258   5.775  70.855  1.00  0.00    -0.216 A  
HETATM    8  C   UNL     1      -9.927   4.180  72.857  1.00  0.00    -0.202 C  
HETATM    9  N   UNL     1     -11.249   6.640  70.536  1.00  0.00    -0.309 NA 
HETATM   10  N   UNL     1     -11.258   7.348  69.365  1.00  0.00    -0.023 NA 
HETATM   11  C   UNL     1     -10.080   7.238  68.636  1.00  0.00    -0.176 C  
HETATM   12  N   UNL     1      -9.098   6.439  68.918  1.00  0.00    -0.130 N  
HETATM   13  O   UNL     1      -8.248   4.775  70.224  1.00  0.00    -0.077 OA 
HETATM   14  H   UNL     1      -8.275   6.439  68.315  1.00  0.00     0.000 HD 
HETATM   15  C   UNL     1      -9.128   5.594  70.000  1.00  0.00    -0.137 C  
BRANCH  11  16
HETATM   16  C   UNL     1      -9.916   8.119  67.414  1.00  0.00    -0.271 A  
HETATM   17  C   UNL     1      -8.949   8.655  65.245  1.00  0.00    -0.150 A  
HETATM   18  C   UNL     1      -9.053   7.784  66.343  1.00  0.00    -0.175 A  
HETATM   19  C   UNL     1     -10.622   9.333  67.374  1.00  0.00    -0.324 A  
HETATM   20  C   UNL     1      -9.661   9.851  65.207  1.00  0.00    -0.383 A  
HETATM   21  C   UNL     1     -10.491  10.185  66.271  1.00  0.00    -0.122 A  
BRANCH  18  22
HETATM   22  O   UNL     1      -8.364   6.599  66.407  1.00  0.00    -0.112 OA 
BRANCH  22  23
HETATM   23  C   UNL     1      -8.659   5.609  65.421  1.00  0.00    -0.150 C  
HETATM   24  C   UNL     1      -7.363   5.077  64.842  1.00  0.00    -0.067 C  
ENDBRANCH  22  23
ENDBRANCH  18  22
BRANCH  21  25
HETATM   25  S   UNL     1     -11.210  11.806  66.319  1.00  0.00    -0.273 S  
HETATM   26  O   UNL     1     -12.047  11.864  67.496  1.00  0.00    -0.573 OA 
HETATM   27  O   UNL     1     -11.756  12.063  65.005  1.00  0.00    -0.326 OA 
BRANCH  25  28
HETATM   28  N   UNL     1      -9.864  12.828  66.574  1.00  0.00    -0.252 N  
HETATM   29  C   UNL     1      -9.878  14.157  65.885  1.00  0.00    -0.289 C  
HETATM   30  C   UNL     1     -10.773  15.193  66.612  1.00  0.00    -0.310 C  
HETATM   31  N   UNL     1     -10.530  15.334  68.067  1.00  0.00    -0.244 NA 
HETATM   32  C   UNL     1     -10.510  13.991  68.691  1.00  0.00    -0.247 C  
HETATM   33  C   UNL     1      -9.526  13.013  68.023  1.00  0.00    -0.217 C  
BRANCH  31  34
HETATM   34  C   UNL     1      -9.322  16.130  68.323  1.00  0.00    -0.205 C  
HETATM   35  C   UNL     1      -9.545  17.635  68.218  1.00  0.00    -0.306 C  
ENDBRANCH  31  34
ENDBRANCH  25  28
ENDBRANCH  21  25
ENDBRANCH  11  16
ENDBRANCH   3   4
ENDBRANCH   2   3
TORSDOF 8
ENDMDL
MODEL       54
REMARK 921   NORMALIZED FREE ENERGY PREDICTED BY IDOCK:   -5.71 KCAL/MOL
REMARK 922        TOTAL FREE ENERGY PREDICTED BY IDOCK:   -9.40 KCAL/MOL
REMARK 923 INTER-LIGAND FREE ENERGY PREDICTED BY IDOCK:   -8.46 KCAL/MOL
REMARK 924 INTRA-LIGAND FREE ENERGY PREDICTED BY IDOCK:   -0.93 KCAL/MOL
REMARK 927      BINDING AFFINITY PREDICTED BY RF-SCORE:    0.00 PKD
ROOT
HETATM    1  C   UNL     1     -13.572   8.995  72.064  1.00  0.00    -0.500 C  
HETATM    2  C   UNL     1     -12.186   8.564  72.528  1.00  0.00    -0.383 C  
ENDROOT
BRANCH   2   3
HETATM    3  C   UNL     1     -11.103   8.710  71.458  1.00  0.00    -0.358 C  
BRANCH   3   4
HETATM    4  C   UNL     1     -10.718   7.412  70.830  1.00  0.00    -0.235 A  
HETATM    5  N   UNL     1     -10.677   6.250  71.456  1.00  0.00    -0.237 NA 
HETATM    6  C   UNL     1     -10.297   5.324  70.516  1.00  0.00    -0.266 A  
HETATM    7  C   UNL     1     -10.094   5.945  69.302  1.00  0.00    -0.194 A  
HETATM    8  C   UNL     1     -10.160   3.893  70.866  1.00  0.00    -0.009 C  
HETATM    9  N   UNL     1     -10.371   7.254  69.507  1.00  0.00    -0.218 NA 
HETATM   10  N   UNL     1     -10.340   8.179  68.499  1.00  0.00    -0.208 NA 
HETATM   11  C   UNL     1      -9.822   7.689  67.306  1.00  0.00    -0.186 C  
HETATM   12  N   UNL     1      -9.523   6.448  67.075  1.00  0.00    -0.134 N  
HETATM   13  O   UNL     1      -9.502   4.280  67.780  1.00  0.00    -0.150 OA 
HETATM   14  H   UNL     1      -9.145   6.195  66.161  1.00  0.00     0.000 HD 
HETATM   15  C   UNL     1      -9.697   5.463  68.017  1.00  0.00    -0.136 C  
BRANCH  11  16
HETATM   16  C   UNL     1      -9.578   8.672  66.180  1.00  0.00    -0.305 A  
HETATM   17  C   UNL     1      -8.376   9.460  64.214  1.00  0.00    -0.176 A  
HETATM   18  C   UNL     1      -8.544   8.501  65.228  1.00  0.00    -0.165 A  
HETATM   19  C   UNL     1     -10.393   9.815  66.112  1.00  0.00    -0.215 A  
HETATM   20  C   UNL     1      -9.195  10.584  64.147  1.00  0.00    -0.283 A  
HETATM   21  C   UNL     1     -10.196  10.758  65.096  1.00  0.00    -0.298 A  
BRANCH  18  22
HETATM   22  O   UNL     1      -7.753   7.384  65.320  1.00  0.00    -0.098 OA 
BRANCH  22  23
HETATM   23  C   UNL     1      -6.364   7.579  65.594  1.00  0.00    -0.042 C  
HETATM   24  C   UNL     1      -5.755   6.267  66.046  1.00  0.00    -0.024 C  
ENDBRANCH  22  23
ENDBRANCH  18  22
BRANCH  21  25
HETATM   25  S   UNL     1     -11.077  12.296  65.138  1.00  0.00    -0.327 S  
HETATM   26  O   UNL     1     -12.242  12.096  65.971  1.00  0.00    -0.609 OA 
HETATM   27  O   UNL     1     -11.210  12.744  63.769  1.00  0.00    -0.407 OA 
BRANCH  25  28
HETATM   28  N   UNL     1     -10.007  13.341  65.966  1.00  0.00    -0.294 N  
HETATM   29  C   UNL     1      -9.921  14.755  65.477  1.00  0.00    -0.356 C  
HETATM   30  C   UNL     1     -11.110  15.623  65.963  1.00  0.00    -0.136 C  
HETATM   31  N   UNL     1     -11.389  15.563  67.417  1.00  0.00    -0.261 NA 
HETATM   32  C   UNL     1     -11.445  14.147  67.846  1.00  0.00    -0.312 C  
HETATM   33  C   UNL     1     -10.199  13.331  67.452  1.00  0.00    -0.229 C  
BRANCH  31  34
HETATM   34  C   UNL     1     -10.426  16.378  68.170  1.00  0.00    -0.302 C  
HETATM   35  C   UNL     1     -10.476  17.863  67.827  1.00  0.00    -0.409 C  
ENDBRANCH  31  34
ENDBRANCH  25  28
ENDBRANCH  21  25
ENDBRANCH  11  16
ENDBRANCH   3   4
ENDBRANCH   2   3
TORSDOF 8
ENDMDL
MODEL       55
REMARK 921   NORMALIZED FREE ENERGY PREDICTED BY IDOCK:   -5.71 KCAL/MOL
REMARK 922        TOTAL FREE ENERGY PREDICTED BY IDOCK:   -9.39 KCAL/MOL
REMARK 923 INTER-LIGAND FREE ENERGY PREDICTED BY IDOCK:   -8.69 KCAL/MOL
REMARK 924 INTRA-LIGAND FREE ENERGY PREDICTED BY IDOCK:   -0.69 KCAL/MOL
REMARK 927      BINDING AFFINITY PREDICTED BY RF-SCORE:    0.00 PKD
ROOT
HETATM    1  C   UNL     1     -11.217  11.754  63.515  1.00  0.00    -0.494 C  
HETATM    2  C   UNL     1     -12.158  12.952  63.550  1.00  0.00    -0.633 C  
ENDROOT
BRANCH   2   3
HETATM    3  C   UNL     1     -12.503  13.425  64.964  1.00  0.00    -0.479 C  
BRANCH   3   4
HETATM    4  C   UNL     1     -11.301  13.783  65.774  1.00  0.00    -0.304 A  
HETATM    5  N   UNL     1     -10.679  14.946  65.733  1.00  0.00    -0.314 NA 
HETATM    6  C   UNL     1      -9.649  14.859  66.637  1.00  0.00    -0.266 A  
HETATM    7  C   UNL     1      -9.646  13.612  67.225  1.00  0.00    -0.238 A  
HETATM    8  C   UNL     1      -8.738  16.002  66.869  1.00  0.00    -0.259 C  
HETATM    9  N   UNL     1     -10.693  12.947  66.683  1.00  0.00    -0.263 NA 
HETATM   10  N   UNL     1     -11.046  11.685  67.077  1.00  0.00    -0.287 NA 
HETATM   11  C   UNL     1     -10.128  11.090  67.934  1.00  0.00    -0.178 C  
HETATM   12  N   UNL     1      -9.100  11.684  68.458  1.00  0.00    -0.274 N  
HETATM   13  O   UNL     1      -7.896  13.595  68.767  1.00  0.00    -0.123 OA 
HETATM   14  H   UNL     1      -8.486  11.151  69.075  1.00  0.00     0.000 HD 
HETATM   15  C   UNL     1      -8.810  13.003  68.210  1.00  0.00    -0.172 C  
BRANCH  11  16
HETATM   16  C   UNL     1     -10.330   9.631  68.290  1.00  0.00    -0.240 A  
HETATM   17  C   UNL     1     -10.446   7.263  67.737  1.00  0.00    -0.292 A  
HETATM   18  C   UNL     1     -10.240   8.593  67.331  1.00  0.00    -0.262 A  
HETATM   19  C   UNL     1     -10.657   9.313  69.619  1.00  0.00    -0.241 A  
HETATM   20  C   UNL     1     -10.758   6.955  69.059  1.00  0.00    -0.259 A  
HETATM   21  C   UNL     1     -10.865   7.981  69.991  1.00  0.00    -0.235 A  
BRANCH  18  22
HETATM   22  O   UNL     1      -9.930   8.926  66.037  1.00  0.00    -0.270 OA 
BRANCH  22  23
HETATM   23  C   UNL     1      -8.726   8.389  65.487  1.00  0.00    -0.162 C  
HETATM   24  C   UNL     1      -7.566   9.299  65.841  1.00  0.00    -0.098 C  
ENDBRANCH  22  23
ENDBRANCH  18  22
BRANCH  21  25
HETATM   25  S   UNL     1     -11.486   7.603  71.609  1.00  0.00    -0.271 S  
HETATM   26  O   UNL     1     -12.239   6.373  71.497  1.00  0.00    -0.312 OA 
HETATM   27  O   UNL     1     -12.104   8.809  72.116  1.00  0.00    -0.347 OA 
BRANCH  25  28
HETATM   28  N   UNL     1     -10.071   7.279  72.510  1.00  0.00    -0.179 N  
HETATM   29  C   UNL     1     -10.255   6.771  73.907  1.00  0.00    -0.367 C  
HETATM   30  C   UNL     1     -10.599   5.260  73.948  1.00  0.00    -0.292 C  
HETATM   31  N   UNL     1      -9.703   4.381  73.160  1.00  0.00    -0.133 NA 
HETATM   32  C   UNL     1      -9.545   4.940  71.798  1.00  0.00    -0.156 C  
HETATM   33  C   UNL     1      -9.089   6.411  71.781  1.00  0.00    -0.143 C  
BRANCH  31  34
HETATM   34  C   UNL     1      -8.434   4.157  73.866  1.00  0.00    -0.091 C  
HETATM   35  C   UNL     1      -7.465   3.250  73.116  1.00  0.00    -0.055 C  
ENDBRANCH  31  34
ENDBRANCH  25  28
ENDBRANCH  21  25
ENDBRANCH  11  16
ENDBRANCH   3   4
ENDBRANCH   2   3
TORSDOF 8
ENDMDL
MODEL       56
REMARK 921   NORMALIZED FREE ENERGY PREDICTED BY IDOCK:   -5.70 KCAL/MOL
REMARK 922        TOTAL FREE ENERGY PREDICTED BY IDOCK:   -9.38 KCAL/MOL
REMARK 923 INTER-LIGAND FREE ENERGY PREDICTED BY IDOCK:   -7.99 KCAL/MOL
REMARK 924 INTRA-LIGAND FREE ENERGY PREDICTED BY IDOCK:   -1.38 KCAL/MOL
REMARK 927      BINDING AFFINITY PREDICTED BY RF-SCORE:    0.00 PKD
ROOT
HETATM    1  C   UNL     1     -11.839   8.384  71.347  1.00  0.00    -0.339 C  
HETATM    2  C   UNL     1     -12.001   6.886  71.120  1.00  0.00    -0.413 C  
ENDROOT
BRANCH   2   3
HETATM    3  C   UNL     1     -11.516   6.413  69.748  1.00  0.00    -0.468 C  
BRANCH   3   4
HETATM    4  C   UNL     1     -10.048   6.598  69.548  1.00  0.00    -0.177 A  
HETATM    5  N   UNL     1      -9.107   5.918  70.176  1.00  0.00    -0.144 NA 
HETATM    6  C   UNL     1      -7.911   6.384  69.689  1.00  0.00    -0.108 A  
HETATM    7  C   UNL     1      -8.138   7.373  68.755  1.00  0.00    -0.128 A  
HETATM    8  C   UNL     1      -6.624   5.830  70.165  1.00  0.00    -0.047 C  
HETATM    9  N   UNL     1      -9.484   7.492  68.667  1.00  0.00    -0.146 NA 
HETATM   10  N   UNL     1     -10.090   8.342  67.782  1.00  0.00    -0.194 NA 
HETATM   11  C   UNL     1      -9.206   9.194  67.130  1.00  0.00    -0.133 C  
HETATM   12  N   UNL     1      -7.912   9.128  67.204  1.00  0.00    -0.105 N  
HETATM   13  O   UNL     1      -6.052   8.052  67.965  1.00  0.00    -0.043 OA 
HETATM   14  H   UNL     1      -7.355   9.806  66.684  1.00  0.00     0.000 HD 
HETATM   15  C   UNL     1      -7.268   8.178  67.958  1.00  0.00    -0.094 C  
BRANCH  11  16
HETATM   16  C   UNL     1      -9.786  10.292  66.263  1.00  0.00    -0.276 A  
HETATM   17  C   UNL     1     -10.342  11.288  64.112  1.00  0.00    -0.410 A  
HETATM   18  C   UNL     1      -9.790  10.226  64.849  1.00  0.00    -0.336 A  
HETATM   19  C   UNL     1     -10.302  11.434  66.899  1.00  0.00    -0.262 A  
HETATM   20  C   UNL     1     -10.862  12.412  64.750  1.00  0.00    -0.340 A  
HETATM   21  C   UNL     1     -10.836  12.480  66.139  1.00  0.00    -0.272 A  
BRANCH  18  22
HETATM   22  O   UNL     1      -9.272   9.107  64.247  1.00  0.00    -0.059 OA 
BRANCH  22  23
HETATM   23  C   UNL     1      -8.363   9.302  63.162  1.00  0.00    -0.196 C  
HETATM   24  C   UNL     1      -7.020   9.745  63.708  1.00  0.00    -0.119 C  
ENDBRANCH  22  23
ENDBRANCH  18  22
BRANCH  21  25
HETATM   25  S   UNL     1     -11.286  14.004  66.927  1.00  0.00    -0.324 S  
HETATM   26  O   UNL     1     -12.731  14.053  66.961  1.00  0.00    -0.071 OA 
HETATM   27  O   UNL     1     -10.521  15.052  66.288  1.00  0.00    -0.285 OA 
BRANCH  25  28
HETATM   28  N   UNL     1     -10.725  13.801  68.529  1.00  0.00    -0.256 N  
HETATM   29  C   UNL     1      -9.857  14.885  69.089  1.00  0.00    -0.199 C  
HETATM   30  C   UNL     1     -10.675  16.117  69.555  1.00  0.00    -0.313 C  
HETATM   31  N   UNL     1     -11.821  15.820  70.446  1.00  0.00    -0.356 NA 
HETATM   32  C   UNL     1     -12.631  14.733  69.852  1.00  0.00    -0.174 C  
HETATM   33  C   UNL     1     -11.817  13.473  69.503  1.00  0.00    -0.334 C  
BRANCH  31  34
HETATM   34  C   UNL     1     -11.365  15.547  71.815  1.00  0.00    -0.384 C  
HETATM   35  C   UNL     1     -12.500  15.335  72.811  1.00  0.00    -0.490 C  
ENDBRANCH  31  34
ENDBRANCH  25  28
ENDBRANCH  21  25
ENDBRANCH  11  16
ENDBRANCH   3   4
ENDBRANCH   2   3
TORSDOF 8
ENDMDL
MODEL       57
REMARK 921   NORMALIZED FREE ENERGY PREDICTED BY IDOCK:   -5.69 KCAL/MOL
REMARK 922        TOTAL FREE ENERGY PREDICTED BY IDOCK:   -9.36 KCAL/MOL
REMARK 923 INTER-LIGAND FREE ENERGY PREDICTED BY IDOCK:   -8.25 KCAL/MOL
REMARK 924 INTRA-LIGAND FREE ENERGY PREDICTED BY IDOCK:   -1.11 KCAL/MOL
REMARK 927      BINDING AFFINITY PREDICTED BY RF-SCORE:    0.00 PKD
ROOT
HETATM    1  C   UNL     1     -14.256   7.180  71.374  1.00  0.00    -0.414 C  
HETATM    2  C   UNL     1     -12.767   7.130  71.691  1.00  0.00    -0.415 C  
ENDROOT
BRANCH   2   3
HETATM    3  C   UNL     1     -11.940   8.175  70.938  1.00  0.00    -0.195 C  
BRANCH   3   4
HETATM    4  C   UNL     1     -10.850   7.576  70.112  1.00  0.00    -0.249 A  
HETATM    5  N   UNL     1     -10.274   6.412  70.346  1.00  0.00    -0.188 NA 
HETATM    6  C   UNL     1      -9.349   6.237  69.347  1.00  0.00    -0.140 A  
HETATM    7  C   UNL     1      -9.361   7.325  68.500  1.00  0.00    -0.141 A  
HETATM    8  C   UNL     1      -8.515   5.016  69.283  1.00  0.00    -0.091 C  
HETATM    9  N   UNL     1     -10.315   8.156  68.984  1.00  0.00    -0.218 NA 
HETATM   10  N   UNL     1     -10.659   9.323  68.358  1.00  0.00    -0.212 NA 
HETATM   11  C   UNL     1      -9.819   9.661  67.304  1.00  0.00    -0.175 C  
HETATM   12  N   UNL     1      -8.880   8.905  66.824  1.00  0.00    -0.122 N  
HETATM   13  O   UNL     1      -7.795   6.900  66.826  1.00  0.00    -0.103 OA 
HETATM   14  H   UNL     1      -8.318   9.252  66.046  1.00  0.00     0.000 HD 
HETATM   15  C   UNL     1      -8.616   7.654  67.327  1.00  0.00    -0.121 C  
BRANCH  11  16
HETATM   16  C   UNL     1     -10.001  11.019  66.656  1.00  0.00    -0.249 A  
HETATM   17  C   UNL     1     -10.293  12.478  64.729  1.00  0.00    -0.331 A  
HETATM   18  C   UNL     1     -10.133  11.184  65.256  1.00  0.00    -0.276 A  
HETATM   19  C   UNL     1      -9.998  12.153  67.486  1.00  0.00    -0.202 A  
HETATM   20  C   UNL     1     -10.301  13.595  65.559  1.00  0.00    -0.319 A  
HETATM   21  C   UNL     1     -10.150  13.428  66.931  1.00  0.00    -0.255 A  
BRANCH  18  22
HETATM   22  O   UNL     1     -10.122  10.065  64.463  1.00  0.00    -0.243 OA 
BRANCH  22  23
HETATM   23  C   UNL     1      -9.346  10.112  63.265  1.00  0.00    -0.294 C  
HETATM   24  C   UNL     1      -8.038   9.377  63.486  1.00  0.00    -0.157 C  
ENDBRANCH  22  23
ENDBRANCH  18  22
BRANCH  21  25
HETATM   25  S   UNL     1      -9.931  14.865  67.947  1.00  0.00    -0.220 S  
HETATM   26  O   UNL     1      -9.501  15.938  67.078  1.00  0.00    -0.215 OA 
HETATM   27  O   UNL     1      -9.130  14.460  69.082  1.00  0.00    -0.061 OA 
BRANCH  25  28
HETATM   28  N   UNL     1     -11.516  15.218  68.481  1.00  0.00    -0.327 N  
HETATM   29  C   UNL     1     -12.387  14.055  68.844  1.00  0.00    -0.071 C  
HETATM   30  C   UNL     1     -12.064  13.490  70.252  1.00  0.00    -0.355 C  
HETATM   31  N   UNL     1     -12.006  14.492  71.342  1.00  0.00    -0.346 NA 
HETATM   32  C   UNL     1     -11.149  15.623  70.920  1.00  0.00    -0.338 C  
HETATM   33  C   UNL     1     -11.560  16.244  69.572  1.00  0.00    -0.169 C  
BRANCH  31  34
HETATM   34  C   UNL     1     -13.357  14.890  71.761  1.00  0.00    -0.361 C  
HETATM   35  C   UNL     1     -13.383  15.733  73.032  1.00  0.00    -0.679 C  
ENDBRANCH  31  34
ENDBRANCH  25  28
ENDBRANCH  21  25
ENDBRANCH  11  16
ENDBRANCH   3   4
ENDBRANCH   2   3
TORSDOF 8
ENDMDL
MODEL       58
REMARK 921   NORMALIZED FREE ENERGY PREDICTED BY IDOCK:   -5.67 KCAL/MOL
REMARK 922        TOTAL FREE ENERGY PREDICTED BY IDOCK:   -9.33 KCAL/MOL
REMARK 923 INTER-LIGAND FREE ENERGY PREDICTED BY IDOCK:   -8.84 KCAL/MOL
REMARK 924 INTRA-LIGAND FREE ENERGY PREDICTED BY IDOCK:   -0.49 KCAL/MOL
REMARK 927      BINDING AFFINITY PREDICTED BY RF-SCORE:    0.00 PKD
ROOT
HETATM    1  C   UNL     1      -7.874   5.244  67.354  1.00  0.00    -0.100 C  
HETATM    2  C   UNL     1      -8.690   4.628  68.485  1.00  0.00    -0.113 C  
ENDROOT
BRANCH   2   3
HETATM    3  C   UNL     1     -10.177   4.985  68.439  1.00  0.00    -0.143 C  
BRANCH   3   4
HETATM    4  C   UNL     1     -10.565   6.017  69.446  1.00  0.00    -0.298 A  
HETATM    5  N   UNL     1     -10.878   5.767  70.704  1.00  0.00    -0.280 NA 
HETATM    6  C   UNL     1     -11.149   6.985  71.277  1.00  0.00    -0.252 A  
HETATM    7  C   UNL     1     -11.007   7.987  70.341  1.00  0.00    -0.248 A  
HETATM    8  C   UNL     1     -11.527   7.090  72.705  1.00  0.00    -0.250 C  
HETATM    9  N   UNL     1     -10.629   7.369  69.197  1.00  0.00    -0.218 NA 
HETATM   10  N   UNL     1     -10.329   8.059  68.054  1.00  0.00    -0.210 NA 
HETATM   11  C   UNL     1     -10.627   9.415  68.124  1.00  0.00    -0.212 C  
HETATM   12  N   UNL     1     -11.012  10.041  69.193  1.00  0.00    -0.256 N  
HETATM   13  O   UNL     1     -11.442  10.002  71.432  1.00  0.00    -0.360 OA 
HETATM   14  H   UNL     1     -11.207  11.041  69.134  1.00  0.00     0.000 HD 
HETATM   15  C   UNL     1     -11.166   9.405  70.400  1.00  0.00    -0.262 C  
BRANCH  11  16
HETATM   16  C   UNL     1     -10.500  10.237  66.858  1.00  0.00    -0.291 A  
HETATM   17  C   UNL     1      -9.745  10.588  64.570  1.00  0.00    -0.375 A  
HETATM   18  C   UNL     1      -9.827   9.764  65.705  1.00  0.00    -0.290 A  
HETATM   19  C   UNL     1     -11.042  11.533  66.854  1.00  0.00    -0.366 A  
HETATM   20  C   UNL     1     -10.295  11.867  64.570  1.00  0.00    -0.334 A  
HETATM   21  C   UNL     1     -10.937  12.334  65.711  1.00  0.00    -0.301 A  
BRANCH  18  22
HETATM   22  O   UNL     1      -9.295   8.500  65.734  1.00  0.00    -0.195 OA 
BRANCH  22  23
HETATM   23  C   UNL     1      -7.982   8.323  65.199  1.00  0.00    -0.128 C  
HETATM   24  C   UNL     1      -8.035   7.316  64.066  1.00  0.00    -0.087 C  
ENDBRANCH  22  23
ENDBRANCH  18  22
BRANCH  21  25
HETATM   25  S   UNL     1     -11.427  14.037  65.779  1.00  0.00    -0.327 S  
HETATM   26  O   UNL     1     -12.852  14.059  66.027  1.00  0.00    -0.438 OA 
HETATM   27  O   UNL     1     -10.866  14.685  64.615  1.00  0.00    -0.385 OA 
BRANCH  25  28
HETATM   28  N   UNL     1     -10.637  14.620  67.178  1.00  0.00    -0.279 N  
HETATM   29  C   UNL     1      -9.140  14.605  67.170  1.00  0.00    -0.223 C  
HETATM   30  C   UNL     1      -8.540  15.788  66.367  1.00  0.00    -0.311 C  
HETATM   31  N   UNL     1      -9.072  17.127  66.712  1.00  0.00    -0.238 NA 
HETATM   32  C   UNL     1     -10.551  17.077  66.721  1.00  0.00    -0.191 C  
HETATM   33  C   UNL     1     -11.128  15.966  67.619  1.00  0.00    -0.266 C  
BRANCH  31  34
HETATM   34  C   UNL     1      -8.482  17.619  67.964  1.00  0.00    -0.244 C  
HETATM   35  C   UNL     1      -8.819  19.074  68.274  1.00  0.00    -0.370 C  
ENDBRANCH  31  34
ENDBRANCH  25  28
ENDBRANCH  21  25
ENDBRANCH  11  16
ENDBRANCH   3   4
ENDBRANCH   2   3
TORSDOF 8
ENDMDL
MODEL       59
REMARK 921   NORMALIZED FREE ENERGY PREDICTED BY IDOCK:   -5.64 KCAL/MOL
REMARK 922        TOTAL FREE ENERGY PREDICTED BY IDOCK:   -9.29 KCAL/MOL
REMARK 923 INTER-LIGAND FREE ENERGY PREDICTED BY IDOCK:   -8.88 KCAL/MOL
REMARK 924 INTRA-LIGAND FREE ENERGY PREDICTED BY IDOCK:   -0.41 KCAL/MOL
REMARK 927      BINDING AFFINITY PREDICTED BY RF-SCORE:    0.00 PKD
ROOT
HETATM    1  C   UNL     1     -10.277   4.358  72.292  1.00  0.00    -0.255 C  
HETATM    2  C   UNL     1      -9.853   5.437  71.302  1.00  0.00    -0.235 C  
ENDROOT
BRANCH   2   3
HETATM    3  C   UNL     1     -10.957   5.846  70.325  1.00  0.00    -0.390 C  
BRANCH   3   4
HETATM    4  C   UNL     1     -11.719   7.050  70.770  1.00  0.00    -0.349 A  
HETATM    5  N   UNL     1     -12.785   7.026  71.548  1.00  0.00    -0.384 NA 
HETATM    6  C   UNL     1     -13.158   8.336  71.724  1.00  0.00    -0.344 A  
HETATM    7  C   UNL     1     -12.302   9.164  71.027  1.00  0.00    -0.214 A  
HETATM    8  C   UNL     1     -14.323   8.693  72.564  1.00  0.00    -0.347 C  
HETATM    9  N   UNL     1     -11.397   8.347  70.440  1.00  0.00    -0.220 NA 
HETATM   10  N   UNL     1     -10.342   8.823  69.710  1.00  0.00    -0.206 NA 
HETATM   11  C   UNL     1     -10.397  10.192  69.475  1.00  0.00    -0.240 C  
HETATM   12  N   UNL     1     -11.260  11.006  69.999  1.00  0.00    -0.424 N  
HETATM   13  O   UNL     1     -12.996  11.353  71.435  1.00  0.00    -0.412 OA 
HETATM   14  H   UNL     1     -11.213  11.996  69.756  1.00  0.00     0.000 HD 
HETATM   15  C   UNL     1     -12.235  10.582  70.868  1.00  0.00    -0.388 C  
BRANCH  11  16
HETATM   16  C   UNL     1      -9.377  10.792  68.529  1.00  0.00    -0.174 A  
HETATM   17  C   UNL     1      -7.677  10.635  66.793  1.00  0.00    -0.127 A  
HETATM   18  C   UNL     1      -8.609  10.006  67.636  1.00  0.00    -0.118 A  
HETATM   19  C   UNL     1      -9.165  12.180  68.579  1.00  0.00    -0.100 A  
HETATM   20  C   UNL     1      -7.481  12.013  66.841  1.00  0.00    -0.051 A  
HETATM   21  C   UNL     1      -8.223  12.777  67.734  1.00  0.00    -0.176 A  
BRANCH  18  22
HETATM   22  O   UNL     1      -8.824   8.651  67.611  1.00  0.00    -0.134 OA 
BRANCH  22  23
HETATM   23  C   UNL     1      -9.311   8.082  66.394  1.00  0.00    -0.200 C  
HETATM   24  C   UNL     1      -9.059   6.587  66.406  1.00  0.00    -0.172 C  
ENDBRANCH  22  23
ENDBRANCH  18  22
BRANCH  21  25
HETATM   25  S   UNL     1      -7.804  14.487  67.948  1.00  0.00    -0.164 S  
HETATM   26  O   UNL     1      -6.460  14.661  67.444  1.00  0.00    -0.306 OA 
HETATM   27  O   UNL     1      -8.137  14.836  69.312  1.00  0.00    -0.153 OA 
BRANCH  25  28
HETATM   28  N   UNL     1      -8.876  15.292  66.888  1.00  0.00    -0.235 N  
HETATM   29  C   UNL     1     -10.261  15.559  67.392  1.00  0.00    -0.255 C  
HETATM   30  C   UNL     1     -10.319  16.782  68.343  1.00  0.00    -0.319 C  
HETATM   31  N   UNL     1      -9.675  18.016  67.834  1.00  0.00    -0.287 NA 
HETATM   32  C   UNL     1      -8.321  17.689  67.334  1.00  0.00    -0.210 C  
HETATM   33  C   UNL     1      -8.300  16.546  66.302  1.00  0.00    -0.329 C  
BRANCH  31  34
HETATM   34  C   UNL     1     -10.532  18.685  66.846  1.00  0.00    -0.402 C  
HETATM   35  C   UNL     1     -10.193  20.157  66.634  1.00  0.00    -0.556 C  
ENDBRANCH  31  34
ENDBRANCH  25  28
ENDBRANCH  21  25
ENDBRANCH  11  16
ENDBRANCH   3   4
ENDBRANCH   2   3
TORSDOF 8
ENDMDL
MODEL       60
REMARK 921   NORMALIZED FREE ENERGY PREDICTED BY IDOCK:   -5.63 KCAL/MOL
REMARK 922        TOTAL FREE ENERGY PREDICTED BY IDOCK:   -9.27 KCAL/MOL
REMARK 923 INTER-LIGAND FREE ENERGY PREDICTED BY IDOCK:   -8.39 KCAL/MOL
REMARK 924 INTRA-LIGAND FREE ENERGY PREDICTED BY IDOCK:   -0.88 KCAL/MOL
REMARK 927      BINDING AFFINITY PREDICTED BY RF-SCORE:    0.00 PKD
ROOT
HETATM    1  C   UNL     1      -6.074  15.377  69.380  1.00  0.00    -0.120 C  
HETATM    2  C   UNL     1      -7.085  15.172  68.259  1.00  0.00    -0.114 C  
ENDROOT
BRANCH   2   3
HETATM    3  C   UNL     1      -8.397  15.932  68.463  1.00  0.00    -0.182 C  
BRANCH   3   4
HETATM    4  C   UNL     1      -9.446  15.573  67.463  1.00  0.00    -0.208 A  
HETATM    5  N   UNL     1      -9.632  16.184  66.308  1.00  0.00    -0.283 NA 
HETATM    6  C   UNL     1     -10.675  15.533  65.696  1.00  0.00    -0.366 A  
HETATM    7  C   UNL     1     -11.132  14.515  66.507  1.00  0.00    -0.332 A  
HETATM    8  C   UNL     1     -11.153  15.945  64.358  1.00  0.00    -0.165 C  
HETATM    9  N   UNL     1     -10.347  14.542  67.609  1.00  0.00    -0.237 NA 
HETATM   10  N   UNL     1     -10.465  13.626  68.619  1.00  0.00    -0.243 NA 
HETATM   11  C   UNL     1     -11.573  12.796  68.494  1.00  0.00    -0.321 C  
HETATM   12  N   UNL     1     -12.363  12.753  67.466  1.00  0.00     0.084 N  
HETATM   13  O   UNL     1     -12.859  13.454  65.354  1.00  0.00    -0.594 OA 
HETATM   14  H   UNL     1     -13.152  12.106  67.478  1.00  0.00     0.000 HD 
HETATM   15  C   UNL     1     -12.174  13.549  66.362  1.00  0.00    -0.400 C  
BRANCH  11  16
HETATM   16  C   UNL     1     -11.897  11.866  69.645  1.00  0.00    -0.406 A  
HETATM   17  C   UNL     1     -12.854  11.374  71.829  1.00  0.00    -0.449 A  
HETATM   18  C   UNL     1     -12.595  12.296  70.800  1.00  0.00    -0.213 A  
HETATM   19  C   UNL     1     -11.449  10.536  69.568  1.00  0.00    -0.339 A  
HETATM   20  C   UNL     1     -12.416  10.056  71.740  1.00  0.00    -0.475 A  
HETATM   21  C   UNL     1     -11.714   9.644  70.612  1.00  0.00    -0.280 A  
BRANCH  18  22
HETATM   22  O   UNL     1     -13.014  13.600  70.860  1.00  0.00    -0.272 OA 
BRANCH  22  23
HETATM   23  C   UNL     1     -13.345  14.129  72.146  1.00  0.00    -0.436 C  
HETATM   24  C   UNL     1     -14.302  15.292  71.977  1.00  0.00    -0.689 C  
ENDBRANCH  22  23
ENDBRANCH  18  22
BRANCH  21  25
HETATM   25  S   UNL     1     -10.965   8.037  70.611  1.00  0.00    -0.245 S  
HETATM   26  O   UNL     1     -11.976   7.099  70.177  1.00  0.00    -0.140 OA 
HETATM   27  O   UNL     1     -10.303   7.879  71.887  1.00  0.00    -0.199 OA 
BRANCH  25  28
HETATM   28  N   UNL     1      -9.785   8.151  69.380  1.00  0.00    -0.168 N  
HETATM   29  C   UNL     1      -8.497   8.831  69.733  1.00  0.00    -0.129 C  
HETATM   30  C   UNL     1      -7.541   7.910  70.533  1.00  0.00    -0.081 C  
HETATM   31  N   UNL     1      -7.309   6.570  69.946  1.00  0.00    -0.084 NA 
HETATM   32  C   UNL     1      -8.611   5.955  69.603  1.00  0.00    -0.121 C  
HETATM   33  C   UNL     1      -9.498   6.842  68.709  1.00  0.00    -0.130 C  
BRANCH  31  34
HETATM   34  C   UNL     1      -6.368   6.645  68.820  1.00  0.00    -0.035 C  
HETATM   35  C   UNL     1      -5.300   7.722  68.982  1.00  0.00    -0.019 C  
ENDBRANCH  31  34
ENDBRANCH  25  28
ENDBRANCH  21  25
ENDBRANCH  11  16
ENDBRANCH   3   4
ENDBRANCH   2   3
TORSDOF 8
ENDMDL
MODEL       61
REMARK 921   NORMALIZED FREE ENERGY PREDICTED BY IDOCK:   -5.62 KCAL/MOL
REMARK 922        TOTAL FREE ENERGY PREDICTED BY IDOCK:   -9.26 KCAL/MOL
REMARK 923 INTER-LIGAND FREE ENERGY PREDICTED BY IDOCK:   -8.98 KCAL/MOL
REMARK 924 INTRA-LIGAND FREE ENERGY PREDICTED BY IDOCK:   -0.27 KCAL/MOL
REMARK 927      BINDING AFFINITY PREDICTED BY RF-SCORE:    0.00 PKD
ROOT
HETATM    1  C   UNL     1      -9.974   5.680  73.156  1.00  0.00    -0.190 C  
HETATM    2  C   UNL     1      -9.546   6.106  71.757  1.00  0.00    -0.165 C  
ENDROOT
BRANCH   2   3
HETATM    3  C   UNL     1     -10.490   5.629  70.651  1.00  0.00    -0.340 C  
BRANCH   3   4
HETATM    4  C   UNL     1     -10.117   6.142  69.299  1.00  0.00    -0.174 A  
HETATM    5  N   UNL     1      -9.532   5.430  68.354  1.00  0.00    -0.118 NA 
HETATM    6  C   UNL     1      -9.388   6.271  67.278  1.00  0.00    -0.118 A  
HETATM    7  C   UNL     1      -9.887   7.518  67.588  1.00  0.00    -0.161 A  
HETATM    8  C   UNL     1      -8.774   5.799  66.017  1.00  0.00    -0.146 C  
HETATM    9  N   UNL     1     -10.352   7.424  68.856  1.00  0.00    -0.203 NA 
HETATM   10  N   UNL     1     -10.985   8.460  69.486  1.00  0.00    -0.113 NA 
HETATM   11  C   UNL     1     -10.935   9.657  68.781  1.00  0.00    -0.117 C  
HETATM   12  N   UNL     1     -10.479   9.796  67.575  1.00  0.00    -0.235 N  
HETATM   13  O   UNL     1      -9.635   8.841  65.684  1.00  0.00    -0.184 OA 
HETATM   14  H   UNL     1     -10.487  10.723  67.149  1.00  0.00     0.000 HD 
HETATM   15  C   UNL     1      -9.985   8.738  66.851  1.00  0.00    -0.257 C  
BRANCH  11  16
HETATM   16  C   UNL     1     -11.449  10.907  69.466  1.00  0.00    -0.372 A  
HETATM   17  C   UNL     1     -12.660  12.068  71.230  1.00  0.00    -0.357 A  
HETATM   18  C   UNL     1     -12.214  10.865  70.657  1.00  0.00    -0.376 A  
HETATM   19  C   UNL     1     -11.182  12.148  68.864  1.00  0.00    -0.320 A  
HETATM   20  C   UNL     1     -12.381  13.295  70.634  1.00  0.00    -0.416 A  
HETATM   21  C   UNL     1     -11.647  13.329  69.453  1.00  0.00    -0.305 A  
BRANCH  18  22
HETATM   22  O   UNL     1     -12.473   9.642  71.222  1.00  0.00    -0.316 OA 
BRANCH  22  23
HETATM   23  C   UNL     1     -13.628   9.532  72.055  1.00  0.00    -0.415 C  
HETATM   24  C   UNL     1     -14.295   8.192  71.811  1.00  0.00    -0.582 C  
ENDBRANCH  22  23
ENDBRANCH  18  22
BRANCH  21  25
HETATM   25  S   UNL     1     -11.496  14.868  68.585  1.00  0.00    -0.321 S  
HETATM   26  O   UNL     1     -12.050  15.894  69.441  1.00  0.00    -0.330 OA 
HETATM   27  O   UNL     1     -12.015  14.653  67.252  1.00  0.00    -0.391 OA 
BRANCH  25  28
HETATM   28  N   UNL     1      -9.806  15.108  68.495  1.00  0.00    -0.214 N  
HETATM   29  C   UNL     1      -9.185  15.068  67.133  1.00  0.00    -0.216 C  
HETATM   30  C   UNL     1      -9.391  16.390  66.349  1.00  0.00    -0.292 C  
HETATM   31  N   UNL     1      -9.028  17.627  67.081  1.00  0.00    -0.240 NA 
HETATM   32  C   UNL     1      -9.655  17.602  68.422  1.00  0.00    -0.310 C  
HETATM   33  C   UNL     1      -9.341  16.329  69.229  1.00  0.00    -0.202 C  
BRANCH  31  34
HETATM   34  C   UNL     1      -7.571  17.814  67.105  1.00  0.00    -0.203 C  
HETATM   35  C   UNL     1      -6.994  18.319  65.786  1.00  0.00    -0.284 C  
ENDBRANCH  31  34
ENDBRANCH  25  28
ENDBRANCH  21  25
ENDBRANCH  11  16
ENDBRANCH   3   4
ENDBRANCH   2   3
TORSDOF 8
ENDMDL
MODEL       62
REMARK 921   NORMALIZED FREE ENERGY PREDICTED BY IDOCK:   -5.61 KCAL/MOL
REMARK 922        TOTAL FREE ENERGY PREDICTED BY IDOCK:   -9.25 KCAL/MOL
REMARK 923 INTER-LIGAND FREE ENERGY PREDICTED BY IDOCK:   -8.38 KCAL/MOL
REMARK 924 INTRA-LIGAND FREE ENERGY PREDICTED BY IDOCK:   -0.86 KCAL/MOL
REMARK 927      BINDING AFFINITY PREDICTED BY RF-SCORE:    0.00 PKD
ROOT
HETATM    1  C   UNL     1     -11.958   6.595  70.340  1.00  0.00    -0.342 C  
HETATM    2  C   UNL     1     -12.757   7.249  71.461  1.00  0.00    -0.422 C  
ENDROOT
BRANCH   2   3
HETATM    3  C   UNL     1     -12.120   8.527  72.010  1.00  0.00    -0.428 C  
BRANCH   3   4
HETATM    4  C   UNL     1     -10.636   8.562  71.842  1.00  0.00    -0.322 A  
HETATM    5  N   UNL     1      -9.776   7.865  72.561  1.00  0.00    -0.204 NA 
HETATM    6  C   UNL     1      -8.531   8.175  72.072  1.00  0.00    -0.155 A  
HETATM    7  C   UNL     1      -8.646   9.087  71.044  1.00  0.00    -0.210 A  
HETATM    8  C   UNL     1      -7.312   7.557  72.639  1.00  0.00    -0.084 C  
HETATM    9  N   UNL     1      -9.972   9.316  70.901  1.00  0.00    -0.283 NA 
HETATM   10  N   UNL     1     -10.477  10.128  69.922  1.00  0.00    -0.266 NA 
HETATM   11  C   UNL     1      -9.504  10.833  69.223  1.00  0.00    -0.082 C  
HETATM   12  N   UNL     1      -8.224  10.660  69.345  1.00  0.00    -0.329 N  
HETATM   13  O   UNL     1      -6.488   9.501  70.263  1.00  0.00    -0.053 OA 
HETATM   14  H   UNL     1      -7.594  11.234  68.784  1.00  0.00     0.000 HD 
HETATM   15  C   UNL     1      -7.687   9.733  70.205  1.00  0.00    -0.177 C  
BRANCH  11  16
HETATM   16  C   UNL     1      -9.961  11.891  68.240  1.00  0.00    -0.202 A  
HETATM   17  C   UNL     1     -10.745  12.623  66.054  1.00  0.00    -0.295 A  
HETATM   18  C   UNL     1     -10.337  11.585  66.910  1.00  0.00    -0.223 A  
HETATM   19  C   UNL     1      -9.969  13.230  68.666  1.00  0.00    -0.127 A  
HETATM   20  C   UNL     1     -10.761  13.946  66.488  1.00  0.00    -0.277 A  
HETATM   21  C   UNL     1     -10.371  14.243  67.789  1.00  0.00    -0.238 A  
BRANCH  18  22
HETATM   22  O   UNL     1     -10.312  10.272  66.511  1.00  0.00    -0.232 OA 
BRANCH  22  23
HETATM   23  C   UNL     1      -9.489   9.939  65.391  1.00  0.00    -0.257 C  
HETATM   24  C   UNL     1      -8.067  10.388  65.664  1.00  0.00    -0.156 C  
ENDBRANCH  22  23
ENDBRANCH  18  22
BRANCH  21  25
HETATM   25  S   UNL     1     -10.176  15.943  68.255  1.00  0.00    -0.232 S  
HETATM   26  O   UNL     1      -9.111  15.995  69.232  1.00  0.00    -0.246 OA 
HETATM   27  O   UNL     1     -11.494  16.450  68.564  1.00  0.00    -0.351 OA 
BRANCH  25  28
HETATM   28  N   UNL     1      -9.615  16.684  66.820  1.00  0.00    -0.246 N  
HETATM   29  C   UNL     1     -10.188  18.025  66.478  1.00  0.00    -0.382 C  
HETATM   30  C   UNL     1      -9.542  19.172  67.297  1.00  0.00    -0.314 C  
HETATM   31  N   UNL     1      -8.060  19.195  67.300  1.00  0.00    -0.261 NA 
HETATM   32  C   UNL     1      -7.552  17.844  67.626  1.00  0.00    -0.212 C  
HETATM   33  C   UNL     1      -8.120  16.733  66.723  1.00  0.00    -0.238 C  
BRANCH  31  34
HETATM   34  C   UNL     1      -7.541  19.741  66.038  1.00  0.00    -0.330 C  
HETATM   35  C   UNL     1      -6.142  20.336  66.155  1.00  0.00    -0.206 C  
ENDBRANCH  31  34
ENDBRANCH  25  28
ENDBRANCH  21  25
ENDBRANCH  11  16
ENDBRANCH   3   4
ENDBRANCH   2   3
TORSDOF 8
ENDMDL
MODEL       63
REMARK 921   NORMALIZED FREE ENERGY PREDICTED BY IDOCK:   -5.56 KCAL/MOL
REMARK 922        TOTAL FREE ENERGY PREDICTED BY IDOCK:   -9.16 KCAL/MOL
REMARK 923 INTER-LIGAND FREE ENERGY PREDICTED BY IDOCK:   -8.26 KCAL/MOL
REMARK 924 INTRA-LIGAND FREE ENERGY PREDICTED BY IDOCK:   -0.90 KCAL/MOL
REMARK 927      BINDING AFFINITY PREDICTED BY RF-SCORE:    0.00 PKD
ROOT
HETATM    1  C   UNL     1     -12.323  14.645  64.427  1.00  0.00    -0.420 C  
HETATM    2  C   UNL     1     -11.385  15.833  64.254  1.00  0.00    -0.189 C  
ENDROOT
BRANCH   2   3
HETATM    3  C   UNL     1     -11.141  16.620  65.544  1.00  0.00     0.072 C  
BRANCH   3   4
HETATM    4  C   UNL     1      -9.727  16.545  66.019  1.00  0.00    -0.301 A  
HETATM    5  N   UNL     1      -8.865  17.543  65.992  1.00  0.00    -0.525 NA 
HETATM    6  C   UNL     1      -7.701  17.056  66.533  1.00  0.00    -0.292 A  
HETATM    7  C   UNL     1      -7.865  15.732  66.882  1.00  0.00    -0.236 A  
HETATM    8  C   UNL     1      -6.505  17.917  66.675  1.00  0.00    -0.227 C  
HETATM    9  N   UNL     1      -9.144  15.424  66.565  1.00  0.00    -0.277 NA 
HETATM   10  N   UNL     1      -9.693  14.199  66.832  1.00  0.00    -0.260 NA 
HETATM   11  C   UNL     1      -8.772  13.259  67.277  1.00  0.00    -0.214 C  
HETATM   12  N   UNL     1      -7.533  13.507  67.572  1.00  0.00    -0.209 N  
HETATM   13  O   UNL     1      -5.853  15.027  67.828  1.00  0.00    -0.184 OA 
HETATM   14  H   UNL     1      -6.939  12.740  67.889  1.00  0.00     0.000 HD 
HETATM   15  C   UNL     1      -6.992  14.765  67.470  1.00  0.00    -0.172 C  
BRANCH  11  16
HETATM   16  C   UNL     1      -9.237  11.825  67.432  1.00  0.00    -0.174 A  
HETATM   17  C   UNL     1     -10.155   9.741  66.572  1.00  0.00    -0.307 A  
HETATM   18  C   UNL     1      -9.736  11.064  66.348  1.00  0.00    -0.201 A  
HETATM   19  C   UNL     1      -9.205  11.254  68.716  1.00  0.00    -0.133 A  
HETATM   20  C   UNL     1     -10.109   9.178  67.844  1.00  0.00    -0.246 A  
HETATM   21  C   UNL     1      -9.637   9.937  68.910  1.00  0.00    -0.172 A  
BRANCH  18  22
HETATM   22  O   UNL     1      -9.770  11.644  65.105  1.00  0.00    -0.235 OA 
BRANCH  22  23
HETATM   23  C   UNL     1     -10.533  10.988  64.091  1.00  0.00    -0.366 C  
HETATM   24  C   UNL     1      -9.598  10.484  63.009  1.00  0.00    -0.369 C  
ENDBRANCH  22  23
ENDBRANCH  18  22
BRANCH  21  25
HETATM   25  S   UNL     1      -9.798   9.294  70.554  1.00  0.00    -0.271 S  
HETATM   26  O   UNL     1     -10.940   9.948  71.155  1.00  0.00    -0.333 OA 
HETATM   27  O   UNL     1      -8.490   9.371  71.167  1.00  0.00    -0.303 OA 
BRANCH  25  28
HETATM   28  N   UNL     1     -10.200   7.653  70.299  1.00  0.00    -0.202 N  
HETATM   29  C   UNL     1      -9.084   6.657  70.385  1.00  0.00    -0.152 C  
HETATM   30  C   UNL     1      -8.707   6.314  71.850  1.00  0.00    -0.136 C  
HETATM   31  N   UNL     1      -9.842   5.942  72.728  1.00  0.00    -0.166 NA 
HETATM   32  C   UNL     1     -10.918   6.949  72.588  1.00  0.00    -0.268 C  
HETATM   33  C   UNL     1     -11.357   7.189  71.132  1.00  0.00    -0.275 C  
BRANCH  31  34
HETATM   34  C   UNL     1     -10.276   4.563  72.468  1.00  0.00    -0.186 C  
HETATM   35  C   UNL     1     -10.898   3.875  73.678  1.00  0.00    -0.331 C  
ENDBRANCH  31  34
ENDBRANCH  25  28
ENDBRANCH  21  25
ENDBRANCH  11  16
ENDBRANCH   3   4
ENDBRANCH   2   3
TORSDOF 8
ENDMDL
MODEL       64
REMARK 921   NORMALIZED FREE ENERGY PREDICTED BY IDOCK:   -5.55 KCAL/MOL
REMARK 922        TOTAL FREE ENERGY PREDICTED BY IDOCK:   -9.16 KCAL/MOL
REMARK 923 INTER-LIGAND FREE ENERGY PREDICTED BY IDOCK:   -8.63 KCAL/MOL
REMARK 924 INTRA-LIGAND FREE ENERGY PREDICTED BY IDOCK:   -0.53 KCAL/MOL
REMARK 927      BINDING AFFINITY PREDICTED BY RF-SCORE:    0.00 PKD
ROOT
HETATM    1  C   UNL     1     -10.323  20.061  68.323  1.00  0.00    -0.494 C  
HETATM    2  C   UNL     1     -10.254  19.863  66.814  1.00  0.00    -0.603 C  
ENDROOT
BRANCH   2   3
HETATM    3  C   UNL     1      -8.839  19.613  66.287  1.00  0.00    -0.410 C  
BRANCH   3   4
HETATM    4  C   UNL     1      -7.949  18.953  67.288  1.00  0.00    -0.246 A  
HETATM    5  N   UNL     1      -6.880  19.504  67.830  1.00  0.00    -0.238 NA 
HETATM    6  C   UNL     1      -6.370  18.572  68.700  1.00  0.00    -0.219 A  
HETATM    7  C   UNL     1      -7.144  17.431  68.671  1.00  0.00    -0.237 A  
HETATM    8  C   UNL     1      -5.162  18.859  69.505  1.00  0.00    -0.192 C  
HETATM    9  N   UNL     1      -8.139  17.685  67.788  1.00  0.00    -0.220 NA 
HETATM   10  N   UNL     1      -9.149  16.794  67.544  1.00  0.00    -0.209 NA 
HETATM   11  C   UNL     1      -8.954  15.552  68.135  1.00  0.00    -0.179 C  
HETATM   12  N   UNL     1      -8.003  15.261  68.968  1.00  0.00    -0.178 N  
HETATM   13  O   UNL     1      -6.219  15.945  70.212  1.00  0.00    -0.117 OA 
HETATM   14  H   UNL     1      -7.951  14.313  69.343  1.00  0.00     0.000 HD 
HETATM   15  C   UNL     1      -7.065  16.183  69.362  1.00  0.00    -0.215 C  
BRANCH  11  16
HETATM   16  C   UNL     1      -9.921  14.439  67.784  1.00  0.00    -0.226 A  
HETATM   17  C   UNL     1     -12.143  13.447  67.696  1.00  0.00    -0.311 A  
HETATM   18  C   UNL     1     -11.310  14.524  68.045  1.00  0.00    -0.306 A  
HETATM   19  C   UNL     1      -9.399  13.265  67.214  1.00  0.00    -0.226 A  
HETATM   20  C   UNL     1     -11.620  12.292  67.121  1.00  0.00    -0.423 A  
HETATM   21  C   UNL     1     -10.252  12.205  66.886  1.00  0.00    -0.208 A  
BRANCH  18  22
HETATM   22  O   UNL     1     -11.797  15.674  68.613  1.00  0.00    -0.372 OA 
BRANCH  22  23
HETATM   23  C   UNL     1     -12.381  15.573  69.912  1.00  0.00    -0.277 C  
HETATM   24  C   UNL     1     -11.281  15.425  70.945  1.00  0.00    -0.397 C  
ENDBRANCH  22  23
ENDBRANCH  18  22
BRANCH  21  25
HETATM   25  S   UNL     1      -9.571  10.651  66.370  1.00  0.00    -0.197 S  
HETATM   26  O   UNL     1      -8.191  10.628  66.805  1.00  0.00    -0.123 OA 
HETATM   27  O   UNL     1      -9.913  10.482  64.976  1.00  0.00    -0.278 OA 
BRANCH  25  28
HETATM   28  N   UNL     1     -10.439   9.511  67.301  1.00  0.00    -0.261 N  
HETATM   29  C   UNL     1     -10.399   8.086  66.842  1.00  0.00    -0.338 C  
HETATM   30  C   UNL     1      -9.081   7.372  67.239  1.00  0.00    -0.124 C  
HETATM   31  N   UNL     1      -8.692   7.499  68.663  1.00  0.00    -0.129 NA 
HETATM   32  C   UNL     1      -8.766   8.922  69.064  1.00  0.00    -0.136 C  
HETATM   33  C   UNL     1     -10.127   9.580  68.766  1.00  0.00    -0.188 C  
BRANCH  31  34
HETATM   34  C   UNL     1      -9.487   6.597  69.507  1.00  0.00    -0.147 C  
HETATM   35  C   UNL     1      -9.584   5.175  68.967  1.00  0.00    -0.204 C  
ENDBRANCH  31  34
ENDBRANCH  25  28
ENDBRANCH  21  25
ENDBRANCH  11  16
ENDBRANCH   3   4
ENDBRANCH   2   3
TORSDOF 8
ENDMDL
MODEL       65
REMARK 921   NORMALIZED FREE ENERGY PREDICTED BY IDOCK:   -5.55 KCAL/MOL
REMARK 922        TOTAL FREE ENERGY PREDICTED BY IDOCK:   -9.15 KCAL/MOL
REMARK 923 INTER-LIGAND FREE ENERGY PREDICTED BY IDOCK:   -8.14 KCAL/MOL
REMARK 924 INTRA-LIGAND FREE ENERGY PREDICTED BY IDOCK:   -1.01 KCAL/MOL
REMARK 927      BINDING AFFINITY PREDICTED BY RF-SCORE:    0.00 PKD
ROOT
HETATM    1  C   UNL     1     -12.310   7.808  72.169  1.00  0.00    -0.303 C  
HETATM    2  C   UNL     1     -12.042   9.287  71.920  1.00  0.00    -0.440 C  
ENDROOT
BRANCH   2   3
HETATM    3  C   UNL     1     -13.267  10.063  71.433  1.00  0.00    -0.486 C  
BRANCH   3   4
HETATM    4  C   UNL     1     -12.996  11.516  71.222  1.00  0.00    -0.297 A  
HETATM    5  N   UNL     1     -13.388  12.484  72.029  1.00  0.00    -0.492 NA 
HETATM    6  C   UNL     1     -12.918  13.652  71.480  1.00  0.00    -0.360 A  
HETATM    7  C   UNL     1     -12.238  13.379  70.312  1.00  0.00    -0.335 A  
HETATM    8  C   UNL     1     -13.162  14.956  72.135  1.00  0.00    -0.455 C  
HETATM    9  N   UNL     1     -12.283  12.035  70.165  1.00  0.00    -0.267 NA 
HETATM   10  N   UNL     1     -11.651  11.386  69.140  1.00  0.00    -0.283 NA 
HETATM   11  C   UNL     1     -11.127  12.239  68.176  1.00  0.00    -0.240 C  
HETATM   12  N   UNL     1     -11.083  13.532  68.267  1.00  0.00    -0.249 N  
HETATM   13  O   UNL     1     -11.447  15.417  69.498  1.00  0.00    -0.275 OA 
HETATM   14  H   UNL     1     -10.677  14.066  67.498  1.00  0.00     0.000 HD 
HETATM   15  C   UNL     1     -11.564  14.207  69.362  1.00  0.00    -0.304 C  
BRANCH  11  16
HETATM   16  C   UNL     1     -10.563  11.623  66.912  1.00  0.00    -0.276 A  
HETATM   17  C   UNL     1     -10.596  11.178  64.518  1.00  0.00    -0.397 A  
HETATM   18  C   UNL     1     -11.176  11.785  65.645  1.00  0.00    -0.267 A  
HETATM   19  C   UNL     1      -9.409  10.829  67.020  1.00  0.00    -0.174 A  
HETATM   20  C   UNL     1      -9.445  10.402  64.633  1.00  0.00    -0.336 A  
HETATM   21  C   UNL     1      -8.859  10.229  65.882  1.00  0.00    -0.159 A  
BRANCH  18  22
HETATM   22  O   UNL     1     -12.308  12.555  65.563  1.00  0.00    -0.600 OA 
BRANCH  22  23
HETATM   23  C   UNL     1     -12.324  13.604  64.593  1.00  0.00    -0.371 C  
HETATM   24  C   UNL     1     -11.647  14.831  65.173  1.00  0.00    -0.358 C  
ENDBRANCH  22  23
ENDBRANCH  18  22
BRANCH  21  25
HETATM   25  S   UNL     1      -7.537   9.060  66.051  1.00  0.00    -0.095 S  
HETATM   26  O   UNL     1      -7.942   8.106  67.061  1.00  0.00    -0.102 OA 
HETATM   27  O   UNL     1      -6.316   9.821  66.195  1.00  0.00    -0.067 OA 
BRANCH  25  28
HETATM   28  N   UNL     1      -7.522   8.259  64.541  1.00  0.00    -0.095 N  
HETATM   29  C   UNL     1      -6.184   7.878  63.986  1.00  0.00    -0.058 C  
HETATM   30  C   UNL     1      -5.612   6.597  64.646  1.00  0.00    -0.030 C  
HETATM   31  N   UNL     1      -6.535   5.438  64.692  1.00  0.00    -0.037 NA 
HETATM   32  C   UNL     1      -7.842   5.877  65.231  1.00  0.00    -0.105 C  
HETATM   33  C   UNL     1      -8.447   7.081  64.485  1.00  0.00     0.203 C  
BRANCH  31  34
HETATM   34  C   UNL     1      -6.619   4.781  63.381  1.00  0.00    -0.030 C  
HETATM   35  C   UNL     1      -5.298   4.184  62.907  1.00  0.00    -0.009 C  
ENDBRANCH  31  34
ENDBRANCH  25  28
ENDBRANCH  21  25
ENDBRANCH  11  16
ENDBRANCH   3   4
ENDBRANCH   2   3
TORSDOF 8
ENDMDL
MODEL       66
REMARK 921   NORMALIZED FREE ENERGY PREDICTED BY IDOCK:   -5.51 KCAL/MOL
REMARK 922        TOTAL FREE ENERGY PREDICTED BY IDOCK:   -9.10 KCAL/MOL
REMARK 923 INTER-LIGAND FREE ENERGY PREDICTED BY IDOCK:   -8.71 KCAL/MOL
REMARK 924 INTRA-LIGAND FREE ENERGY PREDICTED BY IDOCK:   -0.39 KCAL/MOL
REMARK 927      BINDING AFFINITY PREDICTED BY RF-SCORE:    0.00 PKD
ROOT
HETATM    1  C   UNL     1     -10.198  19.718  66.152  1.00  0.00    -0.618 C  
HETATM    2  C   UNL     1     -11.028  19.077  67.258  1.00  0.00    -0.365 C  
ENDROOT
BRANCH   2   3
HETATM    3  C   UNL     1     -10.222  18.722  68.509  1.00  0.00    -0.397 C  
BRANCH   3   4
HETATM    4  C   UNL     1      -8.873  18.162  68.199  1.00  0.00    -0.280 A  
HETATM    5  N   UNL     1      -7.771  18.875  68.060  1.00  0.00    -0.264 NA 
HETATM    6  C   UNL     1      -6.766  17.976  67.801  1.00  0.00    -0.199 A  
HETATM    7  C   UNL     1      -7.278  16.696  67.773  1.00  0.00    -0.138 A  
HETATM    8  C   UNL     1      -5.370  18.427  67.601  1.00  0.00    -0.154 C  
HETATM    9  N   UNL     1      -8.600  16.823  68.034  1.00  0.00    -0.205 NA 
HETATM   10  N   UNL     1      -9.432  15.744  68.153  1.00  0.00    -0.198 NA 
HETATM   11  C   UNL     1      -8.840  14.538  67.797  1.00  0.00    -0.183 C  
HETATM   12  N   UNL     1      -7.583  14.377  67.519  1.00  0.00    -0.183 N  
HETATM   13  O   UNL     1      -5.485  15.258  67.377  1.00  0.00    -0.338 OA 
HETATM   14  H   UNL     1      -7.251  13.445  67.267  1.00  0.00     0.000 HD 
HETATM   15  C   UNL     1      -6.685  15.415  67.551  1.00  0.00    -0.181 C  
BRANCH  11  16
HETATM   16  C   UNL     1      -9.721  13.308  67.722  1.00  0.00    -0.217 A  
HETATM   17  C   UNL     1     -11.834  12.181  67.285  1.00  0.00    -0.293 A  
HETATM   18  C   UNL     1     -11.079  13.366  67.325  1.00  0.00    -0.282 A  
HETATM   19  C   UNL     1      -9.167  12.074  68.101  1.00  0.00    -0.195 A  
HETATM   20  C   UNL     1     -11.275  10.960  67.651  1.00  0.00    -0.379 A  
HETATM   21  C   UNL     1      -9.947  10.912  68.060  1.00  0.00    -0.171 A  
BRANCH  18  22
HETATM   22  O   UNL     1     -11.603  14.583  66.970  1.00  0.00    -0.359 OA 
BRANCH  22  23
HETATM   23  C   UNL     1     -12.146  14.709  65.655  1.00  0.00    -0.211 C  
HETATM   24  C   UNL     1     -11.140  15.411  64.763  1.00  0.00    -0.416 C  
ENDBRANCH  22  23
ENDBRANCH  18  22
BRANCH  21  25
HETATM   25  S   UNL     1      -9.315   9.401  68.740  1.00  0.00    -0.148 S  
HETATM   26  O   UNL     1      -8.266   9.760  69.668  1.00  0.00    -0.124 OA 
HETATM   27  O   UNL     1      -9.052   8.515  67.627  1.00  0.00    -0.134 OA 
BRANCH  25  28
HETATM   28  N   UNL     1     -10.634   8.791  69.640  1.00  0.00    -0.221 N  
HETATM   29  C   UNL     1     -10.781   7.302  69.708  1.00  0.00    -0.239 C  
HETATM   30  C   UNL     1      -9.813   6.658  70.734  1.00  0.00    -0.183 C  
HETATM   31  N   UNL     1      -9.815   7.271  72.083  1.00  0.00    -0.160 NA 
HETATM   32  C   UNL     1      -9.685   8.739  71.952  1.00  0.00    -0.316 C  
HETATM   33  C   UNL     1     -10.732   9.374  71.018  1.00  0.00    -0.337 C  
BRANCH  31  34
HETATM   34  C   UNL     1     -10.990   6.840  72.853  1.00  0.00    -0.263 C  
HETATM   35  C   UNL     1     -10.947   5.375  73.274  1.00  0.00    -0.358 C  
ENDBRANCH  31  34
ENDBRANCH  25  28
ENDBRANCH  21  25
ENDBRANCH  11  16
ENDBRANCH   3   4
ENDBRANCH   2   3
TORSDOF 8
ENDMDL
MODEL       67
REMARK 921   NORMALIZED FREE ENERGY PREDICTED BY IDOCK:   -5.50 KCAL/MOL
REMARK 922        TOTAL FREE ENERGY PREDICTED BY IDOCK:   -9.08 KCAL/MOL
REMARK 923 INTER-LIGAND FREE ENERGY PREDICTED BY IDOCK:   -8.81 KCAL/MOL
REMARK 924 INTRA-LIGAND FREE ENERGY PREDICTED BY IDOCK:   -0.28 KCAL/MOL
REMARK 927      BINDING AFFINITY PREDICTED BY RF-SCORE:    0.00 PKD
ROOT
HETATM    1  C   UNL     1     -10.235  16.457  66.402  1.00  0.00    -0.325 C  
HETATM    2  C   UNL     1     -11.158  16.011  67.530  1.00  0.00    -0.207 C  
ENDROOT
BRANCH   2   3
HETATM    3  C   UNL     1     -10.602  16.287  68.928  1.00  0.00    -0.284 C  
BRANCH   3   4
HETATM    4  C   UNL     1     -11.396  15.638  70.014  1.00  0.00    -0.334 A  
HETATM    5  N   UNL     1     -11.959  16.275  71.024  1.00  0.00    -0.254 NA 
HETATM    6  C   UNL     1     -12.599  15.315  71.769  1.00  0.00    -0.362 A  
HETATM    7  C   UNL     1     -12.408  14.074  71.199  1.00  0.00    -0.365 A  
HETATM    8  C   UNL     1     -13.359  15.675  72.987  1.00  0.00    -0.668 C  
HETATM    9  N   UNL     1     -11.660  14.290  70.092  1.00  0.00    -0.266 NA 
HETATM   10  N   UNL     1     -11.322  13.285  69.227  1.00  0.00    -0.266 NA 
HETATM   11  C   UNL     1     -11.652  12.016  69.687  1.00  0.00    -0.301 C  
HETATM   12  N   UNL     1     -12.348  11.765  70.753  1.00  0.00    -0.374 N  
HETATM   13  O   UNL     1     -13.573  12.539  72.513  1.00  0.00    -0.453 OA 
HETATM   14  H   UNL     1     -12.533  10.793  71.002  1.00  0.00     0.000 HD 
HETATM   15  C   UNL     1     -12.844  12.762  71.557  1.00  0.00    -0.270 C  
BRANCH  11  16
HETATM   16  C   UNL     1     -11.165  10.822  68.892  1.00  0.00    -0.328 A  
HETATM   17  C   UNL     1     -10.609   9.687  66.811  1.00  0.00    -0.209 A  
HETATM   18  C   UNL     1     -11.065  10.836  67.479  1.00  0.00    -0.308 A  
HETATM   19  C   UNL     1     -10.840   9.648  69.592  1.00  0.00    -0.266 A  
HETATM   20  C   UNL     1     -10.278   8.531  67.513  1.00  0.00    -0.307 A  
HETATM   21  C   UNL     1     -10.398   8.516  68.898  1.00  0.00    -0.210 A  
BRANCH  18  22
HETATM   22  O   UNL     1     -11.397  11.989  66.814  1.00  0.00    -0.307 OA 
BRANCH  22  23
HETATM   23  C   UNL     1     -11.308  11.977  65.388  1.00  0.00    -0.321 C  
HETATM   24  C   UNL     1     -12.493  12.723  64.806  1.00  0.00    -0.539 C  
ENDBRANCH  22  23
ENDBRANCH  18  22
BRANCH  21  25
HETATM   25  S   UNL     1     -10.197   6.978  69.757  1.00  0.00    -0.207 S  
HETATM   26  O   UNL     1     -11.466   6.287  69.693  1.00  0.00    -0.432 OA 
HETATM   27  O   UNL     1      -9.579   7.282  71.029  1.00  0.00    -0.159 OA 
BRANCH  25  28
HETATM   28  N   UNL     1      -9.080   6.125  68.784  1.00  0.00    -0.126 N  
HETATM   29  C   UNL     1      -7.764   5.773  69.406  1.00  0.00    -0.092 C  
HETATM   30  C   UNL     1      -7.861   4.538  70.338  1.00  0.00    -0.053 C  
HETATM   31  N   UNL     1      -8.524   3.349  69.752  1.00  0.00    -0.052 NA 
HETATM   32  C   UNL     1      -9.807   3.759  69.138  1.00  0.00     0.099 C  
HETATM   33  C   UNL     1      -9.670   4.913  68.127  1.00  0.00    -0.148 C  
BRANCH  31  34
HETATM   34  C   UNL     1      -7.620   2.643  68.834  1.00  0.00    -0.047 C  
HETATM   35  C   UNL     1      -8.284   1.500  68.074  1.00  0.00    -0.069 C  
ENDBRANCH  31  34
ENDBRANCH  25  28
ENDBRANCH  21  25
ENDBRANCH  11  16
ENDBRANCH   3   4
ENDBRANCH   2   3
TORSDOF 8
ENDMDL
MODEL       68
REMARK 921   NORMALIZED FREE ENERGY PREDICTED BY IDOCK:   -5.49 KCAL/MOL
REMARK 922        TOTAL FREE ENERGY PREDICTED BY IDOCK:   -9.06 KCAL/MOL
REMARK 923 INTER-LIGAND FREE ENERGY PREDICTED BY IDOCK:   -9.26 KCAL/MOL
REMARK 924 INTRA-LIGAND FREE ENERGY PREDICTED BY IDOCK:    0.20 KCAL/MOL
REMARK 927      BINDING AFFINITY PREDICTED BY RF-SCORE:    0.00 PKD
ROOT
HETATM    1  C   UNL     1     -11.202   6.396  67.753  1.00  0.00    -0.258 C  
HETATM    2  C   UNL     1     -10.839   6.313  69.230  1.00  0.00    -0.406 C  
ENDROOT
BRANCH   2   3
HETATM    3  C   UNL     1     -10.180   7.581  69.777  1.00  0.00    -0.211 C  
BRANCH   3   4
HETATM    4  C   UNL     1     -11.149   8.517  70.418  1.00  0.00    -0.231 A  
HETATM    5  N   UNL     1     -12.034   8.179  71.337  1.00  0.00    -0.293 NA 
HETATM    6  C   UNL     1     -12.704   9.333  71.664  1.00  0.00    -0.364 A  
HETATM    7  C   UNL     1     -12.217  10.385  70.918  1.00  0.00    -0.383 A  
HETATM    8  C   UNL     1     -13.772   9.331  72.688  1.00  0.00    -0.386 C  
HETATM    9  N   UNL     1     -11.234   9.864  70.146  1.00  0.00    -0.271 NA 
HETATM   10  N   UNL     1     -10.471  10.633  69.310  1.00  0.00    -0.218 NA 
HETATM   11  C   UNL     1     -10.919  11.943  69.190  1.00  0.00    -0.198 C  
HETATM   12  N   UNL     1     -11.870  12.475  69.894  1.00  0.00    -0.429 N  
HETATM   13  O   UNL     1     -13.385  12.289  71.588  1.00  0.00    -0.342 OA 
HETATM   14  H   UNL     1     -12.123  13.449  69.723  1.00  0.00     0.000 HD 
HETATM   15  C   UNL     1     -12.549  11.773  70.860  1.00  0.00    -0.289 C  
BRANCH  11  16
HETATM   16  C   UNL     1     -10.255  12.830  68.157  1.00  0.00    -0.241 A  
HETATM   17  C   UNL     1      -9.994  13.705  65.900  1.00  0.00    -0.304 A  
HETATM   18  C   UNL     1     -10.664  12.860  66.802  1.00  0.00    -0.261 A  
HETATM   19  C   UNL     1      -9.166  13.619  68.564  1.00  0.00    -0.121 A  
HETATM   20  C   UNL     1      -8.923  14.493  66.314  1.00  0.00    -0.077 A  
HETATM   21  C   UNL     1      -8.513  14.444  67.642  1.00  0.00    -0.185 A  
BRANCH  18  22
HETATM   22  O   UNL     1     -11.722  12.073  66.423  1.00  0.00    -0.518 OA 
BRANCH  22  23
HETATM   23  C   UNL     1     -12.384  12.403  65.200  1.00  0.00    -0.332 C  
HETATM   24  C   UNL     1     -13.119  13.718  65.369  1.00  0.00    -0.217 C  
ENDBRANCH  22  23
ENDBRANCH  18  22
BRANCH  21  25
HETATM   25  S   UNL     1      -7.013  15.270  68.103  1.00  0.00    -0.139 S  
HETATM   26  O   UNL     1      -6.318  15.602  66.879  1.00  0.00    -0.250 OA 
HETATM   27  O   UNL     1      -6.381  14.460  69.121  1.00  0.00    -0.092 OA 
BRANCH  25  28
HETATM   28  N   UNL     1      -7.565  16.725  68.811  1.00  0.00    -0.229 N  
HETATM   29  C   UNL     1      -6.591  17.862  68.877  1.00  0.00    -0.241 C  
HETATM   30  C   UNL     1      -6.451  18.601  67.521  1.00  0.00    -0.197 C  
HETATM   31  N   UNL     1      -7.726  19.008  66.884  1.00  0.00    -0.237 NA 
HETATM   32  C   UNL     1      -8.651  17.853  66.862  1.00  0.00    -0.245 C  
HETATM   33  C   UNL     1      -8.866  17.205  68.243  1.00  0.00    -0.245 C  
BRANCH  31  34
HETATM   34  C   UNL     1      -8.278  20.205  67.532  1.00  0.00    -0.329 C  
HETATM   35  C   UNL     1      -9.741  20.066  67.938  1.00  0.00    -0.517 C  
ENDBRANCH  31  34
ENDBRANCH  25  28
ENDBRANCH  21  25
ENDBRANCH  11  16
ENDBRANCH   3   4
ENDBRANCH   2   3
TORSDOF 8
ENDMDL
MODEL       69
REMARK 921   NORMALIZED FREE ENERGY PREDICTED BY IDOCK:   -5.48 KCAL/MOL
REMARK 922        TOTAL FREE ENERGY PREDICTED BY IDOCK:   -9.05 KCAL/MOL
REMARK 923 INTER-LIGAND FREE ENERGY PREDICTED BY IDOCK:   -8.12 KCAL/MOL
REMARK 924 INTRA-LIGAND FREE ENERGY PREDICTED BY IDOCK:   -0.93 KCAL/MOL
REMARK 927      BINDING AFFINITY PREDICTED BY RF-SCORE:    0.00 PKD
ROOT
HETATM    1  C   UNL     1     -10.297  20.054  68.521  1.00  0.00    -0.425 C  
HETATM    2  C   UNL     1     -10.586  19.743  67.058  1.00  0.00    -0.586 C  
ENDROOT
BRANCH   2   3
HETATM    3  C   UNL     1      -9.382  19.187  66.295  1.00  0.00    -0.342 C  
BRANCH   3   4
HETATM    4  C   UNL     1      -8.310  18.662  67.192  1.00  0.00    -0.264 A  
HETATM    5  N   UNL     1      -7.172  19.277  67.453  1.00  0.00    -0.212 NA 
HETATM    6  C   UNL     1      -6.492  18.466  68.328  1.00  0.00    -0.204 A  
HETATM    7  C   UNL     1      -7.235  17.333  68.590  1.00  0.00    -0.231 A  
HETATM    8  C   UNL     1      -5.164  18.852  68.854  1.00  0.00    -0.189 C  
HETATM    9  N   UNL     1      -8.379  17.471  67.880  1.00  0.00    -0.224 NA 
HETATM   10  N   UNL     1      -9.397  16.560  67.942  1.00  0.00    -0.214 NA 
HETATM   11  C   UNL     1      -9.072  15.405  68.644  1.00  0.00    -0.195 C  
HETATM   12  N   UNL     1      -7.979  15.223  69.319  1.00  0.00    -0.210 N  
HETATM   13  O   UNL     1      -6.013  16.060  70.115  1.00  0.00    -0.183 OA 
HETATM   14  H   UNL     1      -7.838  14.333  69.798  1.00  0.00     0.000 HD 
HETATM   15  C   UNL     1      -7.004  16.187  69.411  1.00  0.00    -0.220 C  
BRANCH  11  16
HETATM   16  C   UNL     1     -10.062  14.258  68.624  1.00  0.00    -0.238 A  
HETATM   17  C   UNL     1     -12.034  13.085  69.439  1.00  0.00    -0.338 A  
HETATM   18  C   UNL     1     -11.161  14.185  69.514  1.00  0.00    -0.221 A  
HETATM   19  C   UNL     1      -9.846  13.214  67.710  1.00  0.00    -0.228 A  
HETATM   20  C   UNL     1     -11.820  12.060  68.521  1.00  0.00    -0.369 A  
HETATM   21  C   UNL     1     -10.727  12.127  67.664  1.00  0.00    -0.220 A  
BRANCH  18  22
HETATM   22  O   UNL     1     -11.347  15.209  70.407  1.00  0.00    -0.256 OA 
BRANCH  22  23
HETATM   23  C   UNL     1     -11.923  14.885  71.673  1.00  0.00    -0.363 C  
HETATM   24  C   UNL     1     -11.941  16.124  72.547  1.00  0.00    -0.660 C  
ENDBRANCH  22  23
ENDBRANCH  18  22
BRANCH  21  25
HETATM   25  S   UNL     1     -10.336  10.715  66.666  1.00  0.00    -0.234 S  
HETATM   26  O   UNL     1     -10.710  11.041  65.307  1.00  0.00    -0.246 OA 
HETATM   27  O   UNL     1     -10.893   9.559  67.333  1.00  0.00    -0.269 OA 
BRANCH  25  28
HETATM   28  N   UNL     1      -8.631  10.637  66.742  1.00  0.00    -0.127 N  
HETATM   29  C   UNL     1      -8.036   9.748  67.791  1.00  0.00    -0.113 C  
HETATM   30  C   UNL     1      -8.064   8.252  67.385  1.00  0.00    -0.121 C  
HETATM   31  N   UNL     1      -7.523   7.948  66.039  1.00  0.00    -0.077 NA 
HETATM   32  C   UNL     1      -8.131   8.866  65.050  1.00  0.00    -0.137 C  
HETATM   33  C   UNL     1      -7.989  10.355  65.417  1.00  0.00    -0.147 C  
BRANCH  31  34
HETATM   34  C   UNL     1      -6.054   7.966  66.048  1.00  0.00    -0.038 C  
HETATM   35  C   UNL     1      -5.435   7.154  67.181  1.00  0.00    -0.021 C  
ENDBRANCH  31  34
ENDBRANCH  25  28
ENDBRANCH  21  25
ENDBRANCH  11  16
ENDBRANCH   3   4
ENDBRANCH   2   3
TORSDOF 8
ENDMDL
MODEL       70
REMARK 921   NORMALIZED FREE ENERGY PREDICTED BY IDOCK:   -5.48 KCAL/MOL
REMARK 922        TOTAL FREE ENERGY PREDICTED BY IDOCK:   -9.05 KCAL/MOL
REMARK 923 INTER-LIGAND FREE ENERGY PREDICTED BY IDOCK:   -8.54 KCAL/MOL
REMARK 924 INTRA-LIGAND FREE ENERGY PREDICTED BY IDOCK:   -0.50 KCAL/MOL
REMARK 927      BINDING AFFINITY PREDICTED BY RF-SCORE:    0.00 PKD
ROOT
HETATM    1  C   UNL     1     -10.400  19.877  67.886  1.00  0.00    -0.545 C  
HETATM    2  C   UNL     1     -10.671  19.581  66.416  1.00  0.00    -0.528 C  
ENDROOT
BRANCH   2   3
HETATM    3  C   UNL     1     -10.565  18.098  66.055  1.00  0.00    -0.278 C  
BRANCH   3   4
HETATM    4  C   UNL     1      -9.193  17.542  66.251  1.00  0.00    -0.203 A  
HETATM    5  N   UNL     1      -8.076  18.129  65.867  1.00  0.00    -0.528 NA 
HETATM    6  C   UNL     1      -7.055  17.297  66.254  1.00  0.00    -0.276 A  
HETATM    7  C   UNL     1      -7.572  16.179  66.875  1.00  0.00    -0.240 A  
HETATM    8  C   UNL     1      -5.641  17.649  65.995  1.00  0.00    -0.222 C  
HETATM    9  N   UNL     1      -8.915  16.348  66.878  1.00  0.00    -0.204 NA 
HETATM   10  N   UNL     1      -9.767  15.459  67.475  1.00  0.00    -0.208 NA 
HETATM   11  C   UNL     1      -9.146  14.293  67.905  1.00  0.00    -0.190 C  
HETATM   12  N   UNL     1      -7.866  14.081  67.900  1.00  0.00    -0.143 N  
HETATM   13  O   UNL     1      -5.758  14.867  67.530  1.00  0.00    -0.327 OA 
HETATM   14  H   UNL     1      -7.514  13.185  68.237  1.00  0.00     0.000 HD 
HETATM   15  C   UNL     1      -6.969  15.022  67.456  1.00  0.00    -0.186 C  
BRANCH  11  16
HETATM   16  C   UNL     1     -10.023  13.169  68.418  1.00  0.00    -0.223 A  
HETATM   17  C   UNL     1     -12.021  12.307  69.511  1.00  0.00    -0.333 A  
HETATM   18  C   UNL     1     -11.266  13.402  69.055  1.00  0.00    -0.275 A  
HETATM   19  C   UNL     1      -9.554  11.851  68.287  1.00  0.00    -0.201 A  
HETATM   20  C   UNL     1     -11.554  11.003  69.366  1.00  0.00    -0.383 A  
HETATM   21  C   UNL     1     -10.323  10.781  68.759  1.00  0.00    -0.192 A  
BRANCH  18  22
HETATM   22  O   UNL     1     -11.700  14.697  69.183  1.00  0.00    -0.278 OA 
BRANCH  22  23
HETATM   23  C   UNL     1     -12.389  15.046  70.385  1.00  0.00    -0.348 C  
HETATM   24  C   UNL     1     -11.430  15.748  71.325  1.00  0.00    -0.481 C  
ENDBRANCH  22  23
ENDBRANCH  18  22
BRANCH  21  25
HETATM   25  S   UNL     1      -9.638   9.146  68.788  1.00  0.00    -0.161 S  
HETATM   26  O   UNL     1     -10.305   8.426  69.850  1.00  0.00    -0.201 OA 
HETATM   27  O   UNL     1      -8.199   9.292  68.778  1.00  0.00    -0.109 OA 
BRANCH  25  28
HETATM   28  N   UNL     1     -10.143   8.479  67.297  1.00  0.00    -0.226 N  
HETATM   29  C   UNL     1      -9.129   8.430  66.195  1.00  0.00    -0.189 C  
HETATM   30  C   UNL     1      -8.133   7.254  66.359  1.00  0.00    -0.119 C  
HETATM   31  N   UNL     1      -8.749   5.927  66.595  1.00  0.00    -0.119 NA 
HETATM   32  C   UNL     1      -9.751   6.040  67.678  1.00  0.00    -0.115 C  
HETATM   33  C   UNL     1     -10.802   7.141  67.439  1.00  0.00    -0.276 C  
BRANCH  31  34
HETATM   34  C   UNL     1      -9.280   5.364  65.346  1.00  0.00    -0.041 C  
HETATM   35  C   UNL     1     -10.132   4.116  65.546  1.00  0.00    -0.198 C  
ENDBRANCH  31  34
ENDBRANCH  25  28
ENDBRANCH  21  25
ENDBRANCH  11  16
ENDBRANCH   3   4
ENDBRANCH   2   3
TORSDOF 8
ENDMDL
MODEL       71
REMARK 921   NORMALIZED FREE ENERGY PREDICTED BY IDOCK:   -5.47 KCAL/MOL
REMARK 922        TOTAL FREE ENERGY PREDICTED BY IDOCK:   -9.04 KCAL/MOL
REMARK 923 INTER-LIGAND FREE ENERGY PREDICTED BY IDOCK:   -7.99 KCAL/MOL
REMARK 924 INTRA-LIGAND FREE ENERGY PREDICTED BY IDOCK:   -1.04 KCAL/MOL
REMARK 927      BINDING AFFINITY PREDICTED BY RF-SCORE:    0.00 PKD
ROOT
HETATM    1  C   UNL     1     -10.177   4.234  64.980  1.00  0.00    -0.213 C  
HETATM    2  C   UNL     1     -10.663   5.017  66.193  1.00  0.00    -0.264 C  
ENDROOT
BRANCH   2   3
HETATM    3  C   UNL     1      -9.808   6.242  66.522  1.00  0.00    -0.176 C  
BRANCH   3   4
HETATM    4  C   UNL     1      -9.270   6.226  67.915  1.00  0.00    -0.116 A  
HETATM    5  N   UNL     1      -8.614   5.220  68.462  1.00  0.00    -0.095 NA 
HETATM    6  C   UNL     1      -8.288   5.624  69.733  1.00  0.00    -0.107 A  
HETATM    7  C   UNL     1      -8.768   6.897  69.957  1.00  0.00    -0.142 A  
HETATM    8  C   UNL     1      -7.525   4.741  70.643  1.00  0.00    -0.057 C  
HETATM    9  N   UNL     1      -9.374   7.270  68.806  1.00  0.00    -0.143 NA 
HETATM   10  N   UNL     1      -9.919   8.513  68.631  1.00  0.00    -0.178 NA 
HETATM   11  C   UNL     1      -9.957   9.275  69.793  1.00  0.00    -0.199 C  
HETATM   12  N   UNL     1      -9.409   8.946  70.922  1.00  0.00    -0.215 N  
HETATM   13  O   UNL     1      -8.117   7.495  72.116  1.00  0.00    -0.097 OA 
HETATM   14  H   UNL     1      -9.499   9.580  71.716  1.00  0.00     0.000 HD 
HETATM   15  C   UNL     1      -8.712   7.773  71.084  1.00  0.00    -0.135 C  
BRANCH  11  16
HETATM   16  C   UNL     1     -10.699  10.595  69.752  1.00  0.00    -0.283 A  
HETATM   17  C   UNL     1     -12.394  12.153  70.546  1.00  0.00    -0.358 A  
HETATM   18  C   UNL     1     -11.749  10.908  70.649  1.00  0.00    -0.316 A  
HETATM   19  C   UNL     1     -10.347  11.521  68.756  1.00  0.00    -0.213 A  
HETATM   20  C   UNL     1     -12.031  13.070  69.563  1.00  0.00    -0.350 A  
HETATM   21  C   UNL     1     -11.013  12.749  68.672  1.00  0.00    -0.260 A  
BRANCH  18  22
HETATM   22  O   UNL     1     -12.085   9.985  71.607  1.00  0.00    -0.387 OA 
BRANCH  22  23
HETATM   23  C   UNL     1     -13.309   9.270  71.435  1.00  0.00    -0.325 C  
HETATM   24  C   UNL     1     -13.961   9.061  72.787  1.00  0.00    -0.256 C  
ENDBRANCH  22  23
ENDBRANCH  18  22
BRANCH  21  25
HETATM   25  S   UNL     1     -10.719  13.820  67.290  1.00  0.00    -0.285 S  
HETATM   26  O   UNL     1     -12.011  14.203  66.767  1.00  0.00    -0.411 OA 
HETATM   27  O   UNL     1      -9.741  13.165  66.449  1.00  0.00    -0.261 OA 
BRANCH  25  28
HETATM   28  N   UNL     1     -10.006  15.200  68.003  1.00  0.00    -0.220 N  
HETATM   29  C   UNL     1      -8.591  15.511  67.620  1.00  0.00    -0.165 C  
HETATM   30  C   UNL     1      -8.491  16.203  66.237  1.00  0.00    -0.322 C  
HETATM   31  N   UNL     1      -9.380  17.373  66.044  1.00  0.00    -0.508 NA 
HETATM   32  C   UNL     1     -10.756  17.013  66.454  1.00  0.00    -0.075 C  
HETATM   33  C   UNL     1     -10.847  16.434  67.878  1.00  0.00    -0.328 C  
BRANCH  31  34
HETATM   34  C   UNL     1      -8.843  18.558  66.727  1.00  0.00    -0.282 C  
HETATM   35  C   UNL     1      -7.324  18.676  66.652  1.00  0.00    -0.249 C  
ENDBRANCH  31  34
ENDBRANCH  25  28
ENDBRANCH  21  25
ENDBRANCH  11  16
ENDBRANCH   3   4
ENDBRANCH   2   3
TORSDOF 8
ENDMDL
MODEL       72
REMARK 921   NORMALIZED FREE ENERGY PREDICTED BY IDOCK:   -5.47 KCAL/MOL
REMARK 922        TOTAL FREE ENERGY PREDICTED BY IDOCK:   -9.03 KCAL/MOL
REMARK 923 INTER-LIGAND FREE ENERGY PREDICTED BY IDOCK:   -8.03 KCAL/MOL
REMARK 924 INTRA-LIGAND FREE ENERGY PREDICTED BY IDOCK:   -1.01 KCAL/MOL
REMARK 927      BINDING AFFINITY PREDICTED BY RF-SCORE:    0.00 PKD
ROOT
HETATM    1  C   UNL     1      -8.619  18.187  67.898  1.00  0.00    -0.259 C  
HETATM    2  C   UNL     1      -8.388  17.585  66.517  1.00  0.00    -0.304 C  
ENDROOT
BRANCH   2   3
HETATM    3  C   UNL     1      -8.362  16.055  66.506  1.00  0.00    -0.348 C  
BRANCH   3   4
HETATM    4  C   UNL     1      -9.604  15.451  65.941  1.00  0.00    -0.351 A  
HETATM    5  N   UNL     1     -10.518  16.106  65.249  1.00  0.00    -0.572 NA 
HETATM    6  C   UNL     1     -11.473  15.180  64.908  1.00  0.00    -0.374 A  
HETATM    7  C   UNL     1     -11.131  13.944  65.415  1.00  0.00    -0.310 A  
HETATM    8  C   UNL     1     -12.657  15.563  64.106  1.00  0.00     0.346 C  
HETATM    9  N   UNL     1      -9.950  14.123  66.053  1.00  0.00    -0.313 NA 
HETATM   10  N   UNL     1      -9.264  13.091  66.632  1.00  0.00    -0.241 NA 
HETATM   11  C   UNL     1      -9.974  11.897  66.666  1.00  0.00    -0.199 C  
HETATM   12  N   UNL     1     -11.117  11.689  66.088  1.00  0.00    -0.300 N  
HETATM   13  O   UNL     1     -12.788  12.450  64.737  1.00  0.00    -0.728 OA 
HETATM   14  H   UNL     1     -11.554  10.772  66.178  1.00  0.00     0.000 HD 
HETATM   15  C   UNL     1     -11.757  12.661  65.359  1.00  0.00    -0.387 C  
BRANCH  11  16
HETATM   16  C   UNL     1      -9.379  10.738  67.441  1.00  0.00    -0.163 A  
HETATM   17  C   UNL     1      -7.773   8.934  67.747  1.00  0.00    -0.101 A  
HETATM   18  C   UNL     1      -8.264  10.001  66.974  1.00  0.00    -0.117 A  
HETATM   19  C   UNL     1      -9.993  10.366  68.649  1.00  0.00    -0.186 A  
HETATM   20  C   UNL     1      -8.379   8.579  68.949  1.00  0.00    -0.118 A  
HETATM   21  C   UNL     1      -9.486   9.294  69.392  1.00  0.00    -0.168 A  
BRANCH  18  22
HETATM   22  O   UNL     1      -7.687  10.374  65.787  1.00  0.00    -0.137 OA 
BRANCH  22  23
HETATM   23  C   UNL     1      -7.749   9.445  64.703  1.00  0.00    -0.117 C  
HETATM   24  C   UNL     1      -8.976   9.739  63.861  1.00  0.00    -0.277 C  
ENDBRANCH  22  23
ENDBRANCH  18  22
BRANCH  21  25
HETATM   25  S   UNL     1     -10.385   8.692  70.797  1.00  0.00    -0.216 S  
HETATM   26  O   UNL     1     -11.791   8.857  70.503  1.00  0.00    -0.190 OA 
HETATM   27  O   UNL     1      -9.794   9.300  71.969  1.00  0.00    -0.194 OA 
BRANCH  25  28
HETATM   28  N   UNL     1     -10.037   7.018  70.801  1.00  0.00    -0.194 N  
HETATM   29  C   UNL     1      -9.144   6.511  71.891  1.00  0.00    -0.148 C  
HETATM   30  C   UNL     1      -9.892   6.336  73.238  1.00  0.00    -0.168 C  
HETATM   31  N   UNL     1     -11.158   5.569  73.167  1.00  0.00    -0.288 NA 
HETATM   32  C   UNL     1     -11.990   6.101  72.065  1.00  0.00    -0.253 C  
HETATM   33  C   UNL     1     -11.261   6.158  70.709  1.00  0.00    -0.306 C  
BRANCH  31  34
HETATM   34  C   UNL     1     -10.893   4.127  73.074  1.00  0.00    -0.164 C  
HETATM   35  C   UNL     1      -9.939   3.606  74.143  1.00  0.00    -0.182 C  
ENDBRANCH  31  34
ENDBRANCH  25  28
ENDBRANCH  21  25
ENDBRANCH  11  16
ENDBRANCH   3   4
ENDBRANCH   2   3
TORSDOF 8
ENDMDL
MODEL       73
REMARK 921   NORMALIZED FREE ENERGY PREDICTED BY IDOCK:   -5.46 KCAL/MOL
REMARK 922        TOTAL FREE ENERGY PREDICTED BY IDOCK:   -9.02 KCAL/MOL
REMARK 923 INTER-LIGAND FREE ENERGY PREDICTED BY IDOCK:   -8.68 KCAL/MOL
REMARK 924 INTRA-LIGAND FREE ENERGY PREDICTED BY IDOCK:   -0.34 KCAL/MOL
REMARK 927      BINDING AFFINITY PREDICTED BY RF-SCORE:    0.00 PKD
ROOT
HETATM    1  C   UNL     1     -11.909   6.257  71.174  1.00  0.00    -0.234 C  
HETATM    2  C   UNL     1     -12.873   7.384  71.525  1.00  0.00    -0.416 C  
ENDROOT
BRANCH   2   3
HETATM    3  C   UNL     1     -12.260   8.466  72.416  1.00  0.00    -0.430 C  
BRANCH   3   4
HETATM    4  C   UNL     1     -10.767   8.444  72.424  1.00  0.00    -0.335 A  
HETATM    5  N   UNL     1     -10.022   7.940  73.390  1.00  0.00    -0.285 NA 
HETATM    6  C   UNL     1      -8.718   8.106  72.992  1.00  0.00    -0.243 A  
HETATM    7  C   UNL     1      -8.680   8.734  71.764  1.00  0.00    -0.153 A  
HETATM    8  C   UNL     1      -7.596   7.638  73.835  1.00  0.00    -0.162 C  
HETATM    9  N   UNL     1      -9.971   8.932  71.412  1.00  0.00    -0.280 NA 
HETATM   10  N   UNL     1     -10.330   9.479  70.210  1.00  0.00    -0.248 NA 
HETATM   11  C   UNL     1      -9.257   9.978  69.480  1.00  0.00    -0.221 C  
HETATM   12  N   UNL     1      -8.006   9.829  69.793  1.00  0.00    -0.146 N  
HETATM   13  O   UNL     1      -6.432   8.920  71.169  1.00  0.00    -0.053 OA 
HETATM   14  H   UNL     1      -7.296  10.239  69.187  1.00  0.00     0.000 HD 
HETATM   15  C   UNL     1      -7.607   9.141  70.913  1.00  0.00    -0.124 C  
BRANCH  11  16
HETATM   16  C   UNL     1      -9.558  10.762  68.219  1.00  0.00    -0.170 A  
HETATM   17  C   UNL     1     -10.031  10.933  65.837  1.00  0.00    -0.294 A  
HETATM   18  C   UNL     1      -9.761  10.138  66.964  1.00  0.00    -0.180 A  
HETATM   19  C   UNL     1      -9.594  12.164  68.304  1.00  0.00    -0.210 A  
HETATM   20  C   UNL     1     -10.076  12.322  65.932  1.00  0.00    -0.272 A  
HETATM   21  C   UNL     1      -9.855  12.930  67.162  1.00  0.00    -0.225 A  
BRANCH  18  22
HETATM   22  O   UNL     1      -9.711   8.768  66.901  1.00  0.00    -0.174 OA 
BRANCH  22  23
HETATM   23  C   UNL     1      -8.777   8.184  65.991  1.00  0.00    -0.156 C  
HETATM   24  C   UNL     1      -8.707   6.690  66.237  1.00  0.00    -0.150 C  
ENDBRANCH  22  23
ENDBRANCH  18  22
BRANCH  21  25
HETATM   25  S   UNL     1      -9.688  14.694  67.226  1.00  0.00    -0.235 S  
HETATM   26  O   UNL     1      -9.481  15.149  65.869  1.00  0.00    -0.318 OA 
HETATM   27  O   UNL     1      -8.725  14.989  68.265  1.00  0.00    -0.156 OA 
BRANCH  25  28
HETATM   28  N   UNL     1     -11.234  15.220  67.732  1.00  0.00    -0.320 N  
HETATM   29  C   UNL     1     -12.119  14.203  68.383  1.00  0.00    -0.273 C  
HETATM   30  C   UNL     1     -11.744  13.954  69.867  1.00  0.00    -0.291 C  
HETATM   31  N   UNL     1     -11.603  15.171  70.701  1.00  0.00    -0.286 NA 
HETATM   32  C   UNL     1     -10.734  16.144  70.001  1.00  0.00    -0.318 C  
HETATM   33  C   UNL     1     -11.193  16.465  68.566  1.00  0.00    -0.334 C  
BRANCH  31  34
HETATM   34  C   UNL     1     -12.919  15.706  71.075  1.00  0.00    -0.458 C  
HETATM   35  C   UNL     1     -13.712  14.794  72.005  1.00  0.00    -0.527 C  
ENDBRANCH  31  34
ENDBRANCH  25  28
ENDBRANCH  21  25
ENDBRANCH  11  16
ENDBRANCH   3   4
ENDBRANCH   2   3
TORSDOF 8
ENDMDL
MODEL       74
REMARK 921   NORMALIZED FREE ENERGY PREDICTED BY IDOCK:   -5.45 KCAL/MOL
REMARK 922        TOTAL FREE ENERGY PREDICTED BY IDOCK:   -9.00 KCAL/MOL
REMARK 923 INTER-LIGAND FREE ENERGY PREDICTED BY IDOCK:   -8.30 KCAL/MOL
REMARK 924 INTRA-LIGAND FREE ENERGY PREDICTED BY IDOCK:   -0.70 KCAL/MOL
REMARK 927      BINDING AFFINITY PREDICTED BY RF-SCORE:    0.00 PKD
ROOT
HETATM    1  C   UNL     1      -5.350  10.801  70.722  1.00  0.00    -0.105 C  
HETATM    2  C   UNL     1      -5.973  10.468  69.372  1.00  0.00    -0.039 C  
ENDROOT
BRANCH   2   3
HETATM    3  C   UNL     1      -7.442  10.047  69.456  1.00  0.00    -0.123 C  
BRANCH   3   4
HETATM    4  C   UNL     1      -8.094   9.919  68.120  1.00  0.00    -0.104 A  
HETATM    5  N   UNL     1      -7.976   8.880  67.315  1.00  0.00    -0.097 NA 
HETATM    6  C   UNL     1      -8.743   9.162  66.212  1.00  0.00    -0.140 A  
HETATM    7  C   UNL     1      -9.327  10.404  66.353  1.00  0.00    -0.164 A  
HETATM    8  C   UNL     1      -8.859   8.199  65.094  1.00  0.00     0.024 C  
HETATM    9  N   UNL     1      -8.921  10.866  67.559  1.00  0.00    -0.136 NA 
HETATM   10  N   UNL     1      -9.357  12.056  68.074  1.00  0.00    -0.190 NA 
HETATM   11  C   UNL     1     -10.092  12.819  67.175  1.00  0.00    -0.234 C  
HETATM   12  N   UNL     1     -10.483  12.423  66.003  1.00  0.00    -0.248 N  
HETATM   13  O   UNL     1     -10.638  10.755  64.456  1.00  0.00    -0.336 OA 
HETATM   14  H   UNL     1     -11.019  13.066  65.420  1.00  0.00     0.000 HD 
HETATM   15  C   UNL     1     -10.200  11.169  65.520  1.00  0.00    -0.263 C  
BRANCH  11  16
HETATM   16  C   UNL     1     -10.472  14.229  67.582  1.00  0.00    -0.248 A  
HETATM   17  C   UNL     1     -11.803  15.837  68.835  1.00  0.00    -0.354 A  
HETATM   18  C   UNL     1     -11.504  14.502  68.512  1.00  0.00    -0.301 A  
HETATM   19  C   UNL     1      -9.791  15.298  66.976  1.00  0.00    -0.233 A  
HETATM   20  C   UNL     1     -11.115  16.891  68.239  1.00  0.00    -0.213 A  
HETATM   21  C   UNL     1     -10.117  16.617  67.312  1.00  0.00    -0.279 A  
BRANCH  18  22
HETATM   22  O   UNL     1     -12.164  13.443  69.083  1.00  0.00    -0.292 OA 
BRANCH  22  23
HETATM   23  C   UNL     1     -11.969  13.221  70.481  1.00  0.00    -0.240 C  
HETATM   24  C   UNL     1     -13.157  13.771  71.246  1.00  0.00    -0.370 C  
ENDBRANCH  22  23
ENDBRANCH  18  22
BRANCH  21  25
HETATM   25  S   UNL     1      -9.412  17.960  66.393  1.00  0.00    -0.233 S  
HETATM   26  O   UNL     1     -10.479  18.546  65.612  1.00  0.00    -0.615 OA 
HETATM   27  O   UNL     1      -8.216  17.455  65.757  1.00  0.00    -0.540 OA 
BRANCH  25  28
HETATM   28  N   UNL     1      -8.969  19.080  67.607  1.00  0.00    -0.286 N  
HETATM   29  C   UNL     1      -7.910  18.650  68.575  1.00  0.00    -0.328 C  
HETATM   30  C   UNL     1      -6.482  18.763  67.981  1.00  0.00    -0.218 C  
HETATM   31  N   UNL     1      -6.155  20.066  67.356  1.00  0.00    -0.183 NA 
HETATM   32  C   UNL     1      -7.241  20.447  66.425  1.00  0.00    -0.236 C  
HETATM   33  C   UNL     1      -8.640  20.439  67.069  1.00  0.00    -0.283 C  
BRANCH  31  34
HETATM   34  C   UNL     1      -5.860  21.079  68.377  1.00  0.00    -0.332 C  
HETATM   35  C   UNL     1      -5.303  20.502  69.674  1.00  0.00    -0.360 C  
ENDBRANCH  31  34
ENDBRANCH  25  28
ENDBRANCH  21  25
ENDBRANCH  11  16
ENDBRANCH   3   4
ENDBRANCH   2   3
TORSDOF 8
ENDMDL
MODEL       75
REMARK 921   NORMALIZED FREE ENERGY PREDICTED BY IDOCK:   -5.39 KCAL/MOL
REMARK 922        TOTAL FREE ENERGY PREDICTED BY IDOCK:   -8.92 KCAL/MOL
REMARK 923 INTER-LIGAND FREE ENERGY PREDICTED BY IDOCK:   -8.74 KCAL/MOL
REMARK 924 INTRA-LIGAND FREE ENERGY PREDICTED BY IDOCK:   -0.18 KCAL/MOL
REMARK 927      BINDING AFFINITY PREDICTED BY RF-SCORE:    0.00 PKD
ROOT
HETATM    1  C   UNL     1     -11.035   5.979  67.192  1.00  0.00    -0.360 C  
HETATM    2  C   UNL     1      -9.952   7.012  66.908  1.00  0.00    -0.283 C  
ENDROOT
BRANCH   2   3
HETATM    3  C   UNL     1     -10.334   8.436  67.317  1.00  0.00    -0.369 C  
BRANCH   3   4
HETATM    4  C   UNL     1      -9.259   9.137  68.079  1.00  0.00    -0.134 A  
HETATM    5  N   UNL     1      -8.461   8.566  68.962  1.00  0.00    -0.124 NA 
HETATM    6  C   UNL     1      -7.617   9.554  69.407  1.00  0.00    -0.091 A  
HETATM    7  C   UNL     1      -7.921  10.746  68.785  1.00  0.00    -0.136 A  
HETATM    8  C   UNL     1      -6.566   9.266  70.408  1.00  0.00    -0.068 C  
HETATM    9  N   UNL     1      -8.947  10.472  67.946  1.00  0.00    -0.135 NA 
HETATM   10  N   UNL     1      -9.480  11.410  67.104  1.00  0.00    -0.174 NA 
HETATM   11  C   UNL     1      -9.003  12.696  67.327  1.00  0.00    -0.194 C  
HETATM   12  N   UNL     1      -8.038  13.006  68.138  1.00  0.00    -0.147 N  
HETATM   13  O   UNL     1      -6.403  12.330  69.576  1.00  0.00    -0.114 OA 
HETATM   14  H   UNL     1      -7.766  13.985  68.228  1.00  0.00     0.000 HD 
HETATM   15  C   UNL     1      -7.370  12.061  68.878  1.00  0.00    -0.067 C  
BRANCH  11  16
HETATM   16  C   UNL     1      -9.654  13.837  66.573  1.00  0.00    -0.295 A  
HETATM   17  C   UNL     1     -11.209  14.740  64.931  1.00  0.00    -0.411 A  
HETATM   18  C   UNL     1     -10.655  13.630  65.593  1.00  0.00    -0.293 A  
HETATM   19  C   UNL     1      -9.212  15.144  66.838  1.00  0.00    -0.259 A  
HETATM   20  C   UNL     1     -10.773  16.032  65.208  1.00  0.00    -0.417 A  
HETATM   21  C   UNL     1      -9.776  16.228  66.157  1.00  0.00    -0.329 A  
BRANCH  18  22
HETATM   22  O   UNL     1     -11.065  12.345  65.341  1.00  0.00    -0.288 OA 
BRANCH  22  23
HETATM   23  C   UNL     1     -11.464  12.029  64.006  1.00  0.00    -0.404 C  
HETATM   24  C   UNL     1     -10.251  11.584  63.214  1.00  0.00    -0.432 C  
ENDBRANCH  22  23
ENDBRANCH  18  22
BRANCH  21  25
HETATM   25  S   UNL     1      -9.070  17.845  66.334  1.00  0.00    -0.192 S  
HETATM   26  O   UNL     1     -10.058  18.792  65.864  1.00  0.00    -0.512 OA 
HETATM   27  O   UNL     1      -7.750  17.796  65.747  1.00  0.00    -0.541 OA 
BRANCH  25  28
HETATM   28  N   UNL     1      -8.923  18.029  68.027  1.00  0.00    -0.266 N  
HETATM   29  C   UNL     1      -7.720  17.415  68.676  1.00  0.00    -0.273 C  
HETATM   30  C   UNL     1      -6.444  18.277  68.494  1.00  0.00    -0.221 C  
HETATM   31  N   UNL     1      -6.587  19.709  68.849  1.00  0.00    -0.296 NA 
HETATM   32  C   UNL     1      -7.797  20.255  68.195  1.00  0.00    -0.105 C  
HETATM   33  C   UNL     1      -9.076  19.448  68.485  1.00  0.00    -0.375 C  
BRANCH  31  34
HETATM   34  C   UNL     1      -6.559  19.893  70.306  1.00  0.00    -0.180 C  
HETATM   35  C   UNL     1      -5.213  19.563  70.943  1.00  0.00    -0.251 C  
ENDBRANCH  31  34
ENDBRANCH  25  28
ENDBRANCH  21  25
ENDBRANCH  11  16
ENDBRANCH   3   4
ENDBRANCH   2   3
TORSDOF 8
ENDMDL
MODEL       76
REMARK 921   NORMALIZED FREE ENERGY PREDICTED BY IDOCK:   -5.38 KCAL/MOL
REMARK 922        TOTAL FREE ENERGY PREDICTED BY IDOCK:   -8.91 KCAL/MOL
REMARK 923 INTER-LIGAND FREE ENERGY PREDICTED BY IDOCK:   -8.12 KCAL/MOL
REMARK 924 INTRA-LIGAND FREE ENERGY PREDICTED BY IDOCK:   -0.79 KCAL/MOL
REMARK 927      BINDING AFFINITY PREDICTED BY RF-SCORE:    0.00 PKD
ROOT
HETATM    1  C   UNL     1      -8.139  10.457  62.449  1.00  0.00    -0.197 C  
HETATM    2  C   UNL     1      -9.576  10.591  62.938  1.00  0.00    -0.355 C  
ENDROOT
BRANCH   2   3
HETATM    3  C   UNL     1      -9.772  10.177  64.398  1.00  0.00    -0.345 C  
BRANCH   3   4
HETATM    4  C   UNL     1     -10.515  11.192  65.202  1.00  0.00    -0.277 A  
HETATM    5  N   UNL     1     -11.246  12.169  64.699  1.00  0.00    -0.313 NA 
HETATM    6  C   UNL     1     -11.762  12.851  65.773  1.00  0.00    -0.390 A  
HETATM    7  C   UNL     1     -11.323  12.277  66.947  1.00  0.00    -0.333 A  
HETATM    8  C   UNL     1     -12.654  14.016  65.581  1.00  0.00    -0.542 C  
HETATM    9  N   UNL     1     -10.549  11.230  66.578  1.00  0.00    -0.257 NA 
HETATM   10  N   UNL     1      -9.985  10.376  67.486  1.00  0.00    -0.175 NA 
HETATM   11  C   UNL     1     -10.123  10.791  68.805  1.00  0.00    -0.191 C  
HETATM   12  N   UNL     1     -10.837  11.800  69.200  1.00  0.00    -0.360 N  
HETATM   13  O   UNL     1     -12.294  13.479  68.694  1.00  0.00    -0.232 OA 
HETATM   14  H   UNL     1     -10.869  12.020  70.196  1.00  0.00     0.000 HD 
HETATM   15  C   UNL     1     -11.550  12.582  68.324  1.00  0.00    -0.328 C  
BRANCH  11  16
HETATM   16  C   UNL     1      -9.385  10.014  69.876  1.00  0.00    -0.207 A  
HETATM   17  C   UNL     1      -7.361   9.163  70.928  1.00  0.00    -0.129 A  
HETATM   18  C   UNL     1      -7.974   9.907  69.904  1.00  0.00    -0.182 A  
HETATM   19  C   UNL     1     -10.145   9.347  70.851  1.00  0.00    -0.366 A  
HETATM   20  C   UNL     1      -8.121   8.514  71.897  1.00  0.00    -0.185 A  
HETATM   21  C   UNL     1      -9.507   8.606  71.853  1.00  0.00    -0.299 A  
BRANCH  18  22
HETATM   22  O   UNL     1      -7.251  10.557  68.936  1.00  0.00    -0.073 OA 
BRANCH  22  23
HETATM   23  C   UNL     1      -6.303   9.790  68.193  1.00  0.00    -0.055 C  
HETATM   24  C   UNL     1      -7.038   8.924  67.188  1.00  0.00    -0.082 C  
ENDBRANCH  22  23
ENDBRANCH  18  22
BRANCH  21  25
HETATM   25  S   UNL     1     -10.466   7.593  72.948  1.00  0.00    -0.366 S  
HETATM   26  O   UNL     1     -11.718   8.281  73.174  1.00  0.00    -0.196 OA 
HETATM   27  O   UNL     1      -9.605   7.234  74.053  1.00  0.00    -0.265 OA 
BRANCH  25  28
HETATM   28  N   UNL     1     -10.789   6.198  72.014  1.00  0.00    -0.236 N  
HETATM   29  C   UNL     1      -9.608   5.448  71.480  1.00  0.00    -0.152 C  
HETATM   30  C   UNL     1      -8.943   4.548  72.553  1.00  0.00    -0.120 C  
HETATM   31  N   UNL     1      -9.865   3.659  73.298  1.00  0.00    -0.114 NA 
HETATM   32  C   UNL     1     -11.017   4.449  73.786  1.00  0.00    -0.280 C  
HETATM   33  C   UNL     1     -11.735   5.245  72.680  1.00  0.00    -0.098 C  
BRANCH  31  34
HETATM   34  C   UNL     1     -10.239   2.493  72.486  1.00  0.00    -0.159 C  
HETATM   35  C   UNL     1     -11.160   1.512  73.205  1.00  0.00    -0.259 C  
ENDBRANCH  31  34
ENDBRANCH  25  28
ENDBRANCH  21  25
ENDBRANCH  11  16
ENDBRANCH   3   4
ENDBRANCH   2   3
TORSDOF 8
ENDMDL
MODEL       77
REMARK 921   NORMALIZED FREE ENERGY PREDICTED BY IDOCK:   -5.36 KCAL/MOL
REMARK 922        TOTAL FREE ENERGY PREDICTED BY IDOCK:   -8.88 KCAL/MOL
REMARK 923 INTER-LIGAND FREE ENERGY PREDICTED BY IDOCK:   -8.32 KCAL/MOL
REMARK 924 INTRA-LIGAND FREE ENERGY PREDICTED BY IDOCK:   -0.56 KCAL/MOL
REMARK 927      BINDING AFFINITY PREDICTED BY RF-SCORE:    0.00 PKD
ROOT
HETATM    1  C   UNL     1      -5.222   6.006  73.260  1.00  0.00    -0.031 C  
HETATM    2  C   UNL     1      -5.997   5.319  72.142  1.00  0.00    -0.026 C  
ENDROOT
BRANCH   2   3
HETATM    3  C   UNL     1      -6.739   6.289  71.219  1.00  0.00    -0.058 C  
BRANCH   3   4
HETATM    4  C   UNL     1      -8.222   6.242  71.390  1.00  0.00    -0.122 A  
HETATM    5  N   UNL     1      -8.852   5.647  72.386  1.00  0.00    -0.135 NA 
HETATM    6  C   UNL     1     -10.191   5.858  72.170  1.00  0.00    -0.195 A  
HETATM    7  C   UNL     1     -10.370   6.586  71.012  1.00  0.00    -0.206 A  
HETATM    8  C   UNL     1     -11.208   5.337  73.110  1.00  0.00    -0.382 C  
HETATM    9  N   UNL     1      -9.127   6.831  70.536  1.00  0.00    -0.155 NA 
HETATM   10  N   UNL     1      -8.904   7.592  69.421  1.00  0.00    -0.139 NA 
HETATM   11  C   UNL     1     -10.062   7.925  68.729  1.00  0.00    -0.193 C  
HETATM   12  N   UNL     1     -11.271   7.690  69.139  1.00  0.00    -0.413 N  
HETATM   13  O   UNL     1     -12.665   6.924  70.772  1.00  0.00    -0.286 OA 
HETATM   14  H   UNL     1     -12.054   7.975  68.550  1.00  0.00     0.000 HD 
HETATM   15  C   UNL     1     -11.532   7.070  70.337  1.00  0.00    -0.310 C  
BRANCH  11  16
HETATM   16  C   UNL     1      -9.917   8.613  67.388  1.00  0.00    -0.270 A  
HETATM   17  C   UNL     1      -9.118   8.734  65.091  1.00  0.00    -0.104 A  
HETATM   18  C   UNL     1      -9.216   8.031  66.304  1.00  0.00    -0.184 A  
HETATM   19  C   UNL     1     -10.470   9.896  67.239  1.00  0.00    -0.319 A  
HETATM   20  C   UNL     1      -9.680  10.000  64.948  1.00  0.00    -0.377 A  
HETATM   21  C   UNL     1     -10.350  10.576  66.022  1.00  0.00    -0.211 A  
BRANCH  18  22
HETATM   22  O   UNL     1      -8.673   6.782  66.474  1.00  0.00    -0.125 OA 
BRANCH  22  23
HETATM   23  C   UNL     1      -9.408   5.668  65.964  1.00  0.00    -0.134 C  
HETATM   24  C   UNL     1      -9.617   4.657  67.074  1.00  0.00    -0.198 C  
ENDBRANCH  22  23
ENDBRANCH  18  22
BRANCH  21  25
HETATM   25  S   UNL     1     -10.856  12.271  65.904  1.00  0.00    -0.282 S  
HETATM   26  O   UNL     1     -12.273  12.311  66.193  1.00  0.00    -0.647 OA 
HETATM   27  O   UNL     1     -10.339  12.780  64.653  1.00  0.00    -0.324 OA 
BRANCH  25  28
HETATM   28  N   UNL     1     -10.029  13.022  67.197  1.00  0.00    -0.231 N  
HETATM   29  C   UNL     1      -9.594  14.441  66.995  1.00  0.00    -0.247 C  
HETATM   30  C   UNL     1     -10.757  15.449  67.182  1.00  0.00    -0.314 C  
HETATM   31  N   UNL     1     -11.542  15.290  68.429  1.00  0.00    -0.344 NA 
HETATM   32  C   UNL     1     -11.929  13.870  68.584  1.00  0.00    -0.366 C  
HETATM   33  C   UNL     1     -10.741  12.893  68.511  1.00  0.00    -0.254 C  
BRANCH  31  34
HETATM   34  C   UNL     1     -10.817  15.843  69.581  1.00  0.00    -0.314 C  
HETATM   35  C   UNL     1     -11.559  15.695  70.904  1.00  0.00    -0.424 C  
ENDBRANCH  31  34
ENDBRANCH  25  28
ENDBRANCH  21  25
ENDBRANCH  11  16
ENDBRANCH   3   4
ENDBRANCH   2   3
TORSDOF 8
ENDMDL
MODEL       78
REMARK 921   NORMALIZED FREE ENERGY PREDICTED BY IDOCK:   -5.35 KCAL/MOL
REMARK 922        TOTAL FREE ENERGY PREDICTED BY IDOCK:   -8.86 KCAL/MOL
REMARK 923 INTER-LIGAND FREE ENERGY PREDICTED BY IDOCK:   -7.68 KCAL/MOL
REMARK 924 INTRA-LIGAND FREE ENERGY PREDICTED BY IDOCK:   -1.19 KCAL/MOL
REMARK 927      BINDING AFFINITY PREDICTED BY RF-SCORE:    0.00 PKD
ROOT
HETATM    1  C   UNL     1     -12.770  11.865  63.448  1.00  0.00    -0.496 C  
HETATM    2  C   UNL     1     -12.161  13.258  63.359  1.00  0.00    -0.508 C  
ENDROOT
BRANCH   2   3
HETATM    3  C   UNL     1     -10.705  13.327  63.824  1.00  0.00     0.033 C  
BRANCH   3   4
HETATM    4  C   UNL     1     -10.478  14.343  64.894  1.00  0.00    -0.423 A  
HETATM    5  N   UNL     1     -10.702  15.638  64.769  1.00  0.00    -0.465 NA 
HETATM    6  C   UNL     1     -10.382  16.199  65.981  1.00  0.00    -0.358 A  
HETATM    7  C   UNL     1      -9.946  15.220  66.850  1.00  0.00    -0.239 A  
HETATM    8  C   UNL     1     -10.527  17.653  66.212  1.00  0.00    -0.292 C  
HETATM    9  N   UNL     1     -10.020  14.058  66.161  1.00  0.00    -0.303 NA 
HETATM   10  N   UNL     1      -9.724  12.848  66.727  1.00  0.00    -0.239 NA 
HETATM   11  C   UNL     1      -9.169  12.946  67.997  1.00  0.00    -0.212 C  
HETATM   12  N   UNL     1      -9.059  14.042  68.683  1.00  0.00    -0.320 N  
HETATM   13  O   UNL     1      -9.481  16.274  68.878  1.00  0.00    -0.231 OA 
HETATM   14  H   UNL     1      -8.632  14.002  69.609  1.00  0.00     0.000 HD 
HETATM   15  C   UNL     1      -9.498  15.252  68.206  1.00  0.00    -0.205 C  
BRANCH  11  16
HETATM   16  C   UNL     1      -8.642  11.680  68.643  1.00  0.00    -0.086 A  
HETATM   17  C   UNL     1      -6.864  10.115  69.207  1.00  0.00    -0.063 A  
HETATM   18  C   UNL     1      -7.276  11.308  68.588  1.00  0.00    -0.098 A  
HETATM   19  C   UNL     1      -9.561  10.831  69.282  1.00  0.00    -0.121 A  
HETATM   20  C   UNL     1      -7.779   9.285  69.849  1.00  0.00    -0.101 A  
HETATM   21  C   UNL     1      -9.122   9.645  69.881  1.00  0.00    -0.225 A  
BRANCH  18  22
HETATM   22  O   UNL     1      -6.398  12.145  67.949  1.00  0.00    -0.063 OA 
BRANCH  22  23
HETATM   23  C   UNL     1      -5.546  12.954  68.763  1.00  0.00    -0.071 C  
HETATM   24  C   UNL     1      -5.494  14.358  68.191  1.00  0.00    -0.122 C  
ENDBRANCH  22  23
ENDBRANCH  18  22
BRANCH  21  25
HETATM   25  S   UNL     1     -10.305   8.476  70.495  1.00  0.00    -0.206 S  
HETATM   26  O   UNL     1     -10.813   7.747  69.354  1.00  0.00    -0.207 OA 
HETATM   27  O   UNL     1     -11.199   9.201  71.371  1.00  0.00    -0.292 OA 
BRANCH  25  28
HETATM   28  N   UNL     1      -9.355   7.405  71.428  1.00  0.00    -0.143 N  
HETATM   29  C   UNL     1      -9.323   7.636  72.908  1.00  0.00    -0.198 C  
HETATM   30  C   UNL     1     -10.590   7.095  73.619  1.00  0.00    -0.333 C  
HETATM   31  N   UNL     1     -10.957   5.697  73.291  1.00  0.00    -0.277 NA 
HETATM   32  C   UNL     1     -10.955   5.524  71.821  1.00  0.00    -0.182 C  
HETATM   33  C   UNL     1      -9.641   5.960  71.147  1.00  0.00    -0.169 C  
BRANCH  31  34
HETATM   34  C   UNL     1     -10.094   4.747  74.006  1.00  0.00    -0.191 C  
HETATM   35  C   UNL     1     -10.629   3.319  74.019  1.00  0.00    -0.271 C  
ENDBRANCH  31  34
ENDBRANCH  25  28
ENDBRANCH  21  25
ENDBRANCH  11  16
ENDBRANCH   3   4
ENDBRANCH   2   3
TORSDOF 8
ENDMDL
MODEL       79
REMARK 921   NORMALIZED FREE ENERGY PREDICTED BY IDOCK:   -5.35 KCAL/MOL
REMARK 922        TOTAL FREE ENERGY PREDICTED BY IDOCK:   -8.86 KCAL/MOL
REMARK 923 INTER-LIGAND FREE ENERGY PREDICTED BY IDOCK:   -7.62 KCAL/MOL
REMARK 924 INTRA-LIGAND FREE ENERGY PREDICTED BY IDOCK:   -1.24 KCAL/MOL
REMARK 927      BINDING AFFINITY PREDICTED BY RF-SCORE:    0.00 PKD
ROOT
HETATM    1  C   UNL     1      -6.569  10.002  63.600  1.00  0.00    -0.130 C  
HETATM    2  C   UNL     1      -7.756  10.178  62.661  1.00  0.00    -0.149 C  
ENDROOT
BRANCH   2   3
HETATM    3  C   UNL     1      -9.071   9.626  63.216  1.00  0.00    -0.223 C  
BRANCH   3   4
HETATM    4  C   UNL     1      -9.950  10.680  63.801  1.00  0.00    -0.317 A  
HETATM    5  N   UNL     1     -10.556  11.629  63.112  1.00  0.00    -0.321 NA 
HETATM    6  C   UNL     1     -11.271  12.365  64.025  1.00  0.00    -0.396 A  
HETATM    7  C   UNL     1     -11.081  11.854  65.291  1.00  0.00    -0.299 A  
HETATM    8  C   UNL     1     -12.095  13.518  63.599  1.00  0.00    -0.459 C  
HETATM    9  N   UNL     1     -10.259  10.790  65.138  1.00  0.00    -0.296 NA 
HETATM   10  N   UNL     1      -9.897   9.985  66.184  1.00  0.00    -0.230 NA 
HETATM   11  C   UNL     1     -10.293  10.467  67.425  1.00  0.00    -0.224 C  
HETATM   12  N   UNL     1     -11.062  11.495  67.617  1.00  0.00    -0.247 N  
HETATM   13  O   UNL     1     -12.372  13.144  66.743  1.00  0.00    -0.316 OA 
HETATM   14  H   UNL     1     -11.291  11.766  68.573  1.00  0.00     0.000 HD 
HETATM   15  C   UNL     1     -11.578  12.229  66.577  1.00  0.00    -0.377 C  
BRANCH  11  16
HETATM   16  C   UNL     1      -9.793   9.748  68.661  1.00  0.00    -0.168 A  
HETATM   17  C   UNL     1      -8.221   9.428  70.493  1.00  0.00    -0.221 A  
HETATM   18  C   UNL     1      -8.627  10.149  69.357  1.00  0.00    -0.174 A  
HETATM   19  C   UNL     1     -10.500   8.616  69.100  1.00  0.00    -0.223 A  
HETATM   20  C   UNL     1      -8.935   8.314  70.929  1.00  0.00    -0.174 A  
HETATM   21  C   UNL     1     -10.068   7.912  70.230  1.00  0.00    -0.196 A  
BRANCH  18  22
HETATM   22  O   UNL     1      -7.944  11.250  68.905  1.00  0.00    -0.141 OA 
BRANCH  22  23
HETATM   23  C   UNL     1      -6.625  11.046  68.395  1.00  0.00    -0.058 C  
HETATM   24  C   UNL     1      -6.567  11.516  66.955  1.00  0.00    -0.138 C  
ENDBRANCH  22  23
ENDBRANCH  18  22
BRANCH  21  25
HETATM   25  S   UNL     1     -10.830   6.369  70.653  1.00  0.00    -0.297 S  
HETATM   26  O   UNL     1     -10.583   5.459  69.557  1.00  0.00    -0.292 OA 
HETATM   27  O   UNL     1     -12.179   6.668  71.081  1.00  0.00    -0.363 OA 
BRANCH  25  28
HETATM   28  N   UNL     1      -9.922   5.835  72.000  1.00  0.00    -0.172 N  
HETATM   29  C   UNL     1     -10.653   5.689  73.299  1.00  0.00    -0.250 C  
HETATM   30  C   UNL     1     -11.482   4.381  73.368  1.00  0.00    -0.203 C  
HETATM   31  N   UNL     1     -10.750   3.144  73.011  1.00  0.00    -0.150 NA 
HETATM   32  C   UNL     1     -10.035   3.352  71.731  1.00  0.00    -0.124 C  
HETATM   33  C   UNL     1      -9.126   4.595  71.724  1.00  0.00    -0.135 C  
BRANCH  31  34
HETATM   34  C   UNL     1      -9.884   2.708  74.115  1.00  0.00    -0.101 C  
HETATM   35  C   UNL     1      -8.932   1.578  73.741  1.00  0.00    -0.058 C  
ENDBRANCH  31  34
ENDBRANCH  25  28
ENDBRANCH  21  25
ENDBRANCH  11  16
ENDBRANCH   3   4
ENDBRANCH   2   3
TORSDOF 8
ENDMDL
MODEL       80
REMARK 921   NORMALIZED FREE ENERGY PREDICTED BY IDOCK:   -5.35 KCAL/MOL
REMARK 922        TOTAL FREE ENERGY PREDICTED BY IDOCK:   -8.86 KCAL/MOL
REMARK 923 INTER-LIGAND FREE ENERGY PREDICTED BY IDOCK:   -8.14 KCAL/MOL
REMARK 924 INTRA-LIGAND FREE ENERGY PREDICTED BY IDOCK:   -0.72 KCAL/MOL
REMARK 927      BINDING AFFINITY PREDICTED BY RF-SCORE:    0.00 PKD
ROOT
HETATM    1  C   UNL     1      -6.535  12.973  69.598  1.00  0.00    -0.044 C  
HETATM    2  C   UNL     1      -6.137  14.061  70.588  1.00  0.00    -0.153 C  
ENDROOT
BRANCH   2   3
HETATM    3  C   UNL     1      -5.143  15.077  70.023  1.00  0.00    -0.100 C  
BRANCH   3   4
HETATM    4  C   UNL     1      -5.701  16.459  69.937  1.00  0.00    -0.193 A  
HETATM    5  N   UNL     1      -5.263  17.497  70.624  1.00  0.00    -0.259 NA 
HETATM    6  C   UNL     1      -6.033  18.565  70.235  1.00  0.00    -0.094 A  
HETATM    7  C   UNL     1      -6.962  18.157  69.302  1.00  0.00    -0.152 A  
HETATM    8  C   UNL     1      -5.808  19.915  70.799  1.00  0.00    -0.330 C  
HETATM    9  N   UNL     1      -6.738  16.835  69.114  1.00  0.00    -0.212 NA 
HETATM   10  N   UNL     1      -7.436  16.095  68.198  1.00  0.00    -0.130 NA 
HETATM   11  C   UNL     1      -8.505  16.774  67.627  1.00  0.00    -0.190 C  
HETATM   12  N   UNL     1      -8.768  18.033  67.797  1.00  0.00    -0.248 N  
HETATM   13  O   UNL     1      -8.175  20.050  68.680  1.00  0.00    -0.171 OA 
HETATM   14  H   UNL     1      -9.582  18.433  67.331  1.00  0.00     0.000 HD 
HETATM   15  C   UNL     1      -7.988  18.845  68.584  1.00  0.00    -0.346 C  
BRANCH  11  16
HETATM   16  C   UNL     1      -9.448  15.994  66.735  1.00  0.00    -0.250 A  
HETATM   17  C   UNL     1     -11.056  15.812  64.915  1.00  0.00    -0.411 A  
HETATM   18  C   UNL     1     -10.196  16.602  65.697  1.00  0.00    -0.262 A  
HETATM   19  C   UNL     1      -9.609  14.620  66.983  1.00  0.00    -0.246 A  
HETATM   20  C   UNL     1     -11.200  14.449  65.160  1.00  0.00    -0.359 A  
HETATM   21  C   UNL     1     -10.479  13.861  66.193  1.00  0.00    -0.297 A  
BRANCH  18  22
HETATM   22  O   UNL     1     -10.033  17.947  65.479  1.00  0.00    -0.481 OA 
BRANCH  22  23
HETATM   23  C   UNL     1     -11.025  18.827  66.011  1.00  0.00     0.110 C  
HETATM   24  C   UNL     1     -10.481  20.242  66.027  1.00  0.00    -0.326 C  
ENDBRANCH  22  23
ENDBRANCH  18  22
BRANCH  21  25
HETATM   25  S   UNL     1     -10.842  12.184  66.641  1.00  0.00    -0.281 S  
HETATM   26  O   UNL     1     -10.048  11.334  65.782  1.00  0.00    -0.228 OA 
HETATM   27  O   UNL     1     -12.283  12.061  66.682  1.00  0.00    -0.550 OA 
BRANCH  25  28
HETATM   28  N   UNL     1     -10.226  12.057  68.230  1.00  0.00    -0.202 N  
HETATM   29  C   UNL     1     -11.173  12.346  69.354  1.00  0.00    -0.158 C  
HETATM   30  C   UNL     1     -12.120  11.155  69.650  1.00  0.00    -0.336 C  
HETATM   31  N   UNL     1     -11.457   9.841  69.819  1.00  0.00    -0.156 NA 
HETATM   32  C   UNL     1     -10.522   9.618  68.693  1.00  0.00    -0.210 C  
HETATM   33  C   UNL     1      -9.513  10.764  68.489  1.00  0.00    -0.181 C  
BRANCH  31  34
HETATM   34  C   UNL     1     -10.832   9.734  71.144  1.00  0.00    -0.263 C  
HETATM   35  C   UNL     1     -11.585   8.824  72.108  1.00  0.00    -0.434 C  
ENDBRANCH  31  34
ENDBRANCH  25  28
ENDBRANCH  21  25
ENDBRANCH  11  16
ENDBRANCH   3   4
ENDBRANCH   2   3
TORSDOF 8
ENDMDL
MODEL       81
REMARK 921   NORMALIZED FREE ENERGY PREDICTED BY IDOCK:   -5.33 KCAL/MOL
REMARK 922        TOTAL FREE ENERGY PREDICTED BY IDOCK:   -8.83 KCAL/MOL
REMARK 923 INTER-LIGAND FREE ENERGY PREDICTED BY IDOCK:   -8.04 KCAL/MOL
REMARK 924 INTRA-LIGAND FREE ENERGY PREDICTED BY IDOCK:   -0.79 KCAL/MOL
REMARK 927      BINDING AFFINITY PREDICTED BY RF-SCORE:    0.00 PKD
ROOT
HETATM    1  C   UNL     1     -10.678   6.639  72.221  1.00  0.00    -0.250 C  
HETATM    2  C   UNL     1     -10.645   7.935  71.419  1.00  0.00    -0.246 C  
ENDROOT
BRANCH   2   3
HETATM    3  C   UNL     1     -12.026   8.424  70.979  1.00  0.00    -0.255 C  
BRANCH   3   4
HETATM    4  C   UNL     1     -12.063   9.886  70.680  1.00  0.00    -0.257 A  
HETATM    5  N   UNL     1     -12.586  10.808  71.467  1.00  0.00    -0.399 NA 
HETATM    6  C   UNL     1     -12.394  12.008  70.829  1.00  0.00    -0.308 A  
HETATM    7  C   UNL     1     -11.751  11.802  69.626  1.00  0.00    -0.344 A  
HETATM    8  C   UNL     1     -12.847  13.278  71.437  1.00  0.00    -0.411 C  
HETATM    9  N   UNL     1     -11.539  10.467  69.547  1.00  0.00    -0.239 NA 
HETATM   10  N   UNL     1     -10.860   9.891  68.508  1.00  0.00    -0.231 NA 
HETATM   11  C   UNL     1     -10.581  10.769  67.467  1.00  0.00    -0.237 C  
HETATM   12  N   UNL     1     -10.788  12.049  67.493  1.00  0.00    -0.231 N  
HETATM   13  O   UNL     1     -11.436  13.900  68.657  1.00  0.00    -0.258 OA 
HETATM   14  H   UNL     1     -10.547  12.603  66.671  1.00  0.00     0.000 HD 
HETATM   15  C   UNL     1     -11.319  12.684  68.589  1.00  0.00    -0.291 C  
BRANCH  11  16
HETATM   16  C   UNL     1      -9.991  10.197  66.194  1.00  0.00    -0.310 A  
HETATM   17  C   UNL     1      -9.552  10.242  63.800  1.00  0.00    -0.344 A  
HETATM   18  C   UNL     1     -10.122  10.838  64.938  1.00  0.00    -0.322 A  
HETATM   19  C   UNL     1      -9.323   8.963  66.270  1.00  0.00    -0.279 A  
HETATM   20  C   UNL     1      -8.882   9.025  63.885  1.00  0.00    -0.034 A  
HETATM   21  C   UNL     1      -8.773   8.391  65.118  1.00  0.00    -0.083 A  
BRANCH  18  22
HETATM   22  O   UNL     1     -10.788  12.036  64.884  1.00  0.00    -0.282 OA 
BRANCH  22  23
HETATM   23  C   UNL     1     -11.280  12.461  63.612  1.00  0.00    -0.474 C  
HETATM   24  C   UNL     1     -12.654  11.864  63.382  1.00  0.00    -0.555 C  
ENDBRANCH  22  23
ENDBRANCH  18  22
BRANCH  21  25
HETATM   25  S   UNL     1      -8.124   6.741  65.176  1.00  0.00    -0.117 S  
HETATM   26  O   UNL     1      -6.942   6.780  66.007  1.00  0.00    -0.061 OA 
HETATM   27  O   UNL     1      -8.058   6.266  63.811  1.00  0.00    -0.114 OA 
BRANCH  25  28
HETATM   28  N   UNL     1      -9.333   5.870  66.013  1.00  0.00    -0.136 N  
HETATM   29  C   UNL     1      -9.711   4.529  65.462  1.00  0.00    -0.195 C  
HETATM   30  C   UNL     1      -8.688   3.426  65.836  1.00  0.00    -0.124 C  
HETATM   31  N   UNL     1      -8.334   3.347  67.273  1.00  0.00    -0.090 NA 
HETATM   32  C   UNL     1      -7.987   4.699  67.765  1.00  0.00    -0.092 C  
HETATM   33  C   UNL     1      -9.071   5.757  67.485  1.00  0.00    -0.106 C  
BRANCH  31  34
HETATM   34  C   UNL     1      -9.398   2.685  68.040  1.00  0.00    -0.202 C  
HETATM   35  C   UNL     1      -8.961   2.224  69.426  1.00  0.00    -0.163 C  
ENDBRANCH  31  34
ENDBRANCH  25  28
ENDBRANCH  21  25
ENDBRANCH  11  16
ENDBRANCH   3   4
ENDBRANCH   2   3
TORSDOF 8
ENDMDL
MODEL       82
REMARK 921   NORMALIZED FREE ENERGY PREDICTED BY IDOCK:   -5.33 KCAL/MOL
REMARK 922        TOTAL FREE ENERGY PREDICTED BY IDOCK:   -8.83 KCAL/MOL
REMARK 923 INTER-LIGAND FREE ENERGY PREDICTED BY IDOCK:   -9.17 KCAL/MOL
REMARK 924 INTRA-LIGAND FREE ENERGY PREDICTED BY IDOCK:    0.34 KCAL/MOL
REMARK 927      BINDING AFFINITY PREDICTED BY RF-SCORE:    0.00 PKD
ROOT
HETATM    1  C   UNL     1     -10.199  15.417  65.551  1.00  0.00    -0.411 C  
HETATM    2  C   UNL     1      -9.860  15.380  67.036  1.00  0.00    -0.236 C  
ENDROOT
BRANCH   2   3
HETATM    3  C   UNL     1     -10.688  16.350  67.882  1.00  0.00    -0.332 C  
BRANCH   3   4
HETATM    4  C   UNL     1     -11.382  15.686  69.025  1.00  0.00    -0.330 A  
HETATM    5  N   UNL     1     -11.935  16.316  70.045  1.00  0.00    -0.019 NA 
HETATM    6  C   UNL     1     -12.473  15.341  70.849  1.00  0.00    -0.388 A  
HETATM    7  C   UNL     1     -12.228  14.098  70.305  1.00  0.00    -0.349 A  
HETATM    8  C   UNL     1     -13.193  15.689  72.094  1.00  0.00    -0.547 C  
HETATM    9  N   UNL     1     -11.552  14.326  69.155  1.00  0.00    -0.285 NA 
HETATM   10  N   UNL     1     -11.191  13.318  68.302  1.00  0.00    -0.260 NA 
HETATM   11  C   UNL     1     -11.413  12.046  68.814  1.00  0.00    -0.300 C  
HETATM   12  N   UNL     1     -12.036  11.784  69.922  1.00  0.00    -0.303 N  
HETATM   13  O   UNL     1     -13.222  12.532  71.720  1.00  0.00    -0.435 OA 
HETATM   14  H   UNL     1     -12.143  10.810  70.207  1.00  0.00     0.000 HD 
HETATM   15  C   UNL     1     -12.557  12.771  70.722  1.00  0.00    -0.225 C  
BRANCH  11  16
HETATM   16  C   UNL     1     -10.887  10.861  68.029  1.00  0.00    -0.293 A  
HETATM   17  C   UNL     1     -10.239   9.748  65.963  1.00  0.00    -0.263 A  
HETATM   18  C   UNL     1     -10.727  10.890  66.622  1.00  0.00    -0.230 A  
HETATM   19  C   UNL     1     -10.588   9.682  68.731  1.00  0.00    -0.242 A  
HETATM   20  C   UNL     1      -9.934   8.587  66.668  1.00  0.00    -0.363 A  
HETATM   21  C   UNL     1     -10.112   8.558  68.046  1.00  0.00    -0.200 A  
BRANCH  18  22
HETATM   22  O   UNL     1     -11.036  12.047  65.954  1.00  0.00    -0.301 OA 
BRANCH  22  23
HETATM   23  C   UNL     1     -10.422  12.259  64.682  1.00  0.00    -0.303 C  
HETATM   24  C   UNL     1     -11.496  12.353  63.617  1.00  0.00    -0.568 C  
ENDBRANCH  22  23
ENDBRANCH  18  22
BRANCH  21  25
HETATM   25  S   UNL     1      -9.941   7.012  68.898  1.00  0.00    -0.165 S  
HETATM   26  O   UNL     1      -8.718   6.402  68.427  1.00  0.00    -0.115 OA 
HETATM   27  O   UNL     1     -11.208   6.325  68.782  1.00  0.00    -0.363 OA 
BRANCH  25  28
HETATM   28  N   UNL     1      -9.707   7.481  70.525  1.00  0.00    -0.179 N  
HETATM   29  C   UNL     1     -10.880   7.350  71.447  1.00  0.00    -0.229 C  
HETATM   30  C   UNL     1     -11.100   5.891  71.922  1.00  0.00    -0.268 C  
HETATM   31  N   UNL     1      -9.900   5.210  72.464  1.00  0.00    -0.157 NA 
HETATM   32  C   UNL     1      -8.772   5.388  71.522  1.00  0.00    -0.135 C  
HETATM   33  C   UNL     1      -8.497   6.858  71.154  1.00  0.00    -0.123 C  
BRANCH  31  34
HETATM   34  C   UNL     1      -9.614   5.662  73.832  1.00  0.00    -0.146 C  
HETATM   35  C   UNL     1      -8.200   5.338  74.304  1.00  0.00    -0.108 C  
ENDBRANCH  31  34
ENDBRANCH  25  28
ENDBRANCH  21  25
ENDBRANCH  11  16
ENDBRANCH   3   4
ENDBRANCH   2   3
TORSDOF 8
ENDMDL
MODEL       83
REMARK 921   NORMALIZED FREE ENERGY PREDICTED BY IDOCK:   -5.32 KCAL/MOL
REMARK 922        TOTAL FREE ENERGY PREDICTED BY IDOCK:   -8.82 KCAL/MOL
REMARK 923 INTER-LIGAND FREE ENERGY PREDICTED BY IDOCK:   -8.10 KCAL/MOL
REMARK 924 INTRA-LIGAND FREE ENERGY PREDICTED BY IDOCK:   -0.72 KCAL/MOL
REMARK 927      BINDING AFFINITY PREDICTED BY RF-SCORE:    0.00 PKD
ROOT
HETATM    1  C   UNL     1      -7.373   9.110  65.233  1.00  0.00    -0.092 C  
HETATM    2  C   UNL     1      -7.835  10.553  65.070  1.00  0.00    -0.055 C  
ENDROOT
BRANCH   2   3
HETATM    3  C   UNL     1      -9.355  10.710  64.997  1.00  0.00    -0.259 C  
BRANCH   3   4
HETATM    4  C   UNL     1      -9.830  12.047  65.462  1.00  0.00    -0.229 A  
HETATM    5  N   UNL     1      -9.668  13.179  64.803  1.00  0.00     0.039 NA 
HETATM    6  C   UNL     1     -10.263  14.152  65.567  1.00  0.00    -0.351 A  
HETATM    7  C   UNL     1     -10.785  13.594  66.715  1.00  0.00    -0.272 A  
HETATM    8  C   UNL     1     -10.287  15.564  65.124  1.00  0.00    -0.388 C  
HETATM    9  N   UNL     1     -10.516  12.269  66.634  1.00  0.00    -0.220 NA 
HETATM   10  N   UNL     1     -10.944  11.374  67.576  1.00  0.00    -0.242 NA 
HETATM   11  C   UNL     1     -11.506  11.969  68.699  1.00  0.00    -0.297 C  
HETATM   12  N   UNL     1     -11.760  13.235  68.827  1.00  0.00    -0.308 N  
HETATM   13  O   UNL     1     -11.807  15.320  67.905  1.00  0.00    -0.303 OA 
HETATM   14  H   UNL     1     -12.173  13.568  69.698  1.00  0.00     0.000 HD 
HETATM   15  C   UNL     1     -11.491  14.141  67.830  1.00  0.00    -0.325 C  
BRANCH  11  16
HETATM   16  C   UNL     1     -11.850  11.081  69.877  1.00  0.00    -0.431 A  
HETATM   17  C   UNL     1     -12.738  10.693  72.111  1.00  0.00    -0.117 A  
HETATM   18  C   UNL     1     -12.453  11.579  71.057  1.00  0.00    -0.356 A  
HETATM   19  C   UNL     1     -11.516   9.718  69.798  1.00  0.00    -0.145 A  
HETATM   20  C   UNL     1     -12.415   9.342  72.020  1.00  0.00    -0.451 A  
HETATM   21  C   UNL     1     -11.804   8.862  70.867  1.00  0.00    -0.240 A  
BRANCH  18  22
HETATM   22  O   UNL     1     -12.761  12.915  71.118  1.00  0.00    -0.360 OA 
BRANCH  22  23
HETATM   23  C   UNL     1     -13.382  13.395  72.312  1.00  0.00    -0.544 C  
HETATM   24  C   UNL     1     -12.992  14.844  72.531  1.00  0.00    -0.472 C  
ENDBRANCH  22  23
ENDBRANCH  18  22
BRANCH  21  25
HETATM   25  S   UNL     1     -11.191   7.198  70.854  1.00  0.00    -0.288 S  
HETATM   26  O   UNL     1     -10.299   7.083  69.722  1.00  0.00    -0.200 OA 
HETATM   27  O   UNL     1     -12.336   6.325  70.990  1.00  0.00    -0.069 OA 
BRANCH  25  28
HETATM   28  N   UNL     1     -10.251   7.112  72.280  1.00  0.00    -0.188 N  
HETATM   29  C   UNL     1     -10.672   6.113  73.313  1.00  0.00    -0.260 C  
HETATM   30  C   UNL     1     -10.226   4.671  72.959  1.00  0.00    -0.169 C  
HETATM   31  N   UNL     1      -8.796   4.517  72.599  1.00  0.00    -0.113 NA 
HETATM   32  C   UNL     1      -8.435   5.538  71.591  1.00  0.00    -0.131 C  
HETATM   33  C   UNL     1      -8.782   6.978  72.014  1.00  0.00    -0.123 C  
BRANCH  31  34
HETATM   34  C   UNL     1      -7.948   4.533  73.799  1.00  0.00    -0.101 C  
HETATM   35  C   UNL     1      -6.532   4.023  73.558  1.00  0.00    -0.041 C  
ENDBRANCH  31  34
ENDBRANCH  25  28
ENDBRANCH  21  25
ENDBRANCH  11  16
ENDBRANCH   3   4
ENDBRANCH   2   3
TORSDOF 8
ENDMDL
MODEL       84
REMARK 921   NORMALIZED FREE ENERGY PREDICTED BY IDOCK:   -5.29 KCAL/MOL
REMARK 922        TOTAL FREE ENERGY PREDICTED BY IDOCK:   -8.77 KCAL/MOL
REMARK 923 INTER-LIGAND FREE ENERGY PREDICTED BY IDOCK:   -7.84 KCAL/MOL
REMARK 924 INTRA-LIGAND FREE ENERGY PREDICTED BY IDOCK:   -0.93 KCAL/MOL
REMARK 927      BINDING AFFINITY PREDICTED BY RF-SCORE:    0.00 PKD
ROOT
HETATM    1  C   UNL     1     -12.915  15.128  70.851  1.00  0.00    -0.488 C  
HETATM    2  C   UNL     1     -12.393  13.973  70.005  1.00  0.00    -0.397 C  
ENDROOT
BRANCH   2   3
HETATM    3  C   UNL     1     -11.196  14.342  69.127  1.00  0.00    -0.302 C  
BRANCH   3   4
HETATM    4  C   UNL     1     -11.380  13.965  67.694  1.00  0.00    -0.309 A  
HETATM    5  N   UNL     1     -12.010  14.696  66.793  1.00  0.00    -0.338 NA 
HETATM    6  C   UNL     1     -11.934  13.998  65.614  1.00  0.00    -0.397 A  
HETATM    7  C   UNL     1     -11.252  12.816  65.813  1.00  0.00    -0.307 A  
HETATM    8  C   UNL     1     -12.529  14.533  64.369  1.00  0.00    -0.335 C  
HETATM    9  N   UNL     1     -10.900  12.810  67.120  1.00  0.00    -0.252 NA 
HETATM   10  N   UNL     1     -10.145  11.811  67.673  1.00  0.00    -0.191 NA 
HETATM   11  C   UNL     1      -9.941  10.729  66.826  1.00  0.00    -0.206 C  
HETATM   12  N   UNL     1     -10.281  10.685  65.574  1.00  0.00    -0.271 N  
HETATM   13  O   UNL     1     -11.141  11.741  63.746  1.00  0.00    -0.375 OA 
HETATM   14  H   UNL     1     -10.085   9.838  65.041  1.00  0.00     0.000 HD 
HETATM   15  C   UNL     1     -10.896  11.739  64.944  1.00  0.00    -0.298 C  
BRANCH  11  16
HETATM   16  C   UNL     1      -9.271   9.496  67.396  1.00  0.00    -0.152 A  
HETATM   17  C   UNL     1      -8.051   7.400  67.183  1.00  0.00    -0.114 A  
HETATM   18  C   UNL     1      -8.646   8.521  66.580  1.00  0.00    -0.115 A  
HETATM   19  C   UNL     1      -9.314   9.303  68.787  1.00  0.00    -0.139 A  
HETATM   20  C   UNL     1      -8.087   7.222  68.564  1.00  0.00    -0.125 A  
HETATM   21  C   UNL     1      -8.720   8.172  69.358  1.00  0.00    -0.143 A  
BRANCH  18  22
HETATM   22  O   UNL     1      -8.626   8.723  65.224  1.00  0.00    -0.170 OA 
BRANCH  22  23
HETATM   23  C   UNL     1      -7.352   8.905  64.603  1.00  0.00    -0.101 C  
HETATM   24  C   UNL     1      -7.499   9.854  63.429  1.00  0.00    -0.132 C  
ENDBRANCH  22  23
ENDBRANCH  18  22
BRANCH  21  25
HETATM   25  S   UNL     1      -8.961   7.823  71.080  1.00  0.00    -0.144 S  
HETATM   26  O   UNL     1      -9.412   9.048  71.702  1.00  0.00    -0.282 OA 
HETATM   27  O   UNL     1      -7.769   7.148  71.544  1.00  0.00    -0.087 OA 
BRANCH  25  28
HETATM   28  N   UNL     1     -10.265   6.717  71.080  1.00  0.00    -0.193 N  
HETATM   29  C   UNL     1      -9.932   5.272  70.867  1.00  0.00    -0.208 C  
HETATM   30  C   UNL     1      -9.386   4.594  72.149  1.00  0.00    -0.136 C  
HETATM   31  N   UNL     1     -10.201   4.793  73.371  1.00  0.00    -0.160 NA 
HETATM   32  C   UNL     1     -10.513   6.232  73.520  1.00  0.00    -0.271 C  
HETATM   33  C   UNL     1     -11.162   6.859  72.272  1.00  0.00    -0.263 C  
BRANCH  31  34
HETATM   34  C   UNL     1     -11.385   3.923  73.359  1.00  0.00    -0.148 C  
HETATM   35  C   UNL     1     -11.054   2.434  73.360  1.00  0.00    -0.294 C  
ENDBRANCH  31  34
ENDBRANCH  25  28
ENDBRANCH  21  25
ENDBRANCH  11  16
ENDBRANCH   3   4
ENDBRANCH   2   3
TORSDOF 8
ENDMDL
MODEL       85
REMARK 921   NORMALIZED FREE ENERGY PREDICTED BY IDOCK:   -5.28 KCAL/MOL
REMARK 922        TOTAL FREE ENERGY PREDICTED BY IDOCK:   -8.75 KCAL/MOL
REMARK 923 INTER-LIGAND FREE ENERGY PREDICTED BY IDOCK:   -7.76 KCAL/MOL
REMARK 924 INTRA-LIGAND FREE ENERGY PREDICTED BY IDOCK:   -0.99 KCAL/MOL
REMARK 927      BINDING AFFINITY PREDICTED BY RF-SCORE:    0.00 PKD
ROOT
HETATM    1  C   UNL     1     -12.139  11.984  63.333  1.00  0.00    -0.597 C  
HETATM    2  C   UNL     1     -12.354  13.240  64.168  1.00  0.00    -0.408 C  
ENDROOT
BRANCH   2   3
HETATM    3  C   UNL     1     -12.298  12.996  65.677  1.00  0.00    -0.504 C  
BRANCH   3   4
HETATM    4  C   UNL     1     -10.980  13.351  66.281  1.00  0.00    -0.288 A  
HETATM    5  N   UNL     1     -10.295  14.447  66.013  1.00  0.00    -0.297 NA 
HETATM    6  C   UNL     1      -9.163  14.388  66.788  1.00  0.00    -0.268 A  
HETATM    7  C   UNL     1      -9.163  13.226  67.530  1.00  0.00    -0.213 A  
HETATM    8  C   UNL     1      -8.157  15.473  66.756  1.00  0.00    -0.247 C  
HETATM    9  N   UNL     1     -10.313  12.586  67.211  1.00  0.00    -0.219 NA 
HETATM   10  N   UNL     1     -10.692  11.415  67.807  1.00  0.00    -0.199 NA 
HETATM   11  C   UNL     1      -9.710  10.856  68.617  1.00  0.00    -0.185 C  
HETATM   12  N   UNL     1      -8.586  11.424  68.929  1.00  0.00    -0.354 N  
HETATM   13  O   UNL     1      -7.231  13.255  68.836  1.00  0.00    -0.102 OA 
HETATM   14  H   UNL     1      -7.933  10.923  69.532  1.00  0.00     0.000 HD 
HETATM   15  C   UNL     1      -8.246  12.675  68.477  1.00  0.00    -0.074 C  
BRANCH  11  16
HETATM   16  C   UNL     1      -9.958   9.472  69.183  1.00  0.00    -0.185 A  
HETATM   17  C   UNL     1     -10.899   7.940  70.825  1.00  0.00    -0.238 A  
HETATM   18  C   UNL     1     -10.717   9.254  70.358  1.00  0.00    -0.251 A  
HETATM   19  C   UNL     1      -9.372   8.375  68.529  1.00  0.00    -0.139 A  
HETATM   20  C   UNL     1     -10.324   6.858  70.164  1.00  0.00    -0.218 A  
HETATM   21  C   UNL     1      -9.562   7.080  69.023  1.00  0.00    -0.141 A  
BRANCH  18  22
HETATM   22  O   UNL     1     -11.272  10.340  70.987  1.00  0.00    -0.315 OA 
BRANCH  22  23
HETATM   23  C   UNL     1     -12.637  10.240  71.395  1.00  0.00    -0.434 C  
HETATM   24  C   UNL     1     -13.137  11.611  71.806  1.00  0.00    -0.487 C  
ENDBRANCH  22  23
ENDBRANCH  18  22
BRANCH  21  25
HETATM   25  S   UNL     1      -8.650   5.728  68.327  1.00  0.00    -0.111 S  
HETATM   26  O   UNL     1      -8.134   4.952  69.433  1.00  0.00    -0.077 OA 
HETATM   27  O   UNL     1      -7.763   6.285  67.331  1.00  0.00    -0.095 OA 
BRANCH  25  28
HETATM   28  N   UNL     1      -9.855   4.799  67.546  1.00  0.00    -0.170 N  
HETATM   29  C   UNL     1     -10.329   5.286  66.211  1.00  0.00    -0.239 C  
HETATM   30  C   UNL     1      -9.345   4.930  65.067  1.00  0.00    -0.067 C  
HETATM   31  N   UNL     1      -8.917   3.513  65.012  1.00  0.00    -0.127 NA 
HETATM   32  C   UNL     1      -8.477   3.084  66.359  1.00  0.00    -0.107 C  
HETATM   33  C   UNL     1      -9.519   3.341  67.463  1.00  0.00    -0.162 C  
BRANCH  31  34
HETATM   34  C   UNL     1      -9.970   2.669  64.431  1.00  0.00    -0.014 C  
HETATM   35  C   UNL     1     -10.583   3.241  63.157  1.00  0.00    -0.231 C  
ENDBRANCH  31  34
ENDBRANCH  25  28
ENDBRANCH  21  25
ENDBRANCH  11  16
ENDBRANCH   3   4
ENDBRANCH   2   3
TORSDOF 8
ENDMDL
MODEL       86
REMARK 921   NORMALIZED FREE ENERGY PREDICTED BY IDOCK:   -5.23 KCAL/MOL
REMARK 922        TOTAL FREE ENERGY PREDICTED BY IDOCK:   -8.68 KCAL/MOL
REMARK 923 INTER-LIGAND FREE ENERGY PREDICTED BY IDOCK:   -8.30 KCAL/MOL
REMARK 924 INTRA-LIGAND FREE ENERGY PREDICTED BY IDOCK:   -0.38 KCAL/MOL
REMARK 927      BINDING AFFINITY PREDICTED BY RF-SCORE:    0.00 PKD
ROOT
HETATM    1  C   UNL     1     -12.023  14.877  69.952  1.00  0.00    -0.376 C  
HETATM    2  C   UNL     1     -11.830  14.549  68.476  1.00  0.00    -0.355 C  
ENDROOT
BRANCH   2   3
HETATM    3  C   UNL     1     -11.891  13.053  68.163  1.00  0.00    -0.381 C  
BRANCH   3   4
HETATM    4  C   UNL     1     -11.695  12.747  66.715  1.00  0.00    -0.392 A  
HETATM    5  N   UNL     1     -12.280  13.388  65.720  1.00  0.00    -0.437 NA 
HETATM    6  C   UNL     1     -11.813  12.807  64.567  1.00  0.00    -0.379 A  
HETATM    7  C   UNL     1     -10.938  11.788  64.876  1.00  0.00    -0.300 A  
HETATM    8  C   UNL     1     -12.251  13.289  63.237  1.00  0.00    -0.387 C  
HETATM    9  N   UNL     1     -10.863  11.765  66.228  1.00  0.00    -0.271 NA 
HETATM   10  N   UNL     1     -10.030  10.915  66.903  1.00  0.00    -0.189 NA 
HETATM   11  C   UNL     1      -9.423   9.965  66.092  1.00  0.00    -0.200 C  
HETATM   12  N   UNL     1      -9.486   9.937  64.796  1.00  0.00    -0.291 N  
HETATM   13  O   UNL     1     -10.176  10.911  62.853  1.00  0.00    -0.240 OA 
HETATM   14  H   UNL     1      -9.003   9.191  64.296  1.00  0.00     0.000 HD 
HETATM   15  C   UNL     1     -10.183  10.877  64.076  1.00  0.00    -0.357 C  
BRANCH  11  16
HETATM   16  C   UNL     1      -8.622   8.866  66.761  1.00  0.00    -0.122 A  
HETATM   17  C   UNL     1      -6.728   7.342  66.895  1.00  0.00    -0.064 A  
HETATM   18  C   UNL     1      -7.412   8.367  66.219  1.00  0.00    -0.089 A  
HETATM   19  C   UNL     1      -9.131   8.302  67.942  1.00  0.00    -0.137 A  
HETATM   20  C   UNL     1      -7.233   6.796  68.072  1.00  0.00    -0.091 A  
HETATM   21  C   UNL     1      -8.432   7.276  68.588  1.00  0.00    -0.129 A  
BRANCH  18  22
HETATM   22  O   UNL     1      -6.939   8.924  65.058  1.00  0.00    -0.072 OA 
BRANCH  22  23
HETATM   23  C   UNL     1      -6.351   8.045  64.097  1.00  0.00    -0.062 C  
HETATM   24  C   UNL     1      -7.432   7.521  63.172  1.00  0.00    -0.104 C  
ENDBRANCH  22  23
ENDBRANCH  18  22
BRANCH  21  25
HETATM   25  S   UNL     1      -9.178   6.423  69.952  1.00  0.00    -0.152 S  
HETATM   26  O   UNL     1      -8.573   6.941  71.159  1.00  0.00    -0.130 OA 
HETATM   27  O   UNL     1      -9.130   5.011  69.643  1.00  0.00    -0.103 OA 
BRANCH  25  28
HETATM   28  N   UNL     1     -10.804   6.949  69.906  1.00  0.00    -0.244 N  
HETATM   29  C   UNL     1     -11.769   6.258  70.818  1.00  0.00    -0.220 C  
HETATM   30  C   UNL     1     -11.670   6.765  72.280  1.00  0.00    -0.263 C  
HETATM   31  N   UNL     1     -11.717   8.237  72.448  1.00  0.00    -0.387 NA 
HETATM   32  C   UNL     1     -10.758   8.865  71.512  1.00  0.00    -0.328 C  
HETATM   33  C   UNL     1     -10.950   8.435  70.045  1.00  0.00    -0.194 C  
BRANCH  31  34
HETATM   34  C   UNL     1     -13.092   8.736  72.320  1.00  0.00    -0.409 C  
HETATM   35  C   UNL     1     -13.186  10.251  72.168  1.00  0.00    -0.443 C  
ENDBRANCH  31  34
ENDBRANCH  25  28
ENDBRANCH  21  25
ENDBRANCH  11  16
ENDBRANCH   3   4
ENDBRANCH   2   3
TORSDOF 8
ENDMDL
MODEL       87
REMARK 921   NORMALIZED FREE ENERGY PREDICTED BY IDOCK:   -5.20 KCAL/MOL
REMARK 922        TOTAL FREE ENERGY PREDICTED BY IDOCK:   -8.64 KCAL/MOL
REMARK 923 INTER-LIGAND FREE ENERGY PREDICTED BY IDOCK:   -7.92 KCAL/MOL
REMARK 924 INTRA-LIGAND FREE ENERGY PREDICTED BY IDOCK:   -0.72 KCAL/MOL
REMARK 927      BINDING AFFINITY PREDICTED BY RF-SCORE:    0.00 PKD
ROOT
HETATM    1  C   UNL     1     -12.043  13.905  64.546  1.00  0.00    -0.473 C  
HETATM    2  C   UNL     1     -11.459  15.273  64.216  1.00  0.00    -0.162 C  
ENDROOT
BRANCH   2   3
HETATM    3  C   UNL     1     -11.286  16.181  65.436  1.00  0.00    -0.006 C  
BRANCH   3   4
HETATM    4  C   UNL     1      -9.958  16.025  66.101  1.00  0.00    -0.325 A  
HETATM    5  N   UNL     1      -8.888  16.751  65.836  1.00  0.00    -0.513 NA 
HETATM    6  C   UNL     1      -7.901  16.296  66.675  1.00  0.00    -0.275 A  
HETATM    7  C   UNL     1      -8.386  15.267  67.454  1.00  0.00    -0.181 A  
HETATM    8  C   UNL     1      -6.550  16.900  66.663  1.00  0.00    -0.252 C  
HETATM    9  N   UNL     1      -9.682  15.111  67.093  1.00  0.00    -0.225 NA 
HETATM   10  N   UNL     1     -10.513  14.213  67.705  1.00  0.00    -0.244 NA 
HETATM   11  C   UNL     1      -9.861  13.359  68.587  1.00  0.00    -0.112 C  
HETATM   12  N   UNL     1      -8.617  13.459  68.943  1.00  0.00    -0.363 N  
HETATM   13  O   UNL     1      -6.650  14.609  68.865  1.00  0.00    -0.086 OA 
HETATM   14  H   UNL     1      -8.237  12.776  69.598  1.00  0.00     0.000 HD 
HETATM   15  C   UNL     1      -7.796  14.453  68.469  1.00  0.00    -0.138 C  
BRANCH  11  16
HETATM   16  C   UNL     1     -10.653  12.214  69.184  1.00  0.00    -0.046 A  
HETATM   17  C   UNL     1     -12.536  11.299  70.427  1.00  0.00    -0.292 A  
HETATM   18  C   UNL     1     -11.861  12.412  69.897  1.00  0.00    -0.305 A  
HETATM   19  C   UNL     1     -10.138  10.913  69.052  1.00  0.00    -0.212 A  
HETATM   20  C   UNL     1     -12.025  10.012  70.282  1.00  0.00    -0.264 A  
HETATM   21  C   UNL     1     -10.828   9.826  69.599  1.00  0.00    -0.250 A  
BRANCH  18  22
HETATM   22  O   UNL     1     -12.340  13.691  70.024  1.00  0.00    -0.322 OA 
BRANCH  22  23
HETATM   23  C   UNL     1     -12.310  14.281  71.325  1.00  0.00    -0.363 C  
HETATM   24  C   UNL     1     -13.184  15.520  71.332  1.00  0.00    -0.587 C  
ENDBRANCH  22  23
ENDBRANCH  18  22
BRANCH  21  25
HETATM   25  S   UNL     1     -10.074   8.222  69.620  1.00  0.00    -0.204 S  
HETATM   26  O   UNL     1      -8.702   8.404  70.040  1.00  0.00    -0.129 OA 
HETATM   27  O   UNL     1     -10.386   7.592  68.356  1.00  0.00    -0.189 OA 
BRANCH  25  28
HETATM   28  N   UNL     1     -10.908   7.408  70.871  1.00  0.00    -0.236 N  
HETATM   29  C   UNL     1     -11.447   6.047  70.556  1.00  0.00    -0.157 C  
HETATM   30  C   UNL     1     -10.353   4.950  70.604  1.00  0.00    -0.162 C  
HETATM   31  N   UNL     1      -9.517   4.938  71.828  1.00  0.00    -0.146 NA 
HETATM   32  C   UNL     1      -9.027   6.309  72.098  1.00  0.00    -0.137 C  
HETATM   33  C   UNL     1     -10.146   7.365  72.161  1.00  0.00    -0.190 C  
BRANCH  31  34
HETATM   34  C   UNL     1     -10.241   4.329  72.952  1.00  0.00    -0.167 C  
HETATM   35  C   UNL     1     -10.136   2.809  73.000  1.00  0.00    -0.207 C  
ENDBRANCH  31  34
ENDBRANCH  25  28
ENDBRANCH  21  25
ENDBRANCH  11  16
ENDBRANCH   3   4
ENDBRANCH   2   3
TORSDOF 8
ENDMDL
MODEL       88
REMARK 921   NORMALIZED FREE ENERGY PREDICTED BY IDOCK:   -5.20 KCAL/MOL
REMARK 922        TOTAL FREE ENERGY PREDICTED BY IDOCK:   -8.63 KCAL/MOL
REMARK 923 INTER-LIGAND FREE ENERGY PREDICTED BY IDOCK:   -7.94 KCAL/MOL
REMARK 924 INTRA-LIGAND FREE ENERGY PREDICTED BY IDOCK:   -0.70 KCAL/MOL
REMARK 927      BINDING AFFINITY PREDICTED BY RF-SCORE:    0.00 PKD
ROOT
HETATM    1  C   UNL     1      -5.884  16.928  67.656  1.00  0.00    -0.159 C  
HETATM    2  C   UNL     1      -6.714  17.328  68.870  1.00  0.00    -0.218 C  
ENDROOT
BRANCH   2   3
HETATM    3  C   UNL     1      -8.051  16.591  68.974  1.00  0.00    -0.214 C  
BRANCH   3   4
HETATM    4  C   UNL     1      -8.986  16.909  67.855  1.00  0.00    -0.225 A  
HETATM    5  N   UNL     1      -9.475  18.107  67.594  1.00  0.00    -0.262 NA 
HETATM    6  C   UNL     1     -10.268  17.961  66.482  1.00  0.00    -0.379 A  
HETATM    7  C   UNL     1     -10.264  16.644  66.074  1.00  0.00    -0.351 A  
HETATM    8  C   UNL     1     -10.975  19.119  65.891  1.00  0.00    -0.143 C  
HETATM    9  N   UNL     1      -9.448  15.993  66.937  1.00  0.00    -0.220 NA 
HETATM   10  N   UNL     1      -9.148  14.665  66.805  1.00  0.00    -0.254 NA 
HETATM   11  C   UNL     1      -9.897  14.016  65.830  1.00  0.00    -0.281 C  
HETATM   12  N   UNL     1     -10.706  14.597  64.999  1.00  0.00    -0.404 N  
HETATM   13  O   UNL     1     -11.597  16.523  64.164  1.00  0.00    -1.052 OA 
HETATM   14  H   UNL     1     -11.210  14.025  64.322  1.00  0.00     0.000 HD 
HETATM   15  C   UNL     1     -10.906  15.956  64.999  1.00  0.00    -0.426 C  
BRANCH  11  16
HETATM   16  C   UNL     1      -9.771  12.510  65.723  1.00  0.00    -0.196 A  
HETATM   17  C   UNL     1     -10.084  10.388  64.571  1.00  0.00    -0.365 A  
HETATM   18  C   UNL     1     -10.230  11.786  64.596  1.00  0.00    -0.284 A  
HETATM   19  C   UNL     1      -9.212  11.814  66.807  1.00  0.00    -0.196 A  
HETATM   20  C   UNL     1      -9.518   9.706  65.645  1.00  0.00    -0.318 A  
HETATM   21  C   UNL     1      -9.088  10.421  66.758  1.00  0.00    -0.143 A  
BRANCH  18  22
HETATM   22  O   UNL     1     -10.783  12.484  63.553  1.00  0.00    -0.435 OA 
BRANCH  22  23
HETATM   23  C   UNL     1     -11.995  11.978  62.989  1.00  0.00    -0.007 C  
HETATM   24  C   UNL     1     -13.121  12.146  63.990  1.00  0.00    -0.167 C  
ENDBRANCH  22  23
ENDBRANCH  18  22
BRANCH  21  25
HETATM   25  S   UNL     1      -8.584   9.528  68.204  1.00  0.00    -0.120 S  
HETATM   26  O   UNL     1      -9.759   9.365  69.032  1.00  0.00    -0.159 OA 
HETATM   27  O   UNL     1      -7.400  10.184  68.714  1.00  0.00    -0.077 OA 
BRANCH  25  28
HETATM   28  N   UNL     1      -8.152   7.992  67.591  1.00  0.00    -0.122 N  
HETATM   29  C   UNL     1      -6.874   7.394  68.093  1.00  0.00    -0.063 C  
HETATM   30  C   UNL     1      -7.028   6.763  69.501  1.00  0.00    -0.067 C  
HETATM   31  N   UNL     1      -8.168   5.829  69.658  1.00  0.00    -0.107 NA 
HETATM   32  C   UNL     1      -9.396   6.466  69.131  1.00  0.00    -0.132 C  
HETATM   33  C   UNL     1      -9.256   6.983  67.687  1.00  0.00    -0.120 C  
BRANCH  31  34
HETATM   34  C   UNL     1      -7.865   4.524  69.056  1.00  0.00    -0.070 C  
HETATM   35  C   UNL     1      -9.079   3.610  68.924  1.00  0.00    -0.201 C  
ENDBRANCH  31  34
ENDBRANCH  25  28
ENDBRANCH  21  25
ENDBRANCH  11  16
ENDBRANCH   3   4
ENDBRANCH   2   3
TORSDOF 8
ENDMDL
MODEL       89
REMARK 921   NORMALIZED FREE ENERGY PREDICTED BY IDOCK:   -5.13 KCAL/MOL
REMARK 922        TOTAL FREE ENERGY PREDICTED BY IDOCK:   -8.53 KCAL/MOL
REMARK 923 INTER-LIGAND FREE ENERGY PREDICTED BY IDOCK:   -7.68 KCAL/MOL
REMARK 924 INTRA-LIGAND FREE ENERGY PREDICTED BY IDOCK:   -0.85 KCAL/MOL
REMARK 927      BINDING AFFINITY PREDICTED BY RF-SCORE:    0.00 PKD
ROOT
HETATM    1  C   UNL     1     -12.045  13.906  64.544  1.00  0.00    -0.473 C  
HETATM    2  C   UNL     1     -11.456  15.272  64.212  1.00  0.00    -0.162 C  
ENDROOT
BRANCH   2   3
HETATM    3  C   UNL     1     -11.285  16.182  65.430  1.00  0.00    -0.006 C  
BRANCH   3   4
HETATM    4  C   UNL     1      -9.963  16.018  66.105  1.00  0.00    -0.325 A  
HETATM    5  N   UNL     1      -8.885  16.734  65.843  1.00  0.00    -0.513 NA 
HETATM    6  C   UNL     1      -7.908  16.275  66.692  1.00  0.00    -0.275 A  
HETATM    7  C   UNL     1      -8.407  15.253  67.472  1.00  0.00    -0.175 A  
HETATM    8  C   UNL     1      -6.552  16.867  66.686  1.00  0.00    -0.252 C  
HETATM    9  N   UNL     1      -9.701  15.107  67.103  1.00  0.00    -0.225 NA 
HETATM   10  N   UNL     1     -10.544  14.219  67.714  1.00  0.00    -0.251 NA 
HETATM   11  C   UNL     1      -9.906  13.364  68.604  1.00  0.00    -0.112 C  
HETATM   12  N   UNL     1      -8.664  13.455  68.968  1.00  0.00    -0.301 N  
HETATM   13  O   UNL     1      -6.686  14.588  68.899  1.00  0.00    -0.088 OA 
HETATM   14  H   UNL     1      -8.293  12.771  69.629  1.00  0.00     0.000 HD 
HETATM   15  C   UNL     1      -7.831  14.440  68.495  1.00  0.00    -0.138 C  
BRANCH  11  16
HETATM   16  C   UNL     1     -10.711  12.228  69.201  1.00  0.00    -0.089 A  
HETATM   17  C   UNL     1     -12.610  11.335  70.437  1.00  0.00    -0.292 A  
HETATM   18  C   UNL     1     -11.921  12.440  69.906  1.00  0.00    -0.299 A  
HETATM   19  C   UNL     1     -10.207  10.922  69.077  1.00  0.00    -0.219 A  
HETATM   20  C   UNL     1     -12.110  10.043  70.299  1.00  0.00    -0.226 A  
HETATM   21  C   UNL     1     -10.911   9.843  69.623  1.00  0.00    -0.252 A  
BRANCH  18  22
HETATM   22  O   UNL     1     -12.390  13.723  70.026  1.00  0.00    -0.330 OA 
BRANCH  22  23
HETATM   23  C   UNL     1     -12.362  14.318  71.325  1.00  0.00    -0.363 C  
HETATM   24  C   UNL     1     -11.231  15.326  71.390  1.00  0.00    -0.364 C  
ENDBRANCH  22  23
ENDBRANCH  18  22
BRANCH  21  25
HETATM   25  S   UNL     1     -10.171   8.232  69.654  1.00  0.00    -0.212 S  
HETATM   26  O   UNL     1     -11.212   7.294  70.013  1.00  0.00    -0.263 OA 
HETATM   27  O   UNL     1      -8.962   8.338  70.441  1.00  0.00    -0.141 OA 
BRANCH  25  28
HETATM   28  N   UNL     1      -9.752   7.958  68.020  1.00  0.00    -0.155 N  
HETATM   29  C   UNL     1      -8.354   7.495  67.744  1.00  0.00    -0.119 C  
HETATM   30  C   UNL     1      -8.165   5.982  68.022  1.00  0.00    -0.113 C  
HETATM   31  N   UNL     1      -9.170   5.090  67.397  1.00  0.00    -0.115 NA 
HETATM   32  C   UNL     1     -10.527   5.605  67.688  1.00  0.00    -0.219 C  
HETATM   33  C   UNL     1     -10.728   7.081  67.296  1.00  0.00    -0.342 C  
BRANCH  31  34
HETATM   34  C   UNL     1      -8.893   4.908  65.966  1.00  0.00    -0.126 C  
HETATM   35  C   UNL     1      -9.148   3.491  65.465  1.00  0.00    -0.147 C  
ENDBRANCH  31  34
ENDBRANCH  25  28
ENDBRANCH  21  25
ENDBRANCH  11  16
ENDBRANCH   3   4
ENDBRANCH   2   3
TORSDOF 8
ENDMDL
MODEL       90
REMARK 921   NORMALIZED FREE ENERGY PREDICTED BY IDOCK:   -5.11 KCAL/MOL
REMARK 922        TOTAL FREE ENERGY PREDICTED BY IDOCK:   -8.51 KCAL/MOL
REMARK 923 INTER-LIGAND FREE ENERGY PREDICTED BY IDOCK:   -7.59 KCAL/MOL
REMARK 924 INTRA-LIGAND FREE ENERGY PREDICTED BY IDOCK:   -0.91 KCAL/MOL
REMARK 927      BINDING AFFINITY PREDICTED BY RF-SCORE:    0.00 PKD
ROOT
HETATM    1  C   UNL     1     -10.483  16.299  66.948  1.00  0.00    -0.302 C  
HETATM    2  C   UNL     1     -11.137  15.814  68.236  1.00  0.00    -0.342 C  
ENDROOT
BRANCH   2   3
HETATM    3  C   UNL     1     -12.247  14.784  68.015  1.00  0.00    -0.028 C  
BRANCH   3   4
HETATM    4  C   UNL     1     -11.961  13.844  66.891  1.00  0.00    -0.433 A  
HETATM    5  N   UNL     1     -12.469  13.938  65.676  1.00  0.00    -0.485 NA 
HETATM    6  C   UNL     1     -11.936  12.896  64.958  1.00  0.00    -0.405 A  
HETATM    7  C   UNL     1     -11.098  12.153  65.763  1.00  0.00    -0.319 A  
HETATM    8  C   UNL     1     -12.278  12.696  63.532  1.00  0.00    -0.638 C  
HETATM    9  N   UNL     1     -11.113  12.763  66.971  1.00  0.00    -0.267 NA 
HETATM   10  N   UNL     1     -10.339  12.339  68.018  1.00  0.00    -0.208 NA 
HETATM   11  C   UNL     1      -9.694  11.131  67.783  1.00  0.00    -0.171 C  
HETATM   12  N   UNL     1      -9.672  10.503  66.648  1.00  0.00    -0.183 N  
HETATM   13  O   UNL     1     -10.218  10.450  64.435  1.00  0.00    -0.333 OA 
HETATM   14  H   UNL     1      -9.168   9.618  66.584  1.00  0.00     0.000 HD 
HETATM   15  C   UNL     1     -10.306  10.987  65.529  1.00  0.00    -0.260 C  
BRANCH  11  16
HETATM   16  C   UNL     1      -8.955  10.484  68.936  1.00  0.00    -0.175 A  
HETATM   17  C   UNL     1      -6.962  10.070  70.273  1.00  0.00    -0.153 A  
HETATM   18  C   UNL     1      -7.580  10.712  69.186  1.00  0.00    -0.131 A  
HETATM   19  C   UNL     1      -9.664   9.593  69.760  1.00  0.00    -0.247 A  
HETATM   20  C   UNL     1      -7.675   9.198  71.091  1.00  0.00    -0.116 A  
HETATM   21  C   UNL     1      -9.020   8.962  70.830  1.00  0.00    -0.209 A  
BRANCH  18  22
HETATM   22  O   UNL     1      -6.903  11.577  68.363  1.00  0.00    -0.063 OA 
BRANCH  22  23
HETATM   23  C   UNL     1      -6.857  12.952  68.745  1.00  0.00    -0.099 C  
HETATM   24  C   UNL     1      -7.326  13.809  67.586  1.00  0.00    -0.182 C  
ENDBRANCH  22  23
ENDBRANCH  18  22
BRANCH  21  25
HETATM   25  S   UNL     1      -9.854   7.681  71.730  1.00  0.00    -0.168 S  
HETATM   26  O   UNL     1     -11.046   7.345  70.983  1.00  0.00    -0.248 OA 
HETATM   27  O   UNL     1      -9.937   8.119  73.106  1.00  0.00    -0.282 OA 
BRANCH  25  28
HETATM   28  N   UNL     1      -8.774   6.360  71.628  1.00  0.00    -0.133 N  
HETATM   29  C   UNL     1      -8.801   5.371  72.754  1.00  0.00    -0.122 C  
HETATM   30  C   UNL     1      -9.988   4.381  72.644  1.00  0.00    -0.164 C  
HETATM   31  N   UNL     1     -10.144   3.716  71.329  1.00  0.00    -0.059 NA 
HETATM   32  C   UNL     1     -10.093   4.737  70.258  1.00  0.00    -0.234 C  
HETATM   33  C   UNL     1      -8.844   5.636  70.317  1.00  0.00    -0.139 C  
BRANCH  31  34
HETATM   34  C   UNL     1      -9.166   2.632  71.169  1.00  0.00    -0.126 C  
HETATM   35  C   UNL     1      -9.272   1.899  69.836  1.00  0.00    -0.172 C  
ENDBRANCH  31  34
ENDBRANCH  25  28
ENDBRANCH  21  25
ENDBRANCH  11  16
ENDBRANCH   3   4
ENDBRANCH   2   3
TORSDOF 8
ENDMDL
MODEL       91
REMARK 921   NORMALIZED FREE ENERGY PREDICTED BY IDOCK:   -5.10 KCAL/MOL
REMARK 922        TOTAL FREE ENERGY PREDICTED BY IDOCK:   -8.49 KCAL/MOL
REMARK 923 INTER-LIGAND FREE ENERGY PREDICTED BY IDOCK:   -7.29 KCAL/MOL
REMARK 924 INTRA-LIGAND FREE ENERGY PREDICTED BY IDOCK:   -1.20 KCAL/MOL
REMARK 927      BINDING AFFINITY PREDICTED BY RF-SCORE:    0.00 PKD
ROOT
HETATM    1  C   UNL     1      -6.815  17.583  67.047  1.00  0.00    -0.208 C  
HETATM    2  C   UNL     1      -8.227  17.281  67.533  1.00  0.00    -0.204 C  
ENDROOT
BRANCH   2   3
HETATM    3  C   UNL     1      -8.497  15.792  67.758  1.00  0.00    -0.162 C  
BRANCH   3   4
HETATM    4  C   UNL     1      -9.610  15.263  66.916  1.00  0.00    -0.233 A  
HETATM    5  N   UNL     1     -10.069  15.838  65.820  1.00  0.00    -0.344 NA 
HETATM    6  C   UNL     1     -11.069  15.021  65.351  1.00  0.00    -0.374 A  
HETATM    7  C   UNL     1     -11.221  13.938  66.191  1.00  0.00    -0.303 A  
HETATM    8  C   UNL     1     -11.808  15.351  64.112  1.00  0.00    -0.116 C  
HETATM    9  N   UNL     1     -10.294  14.094  67.165  1.00  0.00    -0.264 NA 
HETATM   10  N   UNL     1     -10.102  13.168  68.153  1.00  0.00    -0.232 NA 
HETATM   11  C   UNL     1     -11.062  12.163  68.171  1.00  0.00    -0.248 C  
HETATM   12  N   UNL     1     -11.980  11.990  67.271  1.00  0.00    -0.166 N  
HETATM   13  O   UNL     1     -12.902  12.603  65.278  1.00  0.00    -0.656 OA 
HETATM   14  H   UNL     1     -12.639  11.218  67.382  1.00  0.00     0.000 HD 
HETATM   15  C   UNL     1     -12.097  12.810  66.175  1.00  0.00    -0.364 C  
BRANCH  11  16
HETATM   16  C   UNL     1     -11.047  11.186  69.330  1.00  0.00    -0.318 A  
HETATM   17  C   UNL     1     -11.816  10.386  71.497  1.00  0.00    -0.208 A  
HETATM   18  C   UNL     1     -11.891  11.330  70.458  1.00  0.00    -0.324 A  
HETATM   19  C   UNL     1     -10.129  10.124  69.288  1.00  0.00    -0.237 A  
HETATM   20  C   UNL     1     -10.911   9.329  71.443  1.00  0.00    -0.434 A  
HETATM   21  C   UNL     1     -10.071   9.205  70.342  1.00  0.00    -0.218 A  
BRANCH  18  22
HETATM   22  O   UNL     1     -12.772  12.381  70.484  1.00  0.00    -0.120 OA 
BRANCH  22  23
HETATM   23  C   UNL     1     -12.597  13.365  71.505  1.00  0.00    -0.236 C  
HETATM   24  C   UNL     1     -11.909  14.580  70.915  1.00  0.00    -0.362 C  
ENDBRANCH  22  23
ENDBRANCH  18  22
BRANCH  21  25
HETATM   25  S   UNL     1      -8.773   7.998  70.390  1.00  0.00    -0.138 S  
HETATM   26  O   UNL     1      -9.153   7.005  71.370  1.00  0.00    -0.147 OA 
HETATM   27  O   UNL     1      -7.527   8.723  70.510  1.00  0.00    -0.059 OA 
BRANCH  25  28
HETATM   28  N   UNL     1      -8.850   7.273  68.844  1.00  0.00    -0.128 N  
HETATM   29  C   UNL     1      -7.748   7.600  67.883  1.00  0.00    -0.115 C  
HETATM   30  C   UNL     1      -6.454   6.796  68.170  1.00  0.00    -0.053 C  
HETATM   31  N   UNL     1      -6.633   5.333  68.320  1.00  0.00    -0.047 NA 
HETATM   32  C   UNL     1      -7.743   5.071  69.265  1.00  0.00    -0.075 C  
HETATM   33  C   UNL     1      -9.054   5.789  68.894  1.00  0.00    -0.115 C  
BRANCH  31  34
HETATM   34  C   UNL     1      -6.798   4.687  67.011  1.00  0.00    -0.056 C  
HETATM   35  C   UNL     1      -6.115   3.328  66.904  1.00  0.00    -0.024 C  
ENDBRANCH  31  34
ENDBRANCH  25  28
ENDBRANCH  21  25
ENDBRANCH  11  16
ENDBRANCH   3   4
ENDBRANCH   2   3
TORSDOF 8
ENDMDL
MODEL       92
REMARK 921   NORMALIZED FREE ENERGY PREDICTED BY IDOCK:   -5.06 KCAL/MOL
REMARK 922        TOTAL FREE ENERGY PREDICTED BY IDOCK:   -8.44 KCAL/MOL
REMARK 923 INTER-LIGAND FREE ENERGY PREDICTED BY IDOCK:   -8.00 KCAL/MOL
REMARK 924 INTRA-LIGAND FREE ENERGY PREDICTED BY IDOCK:   -0.44 KCAL/MOL
REMARK 927      BINDING AFFINITY PREDICTED BY RF-SCORE:    0.00 PKD
ROOT
HETATM    1  C   UNL     1      -6.283   9.253  63.975  1.00  0.00    -0.089 C  
HETATM    2  C   UNL     1      -7.222   9.341  65.172  1.00  0.00    -0.094 C  
ENDROOT
BRANCH   2   3
HETATM    3  C   UNL     1      -6.668   8.687  66.440  1.00  0.00    -0.070 C  
BRANCH   3   4
HETATM    4  C   UNL     1      -7.582   7.658  67.017  1.00  0.00    -0.103 A  
HETATM    5  N   UNL     1      -7.479   6.357  66.820  1.00  0.00    -0.085 NA 
HETATM    6  C   UNL     1      -8.497   5.781  67.540  1.00  0.00    -0.103 A  
HETATM    7  C   UNL     1      -9.234   6.758  68.175  1.00  0.00    -0.121 A  
HETATM    8  C   UNL     1      -8.680   4.313  67.562  1.00  0.00    -0.114 C  
HETATM    9  N   UNL     1      -8.645   7.933  67.848  1.00  0.00    -0.125 NA 
HETATM   10  N   UNL     1      -9.068   9.132  68.353  1.00  0.00    -0.133 NA 
HETATM   11  C   UNL     1     -10.257   9.050  69.068  1.00  0.00    -0.205 C  
HETATM   12  N   UNL     1     -10.865   7.948  69.383  1.00  0.00    -0.399 N  
HETATM   13  O   UNL     1     -10.894   5.668  69.398  1.00  0.00    -0.320 OA 
HETATM   14  H   UNL     1     -11.736   8.001  69.911  1.00  0.00     0.000 HD 
HETATM   15  C   UNL     1     -10.376   6.714  69.031  1.00  0.00    -0.192 C  
BRANCH  11  16
HETATM   16  C   UNL     1     -10.906  10.343  69.519  1.00  0.00    -0.295 A  
HETATM   17  C   UNL     1     -12.598  11.610  70.726  1.00  0.00    -0.365 A  
HETATM   18  C   UNL     1     -12.048  10.371  70.355  1.00  0.00    -0.315 A  
HETATM   19  C   UNL     1     -10.368  11.553  69.049  1.00  0.00    -0.143 A  
HETATM   20  C   UNL     1     -12.052  12.805  70.266  1.00  0.00    -0.373 A  
HETATM   21  C   UNL     1     -10.943  12.771  69.428  1.00  0.00     0.020 A  
BRANCH  18  22
HETATM   22  O   UNL     1     -12.565   9.178  70.794  1.00  0.00    -0.134 OA 
BRANCH  22  23
HETATM   23  C   UNL     1     -12.601   8.953  72.204  1.00  0.00    -0.399 C  
HETATM   24  C   UNL     1     -11.764   7.734  72.538  1.00  0.00    -0.393 C  
ENDBRANCH  22  23
ENDBRANCH  18  22
BRANCH  21  25
HETATM   25  S   UNL     1     -10.400  14.277  68.667  1.00  0.00    -0.245 S  
HETATM   26  O   UNL     1      -9.112  14.008  68.065  1.00  0.00    -0.175 OA 
HETATM   27  O   UNL     1     -10.556  15.327  69.650  1.00  0.00    -0.247 OA 
BRANCH  25  28
HETATM   28  N   UNL     1     -11.533  14.516  67.410  1.00  0.00    -0.352 N  
HETATM   29  C   UNL     1     -11.149  15.466  66.318  1.00  0.00    -0.226 C  
HETATM   30  C   UNL     1     -10.178  14.828  65.291  1.00  0.00    -0.384 C  
HETATM   31  N   UNL     1     -10.598  13.514  64.750  1.00  0.00    -0.395 NA 
HETATM   32  C   UNL     1     -10.982  12.625  65.869  1.00  0.00    -0.278 C  
HETATM   33  C   UNL     1     -12.035  13.236  66.813  1.00  0.00    -0.382 C  
BRANCH  31  34
HETATM   34  C   UNL     1     -11.643  13.676  63.730  1.00  0.00    -0.165 C  
HETATM   35  C   UNL     1     -12.323  12.371  63.332  1.00  0.00    -0.603 C  
ENDBRANCH  31  34
ENDBRANCH  25  28
ENDBRANCH  21  25
ENDBRANCH  11  16
ENDBRANCH   3   4
ENDBRANCH   2   3
TORSDOF 8
ENDMDL
MODEL       93
REMARK 921   NORMALIZED FREE ENERGY PREDICTED BY IDOCK:   -5.03 KCAL/MOL
REMARK 922        TOTAL FREE ENERGY PREDICTED BY IDOCK:   -8.39 KCAL/MOL
REMARK 923 INTER-LIGAND FREE ENERGY PREDICTED BY IDOCK:   -7.81 KCAL/MOL
REMARK 924 INTRA-LIGAND FREE ENERGY PREDICTED BY IDOCK:   -0.58 KCAL/MOL
REMARK 927      BINDING AFFINITY PREDICTED BY RF-SCORE:    0.00 PKD
ROOT
HETATM    1  C   UNL     1     -10.228  20.413  66.593  1.00  0.00    -0.382 C  
HETATM    2  C   UNL     1     -10.523  19.069  67.248  1.00  0.00    -0.533 C  
ENDROOT
BRANCH   2   3
HETATM    3  C   UNL     1      -9.986  18.947  68.676  1.00  0.00    -0.470 C  
BRANCH   3   4
HETATM    4  C   UNL     1      -8.663  18.260  68.749  1.00  0.00    -0.218 A  
HETATM    5  N   UNL     1      -7.514  18.855  69.013  1.00  0.00    -0.303 NA 
HETATM    6  C   UNL     1      -6.562  17.866  69.001  1.00  0.00    -0.247 A  
HETATM    7  C   UNL     1      -7.150  16.652  68.713  1.00  0.00    -0.194 A  
HETATM    8  C   UNL     1      -5.140  18.171  69.276  1.00  0.00    -0.186 C  
HETATM    9  N   UNL     1      -8.471  16.909  68.567  1.00  0.00    -0.248 NA 
HETATM   10  N   UNL     1      -9.390  15.923  68.336  1.00  0.00    -0.197 NA 
HETATM   11  C   UNL     1      -8.825  14.679  68.081  1.00  0.00    -0.173 C  
HETATM   12  N   UNL     1      -7.563  14.396  68.188  1.00  0.00    -0.115 N  
HETATM   13  O   UNL     1      -5.457  15.049  68.768  1.00  0.00    -0.084 OA 
HETATM   14  H   UNL     1      -7.252  13.448  67.975  1.00  0.00     0.000 HD 
HETATM   15  C   UNL     1      -6.632  15.328  68.578  1.00  0.00    -0.109 C  
BRANCH  11  16
HETATM   16  C   UNL     1      -9.742  13.558  67.639  1.00  0.00    -0.229 A  
HETATM   17  C   UNL     1     -11.678  12.686  66.447  1.00  0.00    -0.466 A  
HETATM   18  C   UNL     1     -10.870  13.777  66.811  1.00  0.00    -0.284 A  
HETATM   19  C   UNL     1      -9.475  12.261  68.107  1.00  0.00    -0.213 A  
HETATM   20  C   UNL     1     -11.400  11.401  66.907  1.00  0.00    -0.284 A  
HETATM   21  C   UNL     1     -10.303  11.195  67.736  1.00  0.00    -0.187 A  
BRANCH  18  22
HETATM   22  O   UNL     1     -11.120  15.053  66.373  1.00  0.00    -0.335 OA 
BRANCH  22  23
HETATM   23  C   UNL     1     -10.785  15.364  65.020  1.00  0.00    -0.438 C  
HETATM   24  C   UNL     1     -12.060  15.574  64.226  1.00  0.00    -0.126 C  
ENDBRANCH  22  23
ENDBRANCH  18  22
BRANCH  21  25
HETATM   25  S   UNL     1     -10.093   9.608  68.497  1.00  0.00    -0.182 S  
HETATM   26  O   UNL     1     -11.229   9.402  69.368  1.00  0.00    -0.137 OA 
HETATM   27  O   UNL     1      -8.743   9.562  69.012  1.00  0.00    -0.132 OA 
BRANCH  25  28
HETATM   28  N   UNL     1     -10.228   8.520  67.185  1.00  0.00    -0.257 N  
HETATM   29  C   UNL     1      -9.030   8.370  66.299  1.00  0.00    -0.174 C  
HETATM   30  C   UNL     1      -7.945   7.452  66.919  1.00  0.00    -0.115 C  
HETATM   31  N   UNL     1      -8.428   6.141  67.413  1.00  0.00    -0.108 NA 
HETATM   32  C   UNL     1      -9.619   6.349  68.266  1.00  0.00    -0.123 C  
HETATM   33  C   UNL     1     -10.733   7.166  67.586  1.00  0.00    -0.244 C  
BRANCH  31  34
HETATM   34  C   UNL     1      -8.645   5.208  66.299  1.00  0.00    -0.114 C  
HETATM   35  C   UNL     1      -9.290   3.891  66.716  1.00  0.00    -0.203 C  
ENDBRANCH  31  34
ENDBRANCH  25  28
ENDBRANCH  21  25
ENDBRANCH  11  16
ENDBRANCH   3   4
ENDBRANCH   2   3
TORSDOF 8
ENDMDL
MODEL       94
REMARK 921   NORMALIZED FREE ENERGY PREDICTED BY IDOCK:   -4.99 KCAL/MOL
REMARK 922        TOTAL FREE ENERGY PREDICTED BY IDOCK:   -8.34 KCAL/MOL
REMARK 923 INTER-LIGAND FREE ENERGY PREDICTED BY IDOCK:   -7.78 KCAL/MOL
REMARK 924 INTRA-LIGAND FREE ENERGY PREDICTED BY IDOCK:   -0.55 KCAL/MOL
REMARK 927      BINDING AFFINITY PREDICTED BY RF-SCORE:    0.00 PKD
ROOT
HETATM    1  C   UNL     1      -8.332   4.443  71.436  1.00  0.00    -0.096 C  
HETATM    2  C   UNL     1      -9.738   4.503  70.853  1.00  0.00    -0.263 C  
ENDROOT
BRANCH   2   3
HETATM    3  C   UNL     1      -9.801   4.184  69.358  1.00  0.00    -0.163 C  
BRANCH   3   4
HETATM    4  C   UNL     1      -8.743   4.877  68.565  1.00  0.00    -0.097 A  
HETATM    5  N   UNL     1      -7.684   4.291  68.039  1.00  0.00    -0.075 NA 
HETATM    6  C   UNL     1      -6.989   5.278  67.383  1.00  0.00    -0.065 A  
HETATM    7  C   UNL     1      -7.640   6.485  67.528  1.00  0.00    -0.105 A  
HETATM    8  C   UNL     1      -5.736   4.975  66.656  1.00  0.00    -0.018 C  
HETATM    9  N   UNL     1      -8.746   6.221  68.263  1.00  0.00    -0.116 NA 
HETATM   10  N   UNL     1      -9.679   7.177  68.557  1.00  0.00    -0.142 NA 
HETATM   11  C   UNL     1      -9.294   8.463  68.197  1.00  0.00    -0.133 C  
HETATM   12  N   UNL     1      -8.233   8.762  67.513  1.00  0.00    -0.109 N  
HETATM   13  O   UNL     1      -6.404   8.067  66.342  1.00  0.00    -0.045 OA 
HETATM   14  H   UNL     1      -8.042   9.743  67.305  1.00  0.00     0.000 HD 
HETATM   15  C   UNL     1      -7.358   7.805  67.061  1.00  0.00    -0.091 C  
BRANCH  11  16
HETATM   16  C   UNL     1     -10.172   9.617  68.636  1.00  0.00    -0.209 A  
HETATM   17  C   UNL     1     -11.609  10.759  70.236  1.00  0.00    -0.427 A  
HETATM   18  C   UNL     1     -10.803   9.656  69.903  1.00  0.00    -0.256 A  
HETATM   19  C   UNL     1     -10.393  10.664  67.725  1.00  0.00    -0.239 A  
HETATM   20  C   UNL     1     -11.813  11.798  69.332  1.00  0.00    -0.398 A  
HETATM   21  C   UNL     1     -11.208  11.744  68.081  1.00  0.00    -0.260 A  
BRANCH  18  22
HETATM   22  O   UNL     1     -10.584   8.619  70.773  1.00  0.00    -0.197 OA 
BRANCH  22  23
HETATM   23  C   UNL     1     -11.723   8.043  71.414  1.00  0.00    -0.287 C  
HETATM   24  C   UNL     1     -11.292   7.407  72.722  1.00  0.00    -0.356 C  
ENDBRANCH  22  23
ENDBRANCH  18  22
BRANCH  21  25
HETATM   25  S   UNL     1     -11.658  12.950  66.861  1.00  0.00    -0.386 S  
HETATM   26  O   UNL     1     -12.262  14.060  67.565  1.00  0.00    -0.366 OA 
HETATM   27  O   UNL     1     -12.377  12.250  65.821  1.00  0.00    -0.622 OA 
BRANCH  25  28
HETATM   28  N   UNL     1     -10.150  13.471  66.245  1.00  0.00    -0.291 N  
HETATM   29  C   UNL     1     -10.179  14.424  65.090  1.00  0.00    -0.391 C  
HETATM   30  C   UNL     1     -10.476  15.880  65.532  1.00  0.00    -0.404 C  
HETATM   31  N   UNL     1      -9.639  16.392  66.642  1.00  0.00    -0.242 NA 
HETATM   32  C   UNL     1      -9.634  15.404  67.744  1.00  0.00    -0.210 C  
HETATM   33  C   UNL     1      -9.223  13.986  67.304  1.00  0.00    -0.230 C  
BRANCH  31  34
HETATM   34  C   UNL     1      -8.300  16.761  66.163  1.00  0.00    -0.266 C  
HETATM   35  C   UNL     1      -7.539  17.681  67.112  1.00  0.00    -0.227 C  
ENDBRANCH  31  34
ENDBRANCH  25  28
ENDBRANCH  21  25
ENDBRANCH  11  16
ENDBRANCH   3   4
ENDBRANCH   2   3
TORSDOF 8
ENDMDL
MODEL       95
REMARK 921   NORMALIZED FREE ENERGY PREDICTED BY IDOCK:   -4.99 KCAL/MOL
REMARK 922        TOTAL FREE ENERGY PREDICTED BY IDOCK:   -8.33 KCAL/MOL
REMARK 923 INTER-LIGAND FREE ENERGY PREDICTED BY IDOCK:   -8.67 KCAL/MOL
REMARK 924 INTRA-LIGAND FREE ENERGY PREDICTED BY IDOCK:    0.34 KCAL/MOL
REMARK 927      BINDING AFFINITY PREDICTED BY RF-SCORE:    0.00 PKD
ROOT
HETATM    1  C   UNL     1      -9.901   5.145  70.983  1.00  0.00    -0.261 C  
HETATM    2  C   UNL     1      -9.438   6.497  70.454  1.00  0.00    -0.170 C  
ENDROOT
BRANCH   2   3
HETATM    3  C   UNL     1     -10.487   7.221  69.607  1.00  0.00    -0.239 C  
BRANCH   3   4
HETATM    4  C   UNL     1     -11.372   8.117  70.409  1.00  0.00    -0.181 A  
HETATM    5  N   UNL     1     -12.134   7.727  71.414  1.00  0.00    -0.304 NA 
HETATM    6  C   UNL     1     -12.762   8.857  71.877  1.00  0.00    -0.376 A  
HETATM    7  C   UNL     1     -12.376   9.948  71.127  1.00  0.00    -0.370 A  
HETATM    8  C   UNL     1     -13.694   8.797  73.025  1.00  0.00     0.130 C  
HETATM    9  N   UNL     1     -11.496   9.474  70.214  1.00  0.00    -0.237 NA 
HETATM   10  N   UNL     1     -10.846  10.289  69.328  1.00  0.00    -0.224 NA 
HETATM   11  C   UNL     1     -11.311  11.599  69.328  1.00  0.00    -0.290 C  
HETATM   12  N   UNL     1     -12.169  12.088  70.170  1.00  0.00    -0.267 N  
HETATM   13  O   UNL     1     -13.459  11.806  72.029  1.00  0.00    -0.422 OA 
HETATM   14  H   UNL     1     -12.445  13.066  70.079  1.00  0.00     0.000 HD 
HETATM   15  C   UNL     1     -12.719  11.334  71.178  1.00  0.00    -0.390 C  
BRANCH  11  16
HETATM   16  C   UNL     1     -10.785  12.540  68.264  1.00  0.00    -0.246 A  
HETATM   17  C   UNL     1     -10.050  13.057  66.001  1.00  0.00    -0.286 A  
HETATM   18  C   UNL     1     -10.545  12.126  66.931  1.00  0.00    -0.229 A  
HETATM   19  C   UNL     1     -10.490  13.862  68.637  1.00  0.00    -0.249 A  
HETATM   20  C   UNL     1      -9.772  14.369  66.376  1.00  0.00    -0.320 A  
HETATM   21  C   UNL     1      -9.990  14.764  67.691  1.00  0.00    -0.226 A  
BRANCH  18  22
HETATM   22  O   UNL     1     -10.828  10.828  66.590  1.00  0.00    -0.237 OA 
BRANCH  22  23
HETATM   23  C   UNL     1      -9.769  10.044  66.038  1.00  0.00    -0.240 C  
HETATM   24  C   UNL     1      -8.438  10.612  66.491  1.00  0.00    -0.144 C  
ENDBRANCH  22  23
ENDBRANCH  18  22
BRANCH  21  25
HETATM   25  S   UNL     1      -9.419  16.360  68.209  1.00  0.00    -0.222 S  
HETATM   26  O   UNL     1      -8.175  16.155  68.919  1.00  0.00    -0.203 OA 
HETATM   27  O   UNL     1     -10.536  17.023  68.844  1.00  0.00    -0.325 OA 
BRANCH  25  28
HETATM   28  N   UNL     1      -9.064  17.151  66.736  1.00  0.00    -0.238 N  
HETATM   29  C   UNL     1      -9.688  18.494  66.516  1.00  0.00    -0.343 C  
HETATM   30  C   UNL     1      -8.946  19.624  67.275  1.00  0.00    -0.318 C  
HETATM   31  N   UNL     1      -7.478  19.665  67.078  1.00  0.00    -0.227 NA 
HETATM   32  C   UNL     1      -6.919  18.311  67.290  1.00  0.00    -0.198 C  
HETATM   33  C   UNL     1      -7.596  17.220  66.438  1.00  0.00    -0.314 C  
BRANCH  31  34
HETATM   34  C   UNL     1      -7.139  20.254  65.776  1.00  0.00    -0.257 C  
HETATM   35  C   UNL     1      -5.858  19.698  65.163  1.00  0.00    -0.246 C  
ENDBRANCH  31  34
ENDBRANCH  25  28
ENDBRANCH  21  25
ENDBRANCH  11  16
ENDBRANCH   3   4
ENDBRANCH   2   3
TORSDOF 8
ENDMDL
MODEL       96
REMARK 921   NORMALIZED FREE ENERGY PREDICTED BY IDOCK:   -4.97 KCAL/MOL
REMARK 922        TOTAL FREE ENERGY PREDICTED BY IDOCK:   -8.31 KCAL/MOL
REMARK 923 INTER-LIGAND FREE ENERGY PREDICTED BY IDOCK:   -7.44 KCAL/MOL
REMARK 924 INTRA-LIGAND FREE ENERGY PREDICTED BY IDOCK:   -0.87 KCAL/MOL
REMARK 927      BINDING AFFINITY PREDICTED BY RF-SCORE:    0.00 PKD
ROOT
HETATM    1  C   UNL     1     -11.571  12.350  63.423  1.00  0.00    -0.541 C  
HETATM    2  C   UNL     1     -12.468  13.483  63.908  1.00  0.00    -0.295 C  
ENDROOT
BRANCH   2   3
HETATM    3  C   UNL     1     -12.524  13.616  65.431  1.00  0.00    -0.537 C  
BRANCH   3   4
HETATM    4  C   UNL     1     -11.190  13.879  66.048  1.00  0.00    -0.300 A  
HETATM    5  N   UNL     1     -10.449  14.948  65.822  1.00  0.00    -0.309 NA 
HETATM    6  C   UNL     1      -9.323  14.800  66.594  1.00  0.00    -0.268 A  
HETATM    7  C   UNL     1      -9.385  13.611  67.290  1.00  0.00    -0.233 A  
HETATM    8  C   UNL     1      -8.263  15.833  66.604  1.00  0.00    -0.305 C  
HETATM    9  N   UNL     1     -10.565  13.045  66.948  1.00  0.00    -0.253 NA 
HETATM   10  N   UNL     1     -11.005  11.872  67.498  1.00  0.00    -0.233 NA 
HETATM   11  C   UNL     1     -10.055  11.232  68.284  1.00  0.00    -0.188 C  
HETATM   12  N   UNL     1      -8.904  11.729  68.618  1.00  0.00    -0.336 N  
HETATM   13  O   UNL     1      -7.456  13.490  68.596  1.00  0.00    -0.114 OA 
HETATM   14  H   UNL     1      -8.278  11.172  69.200  1.00  0.00     0.000 HD 
HETATM   15  C   UNL     1      -8.499  12.978  68.215  1.00  0.00    -0.159 C  
BRANCH  11  16
HETATM   16  C   UNL     1     -10.374   9.842  68.796  1.00  0.00    -0.222 A  
HETATM   17  C   UNL     1     -11.383   8.298  70.385  1.00  0.00    -0.177 A  
HETATM   18  C   UNL     1     -11.133   9.618  69.970  1.00  0.00    -0.255 A  
HETATM   19  C   UNL     1      -9.857   8.743  68.090  1.00  0.00    -0.194 A  
HETATM   20  C   UNL     1     -10.877   7.214  69.674  1.00  0.00    -0.254 A  
HETATM   21  C   UNL     1     -10.115   7.440  68.533  1.00  0.00    -0.175 A  
BRANCH  18  22
HETATM   22  O   UNL     1     -11.619  10.706  70.650  1.00  0.00    -0.326 OA 
BRANCH  22  23
HETATM   23  C   UNL     1     -12.866  10.556  71.330  1.00  0.00    -0.447 C  
HETATM   24  C   UNL     1     -13.263  11.884  71.945  1.00  0.00    -0.467 C  
ENDBRANCH  22  23
ENDBRANCH  18  22
BRANCH  21  25
HETATM   25  S   UNL     1      -9.288   6.069  67.771  1.00  0.00    -0.105 S  
HETATM   26  O   UNL     1      -9.348   6.279  66.342  1.00  0.00    -0.157 OA 
HETATM   27  O   UNL     1      -9.826   4.867  68.369  1.00  0.00    -0.149 OA 
BRANCH  25  28
HETATM   28  N   UNL     1      -7.664   6.262  68.267  1.00  0.00    -0.102 N  
HETATM   29  C   UNL     1      -7.432   6.765  69.659  1.00  0.00    -0.096 C  
HETATM   30  C   UNL     1      -7.603   5.653  70.726  1.00  0.00    -0.091 C  
HETATM   31  N   UNL     1      -6.855   4.401  70.466  1.00  0.00    -0.036 NA 
HETATM   32  C   UNL     1      -7.108   3.962  69.075  1.00  0.00    -0.047 C  
HETATM   33  C   UNL     1      -6.820   5.048  68.021  1.00  0.00    -0.060 C  
BRANCH  31  34
HETATM   34  C   UNL     1      -5.432   4.561  70.793  1.00  0.00    -0.008 C  
HETATM   35  C   UNL     1      -5.177   4.998  72.232  1.00  0.00    -0.005 C  
ENDBRANCH  31  34
ENDBRANCH  25  28
ENDBRANCH  21  25
ENDBRANCH  11  16
ENDBRANCH   3   4
ENDBRANCH   2   3
TORSDOF 8
ENDMDL
MODEL       97
REMARK 921   NORMALIZED FREE ENERGY PREDICTED BY IDOCK:   -4.97 KCAL/MOL
REMARK 922        TOTAL FREE ENERGY PREDICTED BY IDOCK:   -8.30 KCAL/MOL
REMARK 923 INTER-LIGAND FREE ENERGY PREDICTED BY IDOCK:   -8.92 KCAL/MOL
REMARK 924 INTRA-LIGAND FREE ENERGY PREDICTED BY IDOCK:    0.62 KCAL/MOL
REMARK 927      BINDING AFFINITY PREDICTED BY RF-SCORE:    0.00 PKD
ROOT
HETATM    1  C   UNL     1     -13.058  15.298  71.144  1.00  0.00    -0.546 C  
HETATM    2  C   UNL     1     -12.625  14.314  70.063  1.00  0.00    -0.277 C  
ENDROOT
BRANCH   2   3
HETATM    3  C   UNL     1     -11.968  14.977  68.851  1.00  0.00    -0.287 C  
BRANCH   3   4
HETATM    4  C   UNL     1     -11.816  14.054  67.687  1.00  0.00    -0.395 A  
HETATM    5  N   UNL     1     -12.261  14.293  66.468  1.00  0.00    -0.437 NA 
HETATM    6  C   UNL     1     -11.898  13.207  65.710  1.00  0.00    -0.397 A  
HETATM    7  C   UNL     1     -11.228  12.292  66.495  1.00  0.00    -0.324 A  
HETATM    8  C   UNL     1     -12.225  13.138  64.269  1.00  0.00    -0.463 C  
HETATM    9  N   UNL     1     -11.174  12.838  67.732  1.00  0.00    -0.259 NA 
HETATM   10  N   UNL     1     -10.520  12.236  68.773  1.00  0.00    -0.200 NA 
HETATM   11  C   UNL     1     -10.089  10.945  68.491  1.00  0.00    -0.183 C  
HETATM   12  N   UNL     1     -10.143  10.376  67.327  1.00  0.00    -0.191 N  
HETATM   13  O   UNL     1     -10.620  10.523  65.102  1.00  0.00    -0.221 OA 
HETATM   14  H   UNL     1      -9.799   9.421  67.230  1.00  0.00     0.000 HD 
HETATM   15  C   UNL     1     -10.646  11.016  66.220  1.00  0.00    -0.237 C  
BRANCH  11  16
HETATM   16  C   UNL     1      -9.512  10.125  69.627  1.00  0.00    -0.226 A  
HETATM   17  C   UNL     1      -7.661   9.132  70.859  1.00  0.00    -0.152 A  
HETATM   18  C   UNL     1      -8.121   9.910  69.782  1.00  0.00    -0.176 A  
HETATM   19  C   UNL     1     -10.405   9.527  70.532  1.00  0.00    -0.350 A  
HETATM   20  C   UNL     1      -8.553   8.552  71.758  1.00  0.00    -0.254 A  
HETATM   21  C   UNL     1      -9.919   8.750  71.589  1.00  0.00    -0.311 A  
BRANCH  18  22
HETATM   22  O   UNL     1      -7.267  10.494  68.881  1.00  0.00    -0.073 OA 
BRANCH  22  23
HETATM   23  C   UNL     1      -6.295  11.410  69.391  1.00  0.00    -0.100 C  
HETATM   24  C   UNL     1      -6.652  12.815  68.947  1.00  0.00    -0.095 C  
ENDBRANCH  22  23
ENDBRANCH  18  22
BRANCH  21  25
HETATM   25  S   UNL     1     -11.047   7.824  72.596  1.00  0.00    -0.399 S  
HETATM   26  O   UNL     1     -12.232   8.636  72.760  1.00  0.00    -0.312 OA 
HETATM   27  O   UNL     1     -10.302   7.356  73.743  1.00  0.00    -0.348 OA 
BRANCH  25  28
HETATM   28  N   UNL     1     -11.452   6.488  71.610  1.00  0.00    -0.283 N  
HETATM   29  C   UNL     1     -11.470   6.715  70.129  1.00  0.00    -0.385 C  
HETATM   30  C   UNL     1     -10.048   6.710  69.512  1.00  0.00    -0.177 C  
HETATM   31  N   UNL     1      -9.199   5.552  69.877  1.00  0.00    -0.135 NA 
HETATM   32  C   UNL     1      -9.234   5.366  71.345  1.00  0.00    -0.146 C  
HETATM   33  C   UNL     1     -10.657   5.256  71.923  1.00  0.00    -0.209 C  
BRANCH  31  34
HETATM   34  C   UNL     1      -9.584   4.357  69.114  1.00  0.00    -0.181 C  
HETATM   35  C   UNL     1      -9.788   4.618  67.625  1.00  0.00    -0.194 C  
ENDBRANCH  31  34
ENDBRANCH  25  28
ENDBRANCH  21  25
ENDBRANCH  11  16
ENDBRANCH   3   4
ENDBRANCH   2   3
TORSDOF 8
ENDMDL
MODEL       98
REMARK 921   NORMALIZED FREE ENERGY PREDICTED BY IDOCK:   -4.92 KCAL/MOL
REMARK 922        TOTAL FREE ENERGY PREDICTED BY IDOCK:   -8.23 KCAL/MOL
REMARK 923 INTER-LIGAND FREE ENERGY PREDICTED BY IDOCK:   -7.89 KCAL/MOL
REMARK 924 INTRA-LIGAND FREE ENERGY PREDICTED BY IDOCK:   -0.34 KCAL/MOL
REMARK 927      BINDING AFFINITY PREDICTED BY RF-SCORE:    0.00 PKD
ROOT
HETATM    1  C   UNL     1     -11.153   7.593  72.286  1.00  0.00    -0.336 C  
HETATM    2  C   UNL     1     -11.187   9.071  71.916  1.00  0.00    -0.438 C  
ENDROOT
BRANCH   2   3
HETATM    3  C   UNL     1     -12.542   9.544  71.385  1.00  0.00    -0.447 C  
BRANCH   3   4
HETATM    4  C   UNL     1     -12.603  11.020  71.166  1.00  0.00    -0.418 A  
HETATM    5  N   UNL     1     -13.191  11.882  71.975  1.00  0.00    -0.456 NA 
HETATM    6  C   UNL     1     -13.000  13.121  71.415  1.00  0.00    -0.298 A  
HETATM    7  C   UNL     1     -12.290  12.999  70.239  1.00  0.00    -0.241 A  
HETATM    8  C   UNL     1     -13.520  14.343  72.069  1.00  0.00    -0.490 C  
HETATM    9  N   UNL     1     -12.038  11.677  70.097  1.00  0.00    -0.336 NA 
HETATM   10  N   UNL     1     -11.290  11.178  69.066  1.00  0.00    -0.248 NA 
HETATM   11  C   UNL     1     -10.981  12.121  68.092  1.00  0.00    -0.230 C  
HETATM   12  N   UNL     1     -11.225  13.392  68.178  1.00  0.00    -0.259 N  
HETATM   13  O   UNL     1     -11.984  15.156  69.407  1.00  0.00    -0.313 OA 
HETATM   14  H   UNL     1     -10.957  13.998  67.402  1.00  0.00     0.000 HD 
HETATM   15  C   UNL     1     -11.830  13.950  69.277  1.00  0.00    -0.348 C  
BRANCH  11  16
HETATM   16  C   UNL     1     -10.310  11.638  66.822  1.00  0.00    -0.257 A  
HETATM   17  C   UNL     1     -10.247  11.246  64.420  1.00  0.00    -0.377 A  
HETATM   18  C   UNL     1     -10.931  11.721  65.552  1.00  0.00    -0.290 A  
HETATM   19  C   UNL     1      -9.038  11.050  66.928  1.00  0.00    -0.165 A  
HETATM   20  C   UNL     1      -8.981  10.676  64.532  1.00  0.00    -0.214 A  
HETATM   21  C   UNL     1      -8.385  10.578  65.784  1.00  0.00    -0.166 A  
BRANCH  18  22
HETATM   22  O   UNL     1     -12.178  12.287  65.472  1.00  0.00    -0.577 OA 
BRANCH  22  23
HETATM   23  C   UNL     1     -12.363  13.345  64.529  1.00  0.00    -0.360 C  
HETATM   24  C   UNL     1     -12.956  14.547  65.236  1.00  0.00     0.009 C  
ENDBRANCH  22  23
ENDBRANCH  18  22
BRANCH  21  25
HETATM   25  S   UNL     1      -6.884   9.648  65.946  1.00  0.00    -0.093 S  
HETATM   26  O   UNL     1      -5.910  10.518  66.566  1.00  0.00    -0.060 OA 
HETATM   27  O   UNL     1      -6.625   9.039  64.660  1.00  0.00    -0.070 OA 
BRANCH  25  28
HETATM   28  N   UNL     1      -7.295   8.426  67.069  1.00  0.00    -0.083 N  
HETATM   29  C   UNL     1      -6.222   7.446  67.432  1.00  0.00    -0.047 C  
HETATM   30  C   UNL     1      -5.216   8.023  68.461  1.00  0.00    -0.031 C  
HETATM   31  N   UNL     1      -5.821   8.642  69.664  1.00  0.00    -0.029 NA 
HETATM   32  C   UNL     1      -6.882   9.585  69.246  1.00  0.00    -0.049 C  
HETATM   33  C   UNL     1      -7.937   8.958  68.315  1.00  0.00    -0.105 C  
BRANCH  31  34
HETATM   34  C   UNL     1      -6.272   7.614  70.612  1.00  0.00    -0.034 C  
HETATM   35  C   UNL     1      -5.199   7.176  71.602  1.00  0.00    -0.028 C  
ENDBRANCH  31  34
ENDBRANCH  25  28
ENDBRANCH  21  25
ENDBRANCH  11  16
ENDBRANCH   3   4
ENDBRANCH   2   3
TORSDOF 8
ENDMDL
MODEL       99
REMARK 921   NORMALIZED FREE ENERGY PREDICTED BY IDOCK:   -4.91 KCAL/MOL
REMARK 922        TOTAL FREE ENERGY PREDICTED BY IDOCK:   -8.21 KCAL/MOL
REMARK 923 INTER-LIGAND FREE ENERGY PREDICTED BY IDOCK:   -7.93 KCAL/MOL
REMARK 924 INTRA-LIGAND FREE ENERGY PREDICTED BY IDOCK:   -0.27 KCAL/MOL
REMARK 927      BINDING AFFINITY PREDICTED BY RF-SCORE:    0.00 PKD
ROOT
HETATM    1  C   UNL     1     -10.977  15.827  64.951  1.00  0.00    -0.443 C  
HETATM    2  C   UNL     1      -9.632  15.584  65.624  1.00  0.00    -0.328 C  
ENDROOT
BRANCH   2   3
HETATM    3  C   UNL     1      -9.625  15.895  67.122  1.00  0.00    -0.224 C  
BRANCH   3   4
HETATM    4  C   UNL     1     -10.368  14.886  67.934  1.00  0.00    -0.237 A  
HETATM    5  N   UNL     1     -10.995  15.139  69.068  1.00  0.00    -0.232 NA 
HETATM    6  C   UNL     1     -11.554  13.950  69.467  1.00  0.00    -0.301 A  
HETATM    7  C   UNL     1     -11.247  12.959  68.559  1.00  0.00    -0.274 A  
HETATM    8  C   UNL     1     -12.354  13.861  70.709  1.00  0.00    -0.449 C  
HETATM    9  N   UNL     1     -10.511  13.559  67.594  1.00  0.00    -0.236 NA 
HETATM   10  N   UNL     1     -10.076  12.894  66.481  1.00  0.00    -0.255 NA 
HETATM   11  C   UNL     1     -10.296  11.523  66.527  1.00  0.00    -0.232 C  
HETATM   12  N   UNL     1     -10.976  10.905  67.442  1.00  0.00    -0.278 N  
HETATM   13  O   UNL     1     -12.282  11.008  69.308  1.00  0.00    -0.369 OA 
HETATM   14  H   UNL     1     -11.075   9.891  67.382  1.00  0.00     0.000 HD 
HETATM   15  C   UNL     1     -11.566  11.568  68.490  1.00  0.00    -0.313 C  
BRANCH  11  16
HETATM   16  C   UNL     1      -9.696  10.669  65.428  1.00  0.00    -0.306 A  
HETATM   17  C   UNL     1      -9.321  10.095  63.091  1.00  0.00    -0.333 A  
HETATM   18  C   UNL     1      -9.906  10.937  64.053  1.00  0.00    -0.322 A  
HETATM   19  C   UNL     1      -8.936   9.548  65.801  1.00  0.00    -0.219 A  
HETATM   20  C   UNL     1      -8.559   8.993  63.470  1.00  0.00    -0.146 A  
HETATM   21  C   UNL     1      -8.373   8.723  64.821  1.00  0.00    -0.168 A  
BRANCH  18  22
HETATM   22  O   UNL     1     -10.661  12.030  63.710  1.00  0.00    -0.347 OA 
BRANCH  22  23
HETATM   23  C   UNL     1     -12.043  11.813  63.420  1.00  0.00    -0.340 C  
HETATM   24  C   UNL     1     -12.889  12.612  64.392  1.00  0.00    -0.344 C  
ENDBRANCH  22  23
ENDBRANCH  18  22
BRANCH  21  25
HETATM   25  S   UNL     1      -7.601   7.197  65.289  1.00  0.00    -0.110 S  
HETATM   26  O   UNL     1      -6.405   7.536  66.029  1.00  0.00    -0.041 OA 
HETATM   27  O   UNL     1      -7.532   6.377  64.100  1.00  0.00    -0.070 OA 
BRANCH  25  28
HETATM   28  N   UNL     1      -8.721   6.505  66.380  1.00  0.00    -0.135 N  
HETATM   29  C   UNL     1      -9.395   5.238  65.951  1.00  0.00    -0.155 C  
HETATM   30  C   UNL     1      -8.487   3.994  66.130  1.00  0.00    -0.109 C  
HETATM   31  N   UNL     1      -7.855   3.854  67.464  1.00  0.00    -0.085 NA 
HETATM   32  C   UNL     1      -7.222   5.138  67.841  1.00  0.00    -0.067 C  
HETATM   33  C   UNL     1      -8.176   6.345  67.767  1.00  0.00    -0.118 C  
BRANCH  31  34
HETATM   34  C   UNL     1      -8.819   3.350  68.451  1.00  0.00    -0.119 C  
HETATM   35  C   UNL     1      -9.243   1.904  68.214  1.00  0.00    -0.232 C  
ENDBRANCH  31  34
ENDBRANCH  25  28
ENDBRANCH  21  25
ENDBRANCH  11  16
ENDBRANCH   3   4
ENDBRANCH   2   3
TORSDOF 8
ENDMDL
MODEL      100
REMARK 921   NORMALIZED FREE ENERGY PREDICTED BY IDOCK:   -4.88 KCAL/MOL
REMARK 922        TOTAL FREE ENERGY PREDICTED BY IDOCK:   -8.17 KCAL/MOL
REMARK 923 INTER-LIGAND FREE ENERGY PREDICTED BY IDOCK:   -7.22 KCAL/MOL
REMARK 924 INTRA-LIGAND FREE ENERGY PREDICTED BY IDOCK:   -0.95 KCAL/MOL
REMARK 927      BINDING AFFINITY PREDICTED BY RF-SCORE:    0.00 PKD
ROOT
HETATM    1  C   UNL     1      -7.641   9.460  64.105  1.00  0.00    -0.115 C  
HETATM    2  C   UNL     1      -8.337  10.505  63.240  1.00  0.00    -0.134 C  
ENDROOT
BRANCH   2   3
HETATM    3  C   UNL     1      -9.863  10.473  63.343  1.00  0.00    -0.323 C  
BRANCH   3   4
HETATM    4  C   UNL     1     -10.428  11.649  64.069  1.00  0.00    -0.367 A  
HETATM    5  N   UNL     1     -11.102  12.634  63.507  1.00  0.00    -0.444 NA 
HETATM    6  C   UNL     1     -11.450  13.488  64.524  1.00  0.00    -0.381 A  
HETATM    7  C   UNL     1     -10.964  13.010  65.723  1.00  0.00    -0.277 A  
HETATM    8  C   UNL     1     -12.237  14.713  64.259  1.00  0.00    -0.432 C  
HETATM    9  N   UNL     1     -10.332  11.850  65.428  1.00  0.00    -0.256 NA 
HETATM   10  N   UNL     1      -9.774  11.051  66.388  1.00  0.00    -0.195 NA 
HETATM   11  C   UNL     1      -9.752  11.629  67.652  1.00  0.00    -0.180 C  
HETATM   12  N   UNL     1     -10.324  12.749  67.973  1.00  0.00    -0.223 N  
HETATM   13  O   UNL     1     -11.650  14.505  67.376  1.00  0.00    -0.353 OA 
HETATM   14  H   UNL     1     -10.244  13.085  68.932  1.00  0.00     0.000 HD 
HETATM   15  C   UNL     1     -11.034  13.496  67.065  1.00  0.00    -0.288 C  
BRANCH  11  16
HETATM   16  C   UNL     1      -8.999  10.907  68.751  1.00  0.00    -0.166 A  
HETATM   17  C   UNL     1      -6.997  10.432  70.054  1.00  0.00    -0.159 A  
HETATM   18  C   UNL     1      -7.629  11.146  69.020  1.00  0.00    -0.119 A  
HETATM   19  C   UNL     1      -9.688   9.937  69.498  1.00  0.00    -0.238 A  
HETATM   20  C   UNL     1      -7.691   9.480  70.797  1.00  0.00    -0.094 A  
HETATM   21  C   UNL     1      -9.030   9.236  70.514  1.00  0.00    -0.250 A  
BRANCH  18  22
HETATM   22  O   UNL     1      -6.972  12.089  68.272  1.00  0.00    -0.065 OA 
BRANCH  22  23
HETATM   23  C   UNL     1      -6.738  13.364  68.873  1.00  0.00    -0.110 C  
HETATM   24  C   UNL     1      -6.590  14.410  67.786  1.00  0.00    -0.189 C  
ENDBRANCH  22  23
ENDBRANCH  18  22
BRANCH  21  25
HETATM   25  S   UNL     1      -9.835   7.869  71.306  1.00  0.00    -0.170 S  
HETATM   26  O   UNL     1     -11.005   7.551  70.518  1.00  0.00    -0.244 OA 
HETATM   27  O   UNL     1      -9.951   8.202  72.709  1.00  0.00    -0.272 OA 
BRANCH  25  28
HETATM   28  N   UNL     1      -8.713   6.591  71.127  1.00  0.00    -0.137 N  
HETATM   29  C   UNL     1      -8.906   5.388  71.998  1.00  0.00    -0.134 C  
HETATM   30  C   UNL     1     -10.023   4.450  71.472  1.00  0.00    -0.180 C  
HETATM   31  N   UNL     1      -9.922   4.079  70.041  1.00  0.00    -0.120 NA 
HETATM   32  C   UNL     1      -9.714   5.303  69.234  1.00  0.00    -0.170 C  
HETATM   33  C   UNL     1      -8.525   6.162  69.703  1.00  0.00    -0.127 C  
BRANCH  31  34
HETATM   34  C   UNL     1      -8.896   3.048  69.837  1.00  0.00    -0.091 C  
HETATM   35  C   UNL     1      -9.279   1.995  68.803  1.00  0.00    -0.218 C  
ENDBRANCH  31  34
ENDBRANCH  25  28
ENDBRANCH  21  25
ENDBRANCH  11  16
ENDBRANCH   3   4
ENDBRANCH   2   3
TORSDOF 8
ENDMDL
MODEL      101
REMARK 921   NORMALIZED FREE ENERGY PREDICTED BY IDOCK:   -4.88 KCAL/MOL
REMARK 922        TOTAL FREE ENERGY PREDICTED BY IDOCK:   -8.17 KCAL/MOL
REMARK 923 INTER-LIGAND FREE ENERGY PREDICTED BY IDOCK:   -7.84 KCAL/MOL
REMARK 924 INTRA-LIGAND FREE ENERGY PREDICTED BY IDOCK:   -0.33 KCAL/MOL
REMARK 927      BINDING AFFINITY PREDICTED BY RF-SCORE:    0.00 PKD
ROOT
HETATM    1  C   UNL     1     -13.125  14.094  71.119  1.00  0.00    -0.398 C  
HETATM    2  C   UNL     1     -12.254  13.640  69.954  1.00  0.00    -0.367 C  
ENDROOT
BRANCH   2   3
HETATM    3  C   UNL     1     -12.157  14.663  68.820  1.00  0.00    -0.237 C  
BRANCH   3   4
HETATM    4  C   UNL     1     -11.757  14.057  67.515  1.00  0.00    -0.387 A  
HETATM    5  N   UNL     1     -12.348  14.293  66.359  1.00  0.00    -0.424 NA 
HETATM    6  C   UNL     1     -11.662  13.556  65.424  1.00  0.00    -0.332 A  
HETATM    7  C   UNL     1     -10.644  12.855  66.035  1.00  0.00    -0.270 A  
HETATM    8  C   UNL     1     -12.044  13.590  63.995  1.00  0.00    -0.494 C  
HETATM    9  N   UNL     1     -10.706  13.184  67.347  1.00  0.00    -0.251 NA 
HETATM   10  N   UNL     1      -9.801  12.724  68.264  1.00  0.00    -0.225 NA 
HETATM   11  C   UNL     1      -8.942  11.753  67.764  1.00  0.00    -0.173 C  
HETATM   12  N   UNL     1      -8.865  11.392  66.520  1.00  0.00    -0.183 N  
HETATM   13  O   UNL     1      -9.524  11.686  64.357  1.00  0.00    -0.154 OA 
HETATM   14  H   UNL     1      -8.198  10.666  66.259  1.00  0.00     0.000 HD 
HETATM   15  C   UNL     1      -9.650  11.955  65.543  1.00  0.00    -0.182 C  
BRANCH  11  16
HETATM   16  C   UNL     1      -8.019  11.050  68.738  1.00  0.00    -0.144 A  
HETATM   17  C   UNL     1      -5.833  10.600  69.710  1.00  0.00    -0.055 A  
HETATM   18  C   UNL     1      -6.625  11.296  68.781  1.00  0.00    -0.062 A  
HETATM   19  C   UNL     1      -8.575  10.089  69.599  1.00  0.00    -0.198 A  
HETATM   20  C   UNL     1      -6.393   9.658  70.568  1.00  0.00    -0.088 A  
HETATM   21  C   UNL     1      -7.759   9.405  70.507  1.00  0.00    -0.161 A  
BRANCH  18  22
HETATM   22  O   UNL     1      -6.101  12.230  67.924  1.00  0.00    -0.063 OA 
BRANCH  22  23
HETATM   23  C   UNL     1      -5.535  13.409  68.498  1.00  0.00    -0.083 C  
HETATM   24  C   UNL     1      -6.605  14.152  69.273  1.00  0.00    -0.120 C  
ENDBRANCH  22  23
ENDBRANCH  18  22
BRANCH  21  25
HETATM   25  S   UNL     1      -8.419   8.048  71.438  1.00  0.00    -0.130 S  
HETATM   26  O   UNL     1      -8.750   8.555  72.751  1.00  0.00    -0.321 OA 
HETATM   27  O   UNL     1      -7.502   6.941  71.278  1.00  0.00    -0.080 OA 
BRANCH  25  28
HETATM   28  N   UNL     1      -9.879   7.685  70.626  1.00  0.00    -0.182 N  
HETATM   29  C   UNL     1     -10.492   6.345  70.894  1.00  0.00    -0.228 C  
HETATM   30  C   UNL     1     -11.257   6.302  72.242  1.00  0.00    -0.283 C  
HETATM   31  N   UNL     1     -12.228   7.401  72.457  1.00  0.00    -0.091 NA 
HETATM   32  C   UNL     1     -11.574   8.695  72.162  1.00  0.00    -0.370 C  
HETATM   33  C   UNL     1     -10.919   8.755  70.769  1.00  0.00    -0.247 C  
BRANCH  31  34
HETATM   34  C   UNL     1     -13.463   7.168  71.696  1.00  0.00    -0.321 C  
HETATM   35  C   UNL     1     -14.400   8.370  71.660  1.00  0.00    -0.536 C  
ENDBRANCH  31  34
ENDBRANCH  25  28
ENDBRANCH  21  25
ENDBRANCH  11  16
ENDBRANCH   3   4
ENDBRANCH   2   3
TORSDOF 8
ENDMDL
MODEL      102
REMARK 921   NORMALIZED FREE ENERGY PREDICTED BY IDOCK:   -4.87 KCAL/MOL
REMARK 922        TOTAL FREE ENERGY PREDICTED BY IDOCK:   -8.16 KCAL/MOL
REMARK 923 INTER-LIGAND FREE ENERGY PREDICTED BY IDOCK:   -8.27 KCAL/MOL
REMARK 924 INTRA-LIGAND FREE ENERGY PREDICTED BY IDOCK:    0.12 KCAL/MOL
REMARK 927      BINDING AFFINITY PREDICTED BY RF-SCORE:    0.00 PKD
ROOT
HETATM    1  C   UNL     1     -11.790  16.326  71.932  1.00  0.00    -0.538 C  
HETATM    2  C   UNL     1     -11.744  15.422  70.706  1.00  0.00    -0.385 C  
ENDROOT
BRANCH   2   3
HETATM    3  C   UNL     1     -10.587  15.732  69.753  1.00  0.00    -0.312 C  
BRANCH   3   4
HETATM    4  C   UNL     1     -10.789  15.173  68.383  1.00  0.00    -0.255 A  
HETATM    5  N   UNL     1     -10.863  15.887  67.276  1.00  0.00    -0.309 NA 
HETATM    6  C   UNL     1     -11.032  14.988  66.252  1.00  0.00    -0.338 A  
HETATM    7  C   UNL     1     -11.070  13.706  66.757  1.00  0.00    -0.307 A  
HETATM    8  C   UNL     1     -11.140  15.441  64.848  1.00  0.00    -0.435 C  
HETATM    9  N   UNL     1     -10.907  13.832  68.095  1.00  0.00    -0.240 NA 
HETATM   10  N   UNL     1     -10.827  12.751  68.931  1.00  0.00    -0.226 NA 
HETATM   11  C   UNL     1     -11.115  11.542  68.310  1.00  0.00    -0.239 C  
HETATM   12  N   UNL     1     -11.300  11.380  67.036  1.00  0.00    -0.288 N  
HETATM   13  O   UNL     1     -11.310  12.268  64.936  1.00  0.00    -0.309 OA 
HETATM   14  H   UNL     1     -11.509  10.446  66.684  1.00  0.00     0.000 HD 
HETATM   15  C   UNL     1     -11.225  12.423  66.146  1.00  0.00    -0.322 C  
BRANCH  11  16
HETATM   16  C   UNL     1     -11.229  10.306  69.180  1.00  0.00    -0.268 A  
HETATM   17  C   UNL     1     -12.067   9.089  71.116  1.00  0.00    -0.345 A  
HETATM   18  C   UNL     1     -12.015  10.272  70.357  1.00  0.00    -0.303 A  
HETATM   19  C   UNL     1     -10.489   9.169  68.814  1.00  0.00    -0.236 A  
HETATM   20  C   UNL     1     -11.340   7.963  70.740  1.00  0.00    -0.283 A  
HETATM   21  C   UNL     1     -10.553   8.009  69.594  1.00  0.00    -0.223 A  
BRANCH  18  22
HETATM   22  O   UNL     1     -12.721  11.397  70.703  1.00  0.00    -0.272 OA 
BRANCH  22  23
HETATM   23  C   UNL     1     -13.253  11.461  72.027  1.00  0.00    -0.327 C  
HETATM   24  C   UNL     1     -13.598  12.900  72.358  1.00  0.00    -0.577 C  
ENDBRANCH  22  23
ENDBRANCH  18  22
BRANCH  21  25
HETATM   25  S   UNL     1      -9.459   6.656  69.254  1.00  0.00    -0.140 S  
HETATM   26  O   UNL     1     -10.246   5.624  68.614  1.00  0.00    -0.168 OA 
HETATM   27  O   UNL     1      -8.730   6.386  70.473  1.00  0.00    -0.140 OA 
BRANCH  25  28
HETATM   28  N   UNL     1      -8.384   7.299  68.091  1.00  0.00    -0.124 N  
HETATM   29  C   UNL     1      -7.010   7.664  68.562  1.00  0.00    -0.072 C  
HETATM   30  C   UNL     1      -6.084   6.429  68.702  1.00  0.00    -0.025 C  
HETATM   31  N   UNL     1      -6.037   5.532  67.523  1.00  0.00    -0.028 NA 
HETATM   32  C   UNL     1      -7.419   5.220  67.093  1.00  0.00    -0.084 C  
HETATM   33  C   UNL     1      -8.288   6.467  66.847  1.00  0.00    -0.113 C  
BRANCH  31  34
HETATM   34  C   UNL     1      -5.195   6.101  66.463  1.00  0.00    -0.009 C  
HETATM   35  C   UNL     1      -5.983   6.661  65.284  1.00  0.00    -0.034 C  
ENDBRANCH  31  34
ENDBRANCH  25  28
ENDBRANCH  21  25
ENDBRANCH  11  16
ENDBRANCH   3   4
ENDBRANCH   2   3
TORSDOF 8
ENDMDL
MODEL      103
REMARK 921   NORMALIZED FREE ENERGY PREDICTED BY IDOCK:   -4.87 KCAL/MOL
REMARK 922        TOTAL FREE ENERGY PREDICTED BY IDOCK:   -8.15 KCAL/MOL
REMARK 923 INTER-LIGAND FREE ENERGY PREDICTED BY IDOCK:   -7.24 KCAL/MOL
REMARK 924 INTRA-LIGAND FREE ENERGY PREDICTED BY IDOCK:   -0.91 KCAL/MOL
REMARK 927      BINDING AFFINITY PREDICTED BY RF-SCORE:    0.00 PKD
ROOT
HETATM    1  C   UNL     1     -10.339  19.088  66.170  1.00  0.00    -0.537 C  
HETATM    2  C   UNL     1     -10.568  17.581  66.152  1.00  0.00    -0.211 C  
ENDROOT
BRANCH   2   3
HETATM    3  C   UNL     1     -10.695  16.960  67.545  1.00  0.00    -0.270 C  
BRANCH   3   4
HETATM    4  C   UNL     1      -9.380  16.568  68.135  1.00  0.00    -0.218 A  
HETATM    5  N   UNL     1      -8.457  17.413  68.555  1.00  0.00    -0.269 NA 
HETATM    6  C   UNL     1      -7.427  16.643  69.036  1.00  0.00    -0.232 A  
HETATM    7  C   UNL     1      -7.734  15.307  68.893  1.00  0.00    -0.167 A  
HETATM    8  C   UNL     1      -6.211  17.264  69.608  1.00  0.00    -0.232 C  
HETATM    9  N   UNL     1      -8.967  15.270  68.335  1.00  0.00    -0.178 NA 
HETATM   10  N   UNL     1      -9.634  14.099  68.101  1.00  0.00    -0.211 NA 
HETATM   11  C   UNL     1      -8.860  12.964  68.310  1.00  0.00    -0.168 C  
HETATM   12  N   UNL     1      -7.667  12.955  68.820  1.00  0.00    -0.296 N  
HETATM   13  O   UNL     1      -5.946  14.101  69.782  1.00  0.00    -0.105 OA 
HETATM   14  H   UNL     1      -7.185  12.063  68.929  1.00  0.00     0.000 HD 
HETATM   15  C   UNL     1      -7.032  14.106  69.219  1.00  0.00    -0.103 C  
BRANCH  11  16
HETATM   16  C   UNL     1      -9.442  11.623  67.910  1.00  0.00    -0.181 A  
HETATM   17  C   UNL     1     -10.282  10.027  66.275  1.00  0.00    -0.285 A  
HETATM   18  C   UNL     1      -9.737  11.290  66.566  1.00  0.00    -0.202 A  
HETATM   19  C   UNL     1      -9.732  10.698  68.928  1.00  0.00    -0.210 A  
HETATM   20  C   UNL     1     -10.556   9.112  67.287  1.00  0.00    -0.303 A  
HETATM   21  C   UNL     1     -10.283   9.452  68.608  1.00  0.00    -0.201 A  
BRANCH  18  22
HETATM   22  O   UNL     1      -9.457  12.211  65.589  1.00  0.00    -0.209 OA 
BRANCH  22  23
HETATM   23  C   UNL     1     -10.510  12.558  64.688  1.00  0.00    -0.319 C  
HETATM   24  C   UNL     1     -10.654  14.067  64.645  1.00  0.00    -0.416 C  
ENDBRANCH  22  23
ENDBRANCH  18  22
BRANCH  21  25
HETATM   25  S   UNL     1     -10.846   8.378  69.901  1.00  0.00    -0.162 S  
HETATM   26  O   UNL     1     -11.080   7.082  69.303  1.00  0.00    -0.204 OA 
HETATM   27  O   UNL     1     -11.902   9.076  70.600  1.00  0.00    -0.255 OA 
BRANCH  25  28
HETATM   28  N   UNL     1      -9.485   8.249  70.928  1.00  0.00    -0.158 N  
HETATM   29  C   UNL     1      -9.719   7.697  72.301  1.00  0.00    -0.174 C  
HETATM   30  C   UNL     1      -9.839   6.151  72.304  1.00  0.00    -0.159 C  
HETATM   31  N   UNL     1      -8.755   5.426  71.600  1.00  0.00    -0.134 NA 
HETATM   32  C   UNL     1      -8.558   6.025  70.261  1.00  0.00    -0.143 C  
HETATM   33  C   UNL     1      -8.325   7.547  70.291  1.00  0.00    -0.133 C  
BRANCH  31  34
HETATM   34  C   UNL     1      -7.537   5.379  72.419  1.00  0.00    -0.097 C  
HETATM   35  C   UNL     1      -7.701   4.606  73.723  1.00  0.00    -0.094 C  
ENDBRANCH  31  34
ENDBRANCH  25  28
ENDBRANCH  21  25
ENDBRANCH  11  16
ENDBRANCH   3   4
ENDBRANCH   2   3
TORSDOF 8
ENDMDL
MODEL      104
REMARK 921   NORMALIZED FREE ENERGY PREDICTED BY IDOCK:   -4.86 KCAL/MOL
REMARK 922        TOTAL FREE ENERGY PREDICTED BY IDOCK:   -8.14 KCAL/MOL
REMARK 923 INTER-LIGAND FREE ENERGY PREDICTED BY IDOCK:   -8.22 KCAL/MOL
REMARK 924 INTRA-LIGAND FREE ENERGY PREDICTED BY IDOCK:    0.08 KCAL/MOL
REMARK 927      BINDING AFFINITY PREDICTED BY RF-SCORE:    0.00 PKD
ROOT
HETATM    1  C   UNL     1     -11.349  15.896  64.678  1.00  0.00    -0.328 C  
HETATM    2  C   UNL     1     -10.261  15.671  65.722  1.00  0.00    -0.391 C  
ENDROOT
BRANCH   2   3
HETATM    3  C   UNL     1     -10.425  16.529  66.978  1.00  0.00    -0.289 C  
BRANCH   3   4
HETATM    4  C   UNL     1     -11.075  15.800  68.107  1.00  0.00    -0.341 A  
HETATM    5  N   UNL     1     -11.634  16.372  69.157  1.00  0.00    -0.202 NA 
HETATM    6  C   UNL     1     -12.122  15.350  69.933  1.00  0.00    -0.355 A  
HETATM    7  C   UNL     1     -11.840  14.137  69.342  1.00  0.00    -0.330 A  
HETATM    8  C   UNL     1     -12.835  15.627  71.200  1.00  0.00    -0.540 C  
HETATM    9  N   UNL     1     -11.191  14.431  68.191  1.00  0.00    -0.269 NA 
HETATM   10  N   UNL     1     -10.806  13.468  67.298  1.00  0.00    -0.274 NA 
HETATM   11  C   UNL     1     -10.972  12.171  67.767  1.00  0.00    -0.233 C  
HETATM   12  N   UNL     1     -11.567  11.847  68.874  1.00  0.00    -0.285 N  
HETATM   13  O   UNL     1     -12.751  12.486  70.715  1.00  0.00    -0.239 OA 
HETATM   14  H   UNL     1     -11.633  10.860  69.126  1.00  0.00     0.000 HD 
HETATM   15  C   UNL     1     -12.111  12.785  69.716  1.00  0.00    -0.237 C  
BRANCH  11  16
HETATM   16  C   UNL     1     -10.415  11.036  66.933  1.00  0.00    -0.293 A  
HETATM   17  C   UNL     1      -9.712  10.040  64.825  1.00  0.00    -0.363 A  
HETATM   18  C   UNL     1     -10.229  11.139  65.533  1.00  0.00    -0.263 A  
HETATM   19  C   UNL     1     -10.112   9.826  67.579  1.00  0.00    -0.246 A  
HETATM   20  C   UNL     1      -9.404   8.848  65.475  1.00  0.00    -0.214 A  
HETATM   21  C   UNL     1      -9.608   8.745  66.847  1.00  0.00    -0.190 A  
BRANCH  18  22
HETATM   22  O   UNL     1     -10.541  12.325  64.919  1.00  0.00    -0.273 OA 
BRANCH  22  23
HETATM   23  C   UNL     1     -11.039  12.266  63.581  1.00  0.00    -0.469 C  
HETATM   24  C   UNL     1     -12.544  12.445  63.600  1.00  0.00    -0.550 C  
ENDBRANCH  22  23
ENDBRANCH  18  22
BRANCH  21  25
HETATM   25  S   UNL     1      -9.432   7.160  67.621  1.00  0.00    -0.128 S  
HETATM   26  O   UNL     1      -9.188   6.199  66.568  1.00  0.00    -0.142 OA 
HETATM   27  O   UNL     1     -10.550   7.005  68.524  1.00  0.00    -0.200 OA 
BRANCH  25  28
HETATM   28  N   UNL     1      -7.995   7.323  68.533  1.00  0.00    -0.122 N  
HETATM   29  C   UNL     1      -8.104   7.134  70.015  1.00  0.00    -0.127 C  
HETATM   30  C   UNL     1      -8.164   5.638  70.419  1.00  0.00    -0.105 C  
HETATM   31  N   UNL     1      -7.109   4.778  69.834  1.00  0.00    -0.052 NA 
HETATM   32  C   UNL     1      -7.035   5.019  68.376  1.00  0.00    -0.057 C  
HETATM   33  C   UNL     1      -6.858   6.503  68.001  1.00  0.00    -0.074 C  
BRANCH  31  34
HETATM   34  C   UNL     1      -5.832   4.964  70.536  1.00  0.00    -0.017 C  
HETATM   35  C   UNL     1      -5.956   4.941  72.056  1.00  0.00    -0.017 C  
ENDBRANCH  31  34
ENDBRANCH  25  28
ENDBRANCH  21  25
ENDBRANCH  11  16
ENDBRANCH   3   4
ENDBRANCH   2   3
TORSDOF 8
ENDMDL
MODEL      105
REMARK 921   NORMALIZED FREE ENERGY PREDICTED BY IDOCK:   -4.85 KCAL/MOL
REMARK 922        TOTAL FREE ENERGY PREDICTED BY IDOCK:   -8.12 KCAL/MOL
REMARK 923 INTER-LIGAND FREE ENERGY PREDICTED BY IDOCK:   -6.79 KCAL/MOL
REMARK 924 INTRA-LIGAND FREE ENERGY PREDICTED BY IDOCK:   -1.33 KCAL/MOL
REMARK 927      BINDING AFFINITY PREDICTED BY RF-SCORE:    0.00 PKD
ROOT
HETATM    1  C   UNL     1      -8.800   9.583  63.379  1.00  0.00    -0.236 C  
HETATM    2  C   UNL     1      -7.584   9.834  64.262  1.00  0.00    -0.135 C  
ENDROOT
BRANCH   2   3
HETATM    3  C   UNL     1      -6.713   8.595  64.483  1.00  0.00    -0.066 C  
BRANCH   3   4
HETATM    4  C   UNL     1      -7.508   7.358  64.745  1.00  0.00    -0.088 A  
HETATM    5  N   UNL     1      -7.527   6.291  63.968  1.00  0.00    -0.076 NA 
HETATM    6  C   UNL     1      -8.362   5.389  64.580  1.00  0.00    -0.141 A  
HETATM    7  C   UNL     1      -8.865   5.931  65.744  1.00  0.00    -0.139 A  
HETATM    8  C   UNL     1      -8.611   4.056  63.989  1.00  0.00    -0.102 C  
HETATM    9  N   UNL     1      -8.314   7.164  65.844  1.00  0.00    -0.135 NA 
HETATM   10  N   UNL     1      -8.534   7.983  66.917  1.00  0.00    -0.122 NA 
HETATM   11  C   UNL     1      -9.510   7.513  67.788  1.00  0.00    -0.141 C  
HETATM   12  N   UNL     1     -10.078   6.349  67.717  1.00  0.00    -0.134 N  
HETATM   13  O   UNL     1     -10.223   4.304  66.718  1.00  0.00    -0.167 OA 
HETATM   14  H   UNL     1     -10.787   6.104  68.409  1.00  0.00     0.000 HD 
HETATM   15  C   UNL     1      -9.759   5.436  66.742  1.00  0.00    -0.157 C  
BRANCH  11  16
HETATM   16  C   UNL     1      -9.957   8.424  68.913  1.00  0.00    -0.194 A  
HETATM   17  C   UNL     1     -10.342   8.938  71.262  1.00  0.00    -0.355 A  
HETATM   18  C   UNL     1      -9.903   8.039  70.275  1.00  0.00    -0.184 A  
HETATM   19  C   UNL     1     -10.482   9.683  68.576  1.00  0.00    -0.241 A  
HETATM   20  C   UNL     1     -10.850  10.188  70.920  1.00  0.00    -0.154 A  
HETATM   21  C   UNL     1     -10.920  10.553  69.580  1.00  0.00    -0.283 A  
BRANCH  18  22
HETATM   22  O   UNL     1      -9.397   6.801  70.582  1.00  0.00    -0.161 OA 
BRANCH  22  23
HETATM   23  C   UNL     1     -10.260   5.884  71.257  1.00  0.00    -0.210 C  
HETATM   24  C   UNL     1      -9.909   4.469  70.843  1.00  0.00    -0.269 C  
ENDBRANCH  22  23
ENDBRANCH  18  22
BRANCH  21  25
HETATM   25  S   UNL     1     -11.777  12.044  69.145  1.00  0.00    -0.332 S  
HETATM   26  O   UNL     1     -12.691  12.338  70.226  1.00  0.00    -0.004 OA 
HETATM   27  O   UNL     1     -12.256  11.875  67.791  1.00  0.00    -0.508 OA 
BRANCH  25  28
HETATM   28  N   UNL     1     -10.543  13.227  69.158  1.00  0.00    -0.057 N  
HETATM   29  C   UNL     1      -9.658  13.301  67.952  1.00  0.00    -0.217 C  
HETATM   30  C   UNL     1     -10.329  14.047  66.770  1.00  0.00    -0.271 C  
HETATM   31  N   UNL     1     -10.915  15.367  67.101  1.00  0.00    -0.326 NA 
HETATM   32  C   UNL     1     -11.763  15.236  68.307  1.00  0.00    -0.301 C  
HETATM   33  C   UNL     1     -11.039  14.598  69.507  1.00  0.00    -0.266 C  
BRANCH  31  34
HETATM   34  C   UNL     1      -9.869  16.392  67.213  1.00  0.00    -0.245 C  
HETATM   35  C   UNL     1     -10.391  17.760  67.640  1.00  0.00    -0.375 C  
ENDBRANCH  31  34
ENDBRANCH  25  28
ENDBRANCH  21  25
ENDBRANCH  11  16
ENDBRANCH   3   4
ENDBRANCH   2   3
TORSDOF 8
ENDMDL
MODEL      106
REMARK 921   NORMALIZED FREE ENERGY PREDICTED BY IDOCK:   -4.83 KCAL/MOL
REMARK 922        TOTAL FREE ENERGY PREDICTED BY IDOCK:   -8.10 KCAL/MOL
REMARK 923 INTER-LIGAND FREE ENERGY PREDICTED BY IDOCK:   -7.27 KCAL/MOL
REMARK 924 INTRA-LIGAND FREE ENERGY PREDICTED BY IDOCK:   -0.83 KCAL/MOL
REMARK 927      BINDING AFFINITY PREDICTED BY RF-SCORE:    0.00 PKD
ROOT
HETATM    1  C   UNL     1     -12.354  12.513  64.741  1.00  0.00    -0.544 C  
HETATM    2  C   UNL     1     -12.779  13.817  65.406  1.00  0.00    -0.513 C  
ENDROOT
BRANCH   2   3
HETATM    3  C   UNL     1     -12.151  14.041  66.783  1.00  0.00    -0.480 C  
BRANCH   3   4
HETATM    4  C   UNL     1     -10.842  14.757  66.723  1.00  0.00    -0.316 A  
HETATM    5  N   UNL     1     -10.670  15.981  66.262  1.00  0.00    -0.276 NA 
HETATM    6  C   UNL     1      -9.332  16.257  66.404  1.00  0.00    -0.292 A  
HETATM    7  C   UNL     1      -8.685  15.169  66.952  1.00  0.00    -0.259 A  
HETATM    8  C   UNL     1      -8.774  17.566  65.997  1.00  0.00    -0.069 C  
HETATM    9  N   UNL     1      -9.644  14.236  67.158  1.00  0.00    -0.238 NA 
HETATM   10  N   UNL     1      -9.384  13.033  67.755  1.00  0.00    -0.192 NA 
HETATM   11  C   UNL     1      -8.030  12.789  67.953  1.00  0.00    -0.158 C  
HETATM   12  N   UNL     1      -7.078  13.646  67.748  1.00  0.00    -0.146 N  
HETATM   13  O   UNL     1      -6.442  15.763  67.190  1.00  0.00    -0.282 OA 
HETATM   14  H   UNL     1      -6.114  13.361  67.924  1.00  0.00     0.000 HD 
HETATM   15  C   UNL     1      -7.323  14.921  67.302  1.00  0.00    -0.140 C  
BRANCH  11  16
HETATM   16  C   UNL     1      -7.620  11.415  68.444  1.00  0.00    -0.123 A  
HETATM   17  C   UNL     1      -6.101   9.883  69.572  1.00  0.00    -0.044 A  
HETATM   18  C   UNL     1      -6.416  11.187  69.154  1.00  0.00    -0.074 A  
HETATM   19  C   UNL     1      -8.457  10.328  68.142  1.00  0.00    -0.123 A  
HETATM   20  C   UNL     1      -6.941   8.812  69.279  1.00  0.00    -0.058 A  
HETATM   21  C   UNL     1      -8.112   9.039  68.564  1.00  0.00    -0.107 A  
BRANCH  18  22
HETATM   22  O   UNL     1      -5.608  12.261  69.428  1.00  0.00    -0.070 OA 
BRANCH  22  23
HETATM   23  C   UNL     1      -5.342  12.553  70.801  1.00  0.00    -0.167 C  
HETATM   24  C   UNL     1      -5.800  13.965  71.110  1.00  0.00    -0.194 C  
ENDBRANCH  22  23
ENDBRANCH  18  22
BRANCH  21  25
HETATM   25  S   UNL     1      -9.052   7.645  68.000  1.00  0.00    -0.134 S  
HETATM   26  O   UNL     1      -8.241   6.468  68.223  1.00  0.00    -0.112 OA 
HETATM   27  O   UNL     1      -9.540   7.972  66.678  1.00  0.00    -0.197 OA 
BRANCH  25  28
HETATM   28  N   UNL     1     -10.372   7.593  69.085  1.00  0.00    -0.211 N  
HETATM   29  C   UNL     1     -11.176   6.329  69.119  1.00  0.00    -0.371 C  
HETATM   30  C   UNL     1     -10.486   5.210  69.939  1.00  0.00    -0.226 C  
HETATM   31  N   UNL     1     -10.028   5.603  71.293  1.00  0.00    -0.188 NA 
HETATM   32  C   UNL     1      -9.256   6.862  71.200  1.00  0.00    -0.154 C  
HETATM   33  C   UNL     1     -10.008   7.999  70.481  1.00  0.00    -0.190 C  
BRANCH  31  34
HETATM   34  C   UNL     1     -11.155   5.660  72.233  1.00  0.00    -0.261 C  
HETATM   35  C   UNL     1     -10.824   5.132  73.624  1.00  0.00    -0.363 C  
ENDBRANCH  31  34
ENDBRANCH  25  28
ENDBRANCH  21  25
ENDBRANCH  11  16
ENDBRANCH   3   4
ENDBRANCH   2   3
TORSDOF 8
ENDMDL
MODEL      107
REMARK 921   NORMALIZED FREE ENERGY PREDICTED BY IDOCK:   -4.82 KCAL/MOL
REMARK 922        TOTAL FREE ENERGY PREDICTED BY IDOCK:   -8.09 KCAL/MOL
REMARK 923 INTER-LIGAND FREE ENERGY PREDICTED BY IDOCK:   -6.88 KCAL/MOL
REMARK 924 INTRA-LIGAND FREE ENERGY PREDICTED BY IDOCK:   -1.21 KCAL/MOL
REMARK 927      BINDING AFFINITY PREDICTED BY RF-SCORE:    0.00 PKD
ROOT
HETATM    1  C   UNL     1      -5.496  15.403  70.643  1.00  0.00    -0.123 C  
HETATM    2  C   UNL     1      -5.394  16.901  70.386  1.00  0.00    -0.223 C  
ENDROOT
BRANCH   2   3
HETATM    3  C   UNL     1      -5.396  17.274  68.901  1.00  0.00    -0.149 C  
BRANCH   3   4
HETATM    4  C   UNL     1      -6.669  17.917  68.459  1.00  0.00    -0.227 A  
HETATM    5  N   UNL     1      -6.836  19.212  68.267  1.00  0.00    -0.247 NA 
HETATM    6  C   UNL     1      -8.135  19.371  67.851  1.00  0.00    -0.298 A  
HETATM    7  C   UNL     1      -8.765  18.145  67.803  1.00  0.00    -0.255 A  
HETATM    8  C   UNL     1      -8.675  20.709  67.524  1.00  0.00    -0.271 C  
HETATM    9  N   UNL     1      -7.832  17.237  68.177  1.00  0.00    -0.212 NA 
HETATM   10  N   UNL     1      -8.078  15.892  68.187  1.00  0.00    -0.143 NA 
HETATM   11  C   UNL     1      -9.411  15.565  67.963  1.00  0.00    -0.193 C  
HETATM   12  N   UNL     1     -10.340  16.405  67.625  1.00  0.00    -0.277 N  
HETATM   13  O   UNL     1     -10.936  18.527  67.042  1.00  0.00    -0.293 OA 
HETATM   14  H   UNL     1     -11.289  16.059  67.487  1.00  0.00     0.000 HD 
HETATM   15  C   UNL     1     -10.089  17.744  67.446  1.00  0.00    -0.338 C  
BRANCH  11  16
HETATM   16  C   UNL     1      -9.825  14.117  68.128  1.00  0.00    -0.229 A  
HETATM   17  C   UNL     1     -11.302  12.368  68.958  1.00  0.00    -0.336 A  
HETATM   18  C   UNL     1     -10.986  13.733  68.843  1.00  0.00    -0.252 A  
HETATM   19  C   UNL     1      -8.996  13.125  67.580  1.00  0.00    -0.197 A  
HETATM   20  C   UNL     1     -10.481  11.391  68.401  1.00  0.00    -0.221 A  
HETATM   21  C   UNL     1      -9.332  11.773  67.718  1.00  0.00    -0.181 A  
BRANCH  18  22
HETATM   22  O   UNL     1     -11.776  14.717  69.381  1.00  0.00    -0.289 OA 
BRANCH  22  23
HETATM   23  C   UNL     1     -12.376  14.461  70.652  1.00  0.00    -0.351 C  
HETATM   24  C   UNL     1     -13.618  15.317  70.801  1.00  0.00    -0.313 C  
ENDBRANCH  22  23
ENDBRANCH  18  22
BRANCH  21  25
HETATM   25  S   UNL     1      -8.180  10.522  67.216  1.00  0.00    -0.119 S  
HETATM   26  O   UNL     1      -8.272   9.450  68.182  1.00  0.00    -0.116 OA 
HETATM   27  O   UNL     1      -6.921  11.185  66.959  1.00  0.00    -0.106 OA 
BRANCH  25  28
HETATM   28  N   UNL     1      -8.827   9.960  65.737  1.00  0.00    -0.141 N  
HETATM   29  C   UNL     1      -8.113  10.363  64.484  1.00  0.00    -0.114 C  
HETATM   30  C   UNL     1      -6.843   9.513  64.226  1.00  0.00    -0.101 C  
HETATM   31  N   UNL     1      -7.035   8.045  64.297  1.00  0.00    -0.070 NA 
HETATM   32  C   UNL     1      -7.758   7.708  65.544  1.00  0.00    -0.101 C  
HETATM   33  C   UNL     1      -9.078   8.482  65.723  1.00  0.00    -0.167 C  
BRANCH  31  34
HETATM   34  C   UNL     1      -7.677   7.540  63.077  1.00  0.00    -0.123 C  
HETATM   35  C   UNL     1      -7.841   6.024  63.050  1.00  0.00    -0.099 C  
ENDBRANCH  31  34
ENDBRANCH  25  28
ENDBRANCH  21  25
ENDBRANCH  11  16
ENDBRANCH   3   4
ENDBRANCH   2   3
TORSDOF 8
ENDMDL
MODEL      108
REMARK 921   NORMALIZED FREE ENERGY PREDICTED BY IDOCK:   -4.82 KCAL/MOL
REMARK 922        TOTAL FREE ENERGY PREDICTED BY IDOCK:   -8.08 KCAL/MOL
REMARK 923 INTER-LIGAND FREE ENERGY PREDICTED BY IDOCK:   -8.38 KCAL/MOL
REMARK 924 INTRA-LIGAND FREE ENERGY PREDICTED BY IDOCK:    0.29 KCAL/MOL
REMARK 927      BINDING AFFINITY PREDICTED BY RF-SCORE:    0.00 PKD
ROOT
HETATM    1  C   UNL     1      -9.392   2.738  68.273  1.00  0.00    -0.258 C  
HETATM    2  C   UNL     1      -8.425   3.830  67.833  1.00  0.00    -0.106 C  
ENDROOT
BRANCH   2   3
HETATM    3  C   UNL     1      -7.840   4.641  68.992  1.00  0.00    -0.071 C  
BRANCH   3   4
HETATM    4  C   UNL     1      -8.880   5.348  69.797  1.00  0.00    -0.110 A  
HETATM    5  N   UNL     1      -9.353   4.930  70.956  1.00  0.00    -0.146 NA 
HETATM    6  C   UNL     1     -10.266   5.874  71.357  1.00  0.00    -0.211 A  
HETATM    7  C   UNL     1     -10.350   6.875  70.412  1.00  0.00    -0.202 A  
HETATM    8  C   UNL     1     -10.994   5.738  72.638  1.00  0.00    -0.311 C  
HETATM    9  N   UNL     1      -9.468   6.540  69.441  1.00  0.00    -0.145 NA 
HETATM   10  N   UNL     1      -9.227   7.341  68.358  1.00  0.00    -0.138 NA 
HETATM   11  C   UNL     1     -10.098   8.419  68.255  1.00  0.00    -0.199 C  
HETATM   12  N   UNL     1     -10.973   8.762  69.150  1.00  0.00    -0.432 N  
HETATM   13  O   UNL     1     -11.884   8.438  71.215  1.00  0.00    -0.281 OA 
HETATM   14  H   UNL     1     -11.566   9.573  68.973  1.00  0.00     0.000 HD 
HETATM   15  C   UNL     1     -11.127   8.072  70.328  1.00  0.00    -0.224 C  
BRANCH  11  16
HETATM   16  C   UNL     1     -10.035   9.267  67.001  1.00  0.00    -0.286 A  
HETATM   17  C   UNL     1      -9.325   9.700  64.713  1.00  0.00    -0.286 A  
HETATM   18  C   UNL     1      -9.344   8.855  65.836  1.00  0.00    -0.236 A  
HETATM   19  C   UNL     1     -10.657  10.527  67.022  1.00  0.00    -0.310 A  
HETATM   20  C   UNL     1      -9.954  10.941  64.738  1.00  0.00    -0.366 A  
HETATM   21  C   UNL     1     -10.614  11.350  65.891  1.00  0.00    -0.263 A  
BRANCH  18  22
HETATM   22  O   UNL     1      -8.733   7.626  65.841  1.00  0.00    -0.157 OA 
BRANCH  22  23
HETATM   23  C   UNL     1      -7.539   7.480  65.071  1.00  0.00    -0.098 C  
HETATM   24  C   UNL     1      -6.539   6.651  65.853  1.00  0.00    -0.044 C  
ENDBRANCH  22  23
ENDBRANCH  18  22
BRANCH  21  25
HETATM   25  S   UNL     1     -11.209  13.017  65.990  1.00  0.00    -0.301 S  
HETATM   26  O   UNL     1     -12.587  12.950  66.425  1.00  0.00    -0.343 OA 
HETATM   27  O   UNL     1     -10.851  13.667  64.749  1.00  0.00    -0.349 OA 
BRANCH  25  28
HETATM   28  N   UNL     1     -10.285  13.692  67.261  1.00  0.00    -0.244 N  
HETATM   29  C   UNL     1     -10.437  15.162  67.506  1.00  0.00    -0.258 C  
HETATM   30  C   UNL     1     -11.727  15.500  68.295  1.00  0.00    -0.274 C  
HETATM   31  N   UNL     1     -11.941  14.714  69.533  1.00  0.00    -0.312 NA 
HETATM   32  C   UNL     1     -11.762  13.276  69.234  1.00  0.00    -0.326 C  
HETATM   33  C   UNL     1     -10.420  12.946  68.554  1.00  0.00    -0.247 C  
BRANCH  31  34
HETATM   34  C   UNL     1     -11.090  15.209  70.623  1.00  0.00    -0.263 C  
HETATM   35  C   UNL     1     -11.857  15.940  71.720  1.00  0.00    -0.579 C  
ENDBRANCH  31  34
ENDBRANCH  25  28
ENDBRANCH  21  25
ENDBRANCH  11  16
ENDBRANCH   3   4
ENDBRANCH   2   3
TORSDOF 8
ENDMDL
MODEL      109
REMARK 921   NORMALIZED FREE ENERGY PREDICTED BY IDOCK:   -4.81 KCAL/MOL
REMARK 922        TOTAL FREE ENERGY PREDICTED BY IDOCK:   -8.06 KCAL/MOL
REMARK 923 INTER-LIGAND FREE ENERGY PREDICTED BY IDOCK:   -7.65 KCAL/MOL
REMARK 924 INTRA-LIGAND FREE ENERGY PREDICTED BY IDOCK:   -0.41 KCAL/MOL
REMARK 927      BINDING AFFINITY PREDICTED BY RF-SCORE:    0.00 PKD
ROOT
HETATM    1  C   UNL     1     -12.141  12.069  63.520  1.00  0.00    -0.628 C  
HETATM    2  C   UNL     1     -12.682  12.928  64.656  1.00  0.00    -0.403 C  
ENDROOT
BRANCH   2   3
HETATM    3  C   UNL     1     -12.142  12.541  66.034  1.00  0.00    -0.390 C  
BRANCH   3   4
HETATM    4  C   UNL     1     -11.139  13.510  66.566  1.00  0.00    -0.300 A  
HETATM    5  N   UNL     1     -11.207  14.821  66.430  1.00  0.00    -0.341 NA 
HETATM    6  C   UNL     1     -10.107  15.329  67.076  1.00  0.00    -0.248 A  
HETATM    7  C   UNL     1      -9.356  14.300  67.602  1.00  0.00    -0.201 A  
HETATM    8  C   UNL     1      -9.864  16.788  67.139  1.00  0.00    -0.259 C  
HETATM    9  N   UNL     1     -10.018  13.162  67.285  1.00  0.00    -0.227 NA 
HETATM   10  N   UNL     1      -9.600  11.928  67.702  1.00  0.00    -0.182 NA 
HETATM   11  C   UNL     1      -8.350  11.936  68.309  1.00  0.00    -0.159 C  
HETATM   12  N   UNL     1      -7.672  13.001  68.610  1.00  0.00    -0.250 N  
HETATM   13  O   UNL     1      -7.551  15.276  68.710  1.00  0.00    -0.121 OA 
HETATM   14  H   UNL     1      -6.759  12.894  69.054  1.00  0.00     0.000 HD 
HETATM   15  C   UNL     1      -8.140  14.266  68.351  1.00  0.00    -0.142 C  
BRANCH  11  16
HETATM   16  C   UNL     1      -7.715  10.603  68.647  1.00  0.00    -0.110 A  
HETATM   17  C   UNL     1      -6.304   8.684  68.139  1.00  0.00    -0.052 A  
HETATM   18  C   UNL     1      -6.851   9.922  67.756  1.00  0.00    -0.080 A  
HETATM   19  C   UNL     1      -8.035  10.012  69.881  1.00  0.00    -0.184 A  
HETATM   20  C   UNL     1      -6.617   8.111  69.369  1.00  0.00    -0.035 A  
HETATM   21  C   UNL     1      -7.483   8.775  70.231  1.00  0.00    -0.067 A  
BRANCH  18  22
HETATM   22  O   UNL     1      -6.559  10.511  66.552  1.00  0.00    -0.085 OA 
BRANCH  22  23
HETATM   23  C   UNL     1      -7.177   9.966  65.384  1.00  0.00    -0.125 C  
HETATM   24  C   UNL     1      -8.583   9.514  65.726  1.00  0.00    -0.152 C  
ENDBRANCH  22  23
ENDBRANCH  18  22
BRANCH  21  25
HETATM   25  S   UNL     1      -8.053   7.933  71.684  1.00  0.00    -0.114 S  
HETATM   26  O   UNL     1      -8.517   8.946  72.606  1.00  0.00    -0.388 OA 
HETATM   27  O   UNL     1      -7.016   7.000  72.066  1.00  0.00    -0.064 OA 
BRANCH  25  28
HETATM   28  N   UNL     1      -9.413   7.060  71.127  1.00  0.00    -0.165 N  
HETATM   29  C   UNL     1     -10.123   6.197  72.124  1.00  0.00    -0.183 C  
HETATM   30  C   UNL     1     -11.056   7.013  73.055  1.00  0.00    -0.259 C  
HETATM   31  N   UNL     1     -11.989   7.937  72.370  1.00  0.00    -0.335 NA 
HETATM   32  C   UNL     1     -11.237   8.750  71.387  1.00  0.00    -0.292 C  
HETATM   33  C   UNL     1     -10.407   7.912  70.397  1.00  0.00    -0.212 C  
BRANCH  31  34
HETATM   34  C   UNL     1     -13.126   7.205  71.795  1.00  0.00    -0.314 C  
HETATM   35  C   UNL     1     -14.370   8.063  71.589  1.00  0.00    -0.581 C  
ENDBRANCH  31  34
ENDBRANCH  25  28
ENDBRANCH  21  25
ENDBRANCH  11  16
ENDBRANCH   3   4
ENDBRANCH   2   3
TORSDOF 8
ENDMDL
MODEL      110
REMARK 921   NORMALIZED FREE ENERGY PREDICTED BY IDOCK:   -4.80 KCAL/MOL
REMARK 922        TOTAL FREE ENERGY PREDICTED BY IDOCK:   -8.06 KCAL/MOL
REMARK 923 INTER-LIGAND FREE ENERGY PREDICTED BY IDOCK:   -7.58 KCAL/MOL
REMARK 924 INTRA-LIGAND FREE ENERGY PREDICTED BY IDOCK:   -0.47 KCAL/MOL
REMARK 927      BINDING AFFINITY PREDICTED BY RF-SCORE:    0.00 PKD
ROOT
HETATM    1  C   UNL     1     -11.386  16.157  64.380  1.00  0.00    -0.210 C  
HETATM    2  C   UNL     1     -11.137  14.787  64.998  1.00  0.00    -0.412 C  
ENDROOT
BRANCH   2   3
HETATM    3  C   UNL     1     -10.196  14.815  66.204  1.00  0.00    -0.310 C  
BRANCH   3   4
HETATM    4  C   UNL     1     -10.854  14.383  67.472  1.00  0.00    -0.282 A  
HETATM    5  N   UNL     1     -11.499  15.182  68.301  1.00  0.00    -0.325 NA 
HETATM    6  C   UNL     1     -11.960  14.384  69.319  1.00  0.00    -0.324 A  
HETATM    7  C   UNL     1     -11.574  13.078  69.102  1.00  0.00    -0.316 A  
HETATM    8  C   UNL     1     -12.751  14.949  70.435  1.00  0.00    -0.370 C  
HETATM    9  N   UNL     1     -10.889  13.087  67.934  1.00  0.00    -0.236 NA 
HETATM   10  N   UNL     1     -10.402  11.944  67.360  1.00  0.00    -0.205 NA 
HETATM   11  C   UNL     1     -10.510  10.821  68.170  1.00  0.00    -0.185 C  
HETATM   12  N   UNL     1     -11.138  10.774  69.305  1.00  0.00    -0.236 N  
HETATM   13  O   UNL     1     -12.448  11.813  70.855  1.00  0.00    -0.372 OA 
HETATM   14  H   UNL     1     -11.155   9.895  69.822  1.00  0.00     0.000 HD 
HETATM   15  C   UNL     1     -11.780  11.868  69.832  1.00  0.00    -0.308 C  
BRANCH  11  16
HETATM   16  C   UNL     1      -9.844   9.542  67.705  1.00  0.00    -0.196 A  
HETATM   17  C   UNL     1      -9.247   7.905  66.005  1.00  0.00    -0.162 A  
HETATM   18  C   UNL     1      -9.885   9.106  66.359  1.00  0.00    -0.280 A  
HETATM   19  C   UNL     1      -9.196   8.746  68.666  1.00  0.00    -0.141 A  
HETATM   20  C   UNL     1      -8.597   7.128  66.960  1.00  0.00    -0.122 A  
HETATM   21  C   UNL     1      -8.577   7.550  68.285  1.00  0.00    -0.124 A  
BRANCH  18  22
HETATM   22  O   UNL     1     -10.532   9.892  65.439  1.00  0.00    -0.110 OA 
BRANCH  22  23
HETATM   23  C   UNL     1      -9.765  10.394  64.343  1.00  0.00    -0.333 C  
HETATM   24  C   UNL     1     -10.551  11.482  63.638  1.00  0.00    -0.491 C  
ENDBRANCH  22  23
ENDBRANCH  18  22
BRANCH  21  25
HETATM   25  S   UNL     1      -7.952   6.447  69.524  1.00  0.00    -0.114 S  
HETATM   26  O   UNL     1      -6.857   7.125  70.182  1.00  0.00    -0.056 OA 
HETATM   27  O   UNL     1      -7.756   5.164  68.887  1.00  0.00    -0.079 OA 
BRANCH  25  28
HETATM   28  N   UNL     1      -9.245   6.327  70.636  1.00  0.00    -0.157 N  
HETATM   29  C   UNL     1      -9.896   4.986  70.780  1.00  0.00    -0.208 C  
HETATM   30  C   UNL     1      -9.072   4.020  71.670  1.00  0.00    -0.123 C  
HETATM   31  N   UNL     1      -8.648   4.567  72.981  1.00  0.00    -0.105 NA 
HETATM   32  C   UNL     1      -8.030   5.896  72.778  1.00  0.00    -0.104 C  
HETATM   33  C   UNL     1      -8.916   6.879  71.990  1.00  0.00    -0.133 C  
BRANCH  31  34
HETATM   34  C   UNL     1      -9.765   4.567  73.935  1.00  0.00    -0.130 C  
HETATM   35  C   UNL     1     -10.869   3.573  73.590  1.00  0.00    -0.324 C  
ENDBRANCH  31  34
ENDBRANCH  25  28
ENDBRANCH  21  25
ENDBRANCH  11  16
ENDBRANCH   3   4
ENDBRANCH   2   3
TORSDOF 8
ENDMDL
MODEL      111
REMARK 921   NORMALIZED FREE ENERGY PREDICTED BY IDOCK:   -4.80 KCAL/MOL
REMARK 922        TOTAL FREE ENERGY PREDICTED BY IDOCK:   -8.05 KCAL/MOL
REMARK 923 INTER-LIGAND FREE ENERGY PREDICTED BY IDOCK:   -7.79 KCAL/MOL
REMARK 924 INTRA-LIGAND FREE ENERGY PREDICTED BY IDOCK:   -0.26 KCAL/MOL
REMARK 927      BINDING AFFINITY PREDICTED BY RF-SCORE:    0.00 PKD
ROOT
HETATM    1  C   UNL     1     -13.594  15.266  70.843  1.00  0.00    -0.402 C  
HETATM    2  C   UNL     1     -12.294  14.528  71.143  1.00  0.00    -0.415 C  
ENDROOT
BRANCH   2   3
HETATM    3  C   UNL     1     -11.072  15.445  71.241  1.00  0.00    -0.341 C  
BRANCH   3   4
HETATM    4  C   UNL     1     -10.599  15.936  69.913  1.00  0.00    -0.326 A  
HETATM    5  N   UNL     1     -10.474  17.206  69.576  1.00  0.00    -0.230 NA 
HETATM    6  C   UNL     1      -9.996  17.213  68.289  1.00  0.00    -0.300 A  
HETATM    7  C   UNL     1      -9.842  15.919  67.839  1.00  0.00    -0.218 A  
HETATM    8  C   UNL     1      -9.720  18.485  67.584  1.00  0.00    -0.317 C  
HETATM    9  N   UNL     1     -10.213  15.125  68.870  1.00  0.00    -0.228 NA 
HETATM   10  N   UNL     1     -10.130  13.760  68.814  1.00  0.00    -0.184 NA 
HETATM   11  C   UNL     1      -9.814  13.271  67.552  1.00  0.00    -0.220 C  
HETATM   12  N   UNL     1      -9.474  13.997  66.532  1.00  0.00    -0.311 N  
HETATM   13  O   UNL     1      -8.985  16.052  65.673  1.00  0.00    -0.331 OA 
HETATM   14  H   UNL     1      -9.263  13.534  65.647  1.00  0.00     0.000 HD 
HETATM   15  C   UNL     1      -9.389  15.366  66.602  1.00  0.00    -0.263 C  
BRANCH  11  16
HETATM   16  C   UNL     1      -9.870  11.772  67.336  1.00  0.00    -0.189 A  
HETATM   17  C   UNL     1     -10.499   9.788  66.072  1.00  0.00    -0.076 A  
HETATM   18  C   UNL     1     -10.481  11.188  66.200  1.00  0.00    -0.253 A  
HETATM   19  C   UNL     1      -9.326  10.939  68.329  1.00  0.00    -0.168 A  
HETATM   20  C   UNL     1      -9.947   8.970  67.055  1.00  0.00    -0.295 A  
HETATM   21  C   UNL     1      -9.367   9.549  68.178  1.00  0.00    -0.133 A  
BRANCH  18  22
HETATM   22  O   UNL     1     -11.016  12.018  65.248  1.00  0.00    -0.292 OA 
BRANCH  22  23
HETATM   23  C   UNL     1     -10.319  12.134  64.006  1.00  0.00    -0.385 C  
HETATM   24  C   UNL     1     -10.217  10.766  63.360  1.00  0.00    -0.287 C  
ENDBRANCH  22  23
ENDBRANCH  18  22
BRANCH  21  25
HETATM   25  S   UNL     1      -8.878   8.501  69.523  1.00  0.00    -0.142 S  
HETATM   26  O   UNL     1      -9.643   8.912  70.680  1.00  0.00    -0.183 OA 
HETATM   27  O   UNL     1      -7.432   8.497  69.551  1.00  0.00    -0.076 OA 
BRANCH  25  28
HETATM   28  N   UNL     1      -9.432   6.957  69.043  1.00  0.00    -0.138 N  
HETATM   29  C   UNL     1      -8.392   5.909  68.791  1.00  0.00    -0.105 C  
HETATM   30  C   UNL     1      -7.853   5.283  70.102  1.00  0.00    -0.080 C  
HETATM   31  N   UNL     1      -8.886   4.811  71.054  1.00  0.00    -0.115 NA 
HETATM   32  C   UNL     1      -9.893   5.878  71.250  1.00  0.00    -0.176 C  
HETATM   33  C   UNL     1     -10.501   6.405  69.937  1.00  0.00    -0.213 C  
BRANCH  31  34
HETATM   34  C   UNL     1      -9.453   3.527  70.620  1.00  0.00    -0.173 C  
HETATM   35  C   UNL     1      -9.774   2.576  71.768  1.00  0.00    -0.224 C  
ENDBRANCH  31  34
ENDBRANCH  25  28
ENDBRANCH  21  25
ENDBRANCH  11  16
ENDBRANCH   3   4
ENDBRANCH   2   3
TORSDOF 8
ENDMDL
MODEL      112
REMARK 921   NORMALIZED FREE ENERGY PREDICTED BY IDOCK:   -4.77 KCAL/MOL
REMARK 922        TOTAL FREE ENERGY PREDICTED BY IDOCK:   -8.01 KCAL/MOL
REMARK 923 INTER-LIGAND FREE ENERGY PREDICTED BY IDOCK:   -7.89 KCAL/MOL
REMARK 924 INTRA-LIGAND FREE ENERGY PREDICTED BY IDOCK:   -0.12 KCAL/MOL
REMARK 927      BINDING AFFINITY PREDICTED BY RF-SCORE:    0.00 PKD
ROOT
HETATM    1  C   UNL     1     -12.257  16.035  72.285  1.00  0.00    -0.604 C  
HETATM    2  C   UNL     1     -12.948  15.590  71.002  1.00  0.00    -0.550 C  
ENDROOT
BRANCH   2   3
HETATM    3  C   UNL     1     -12.706  14.121  70.648  1.00  0.00    -0.389 C  
BRANCH   3   4
HETATM    4  C   UNL     1     -12.073  13.937  69.308  1.00  0.00    -0.339 A  
HETATM    5  N   UNL     1     -12.002  14.863  68.371  1.00  0.00    -0.268 NA 
HETATM    6  C   UNL     1     -11.332  14.289  67.318  1.00  0.00    -0.334 A  
HETATM    7  C   UNL     1     -11.004  12.986  67.627  1.00  0.00    -0.254 A  
HETATM    8  C   UNL     1     -11.054  15.053  66.082  1.00  0.00    -0.329 C  
HETATM    9  N   UNL     1     -11.465  12.778  68.882  1.00  0.00    -0.285 NA 
HETATM   10  N   UNL     1     -11.262  11.603  69.554  1.00  0.00    -0.238 NA 
HETATM   11  C   UNL     1     -10.715  10.596  68.768  1.00  0.00    -0.215 C  
HETATM   12  N   UNL     1     -10.282  10.747  67.555  1.00  0.00    -0.188 N  
HETATM   13  O   UNL     1      -9.835  12.130  65.798  1.00  0.00    -0.243 OA 
HETATM   14  H   UNL     1      -9.899   9.938  67.065  1.00  0.00     0.000 HD 
HETATM   15  C   UNL     1     -10.321  11.958  66.907  1.00  0.00    -0.210 C  
BRANCH  11  16
HETATM   16  C   UNL     1     -10.615   9.206  69.362  1.00  0.00    -0.232 A  
HETATM   17  C   UNL     1     -11.308   7.454  70.905  1.00  0.00    -0.300 A  
HETATM   18  C   UNL     1     -11.467   8.757  70.400  1.00  0.00    -0.144 A  
HETATM   19  C   UNL     1      -9.606   8.353  68.883  1.00  0.00    -0.153 A  
HETATM   20  C   UNL     1     -10.314   6.611  70.416  1.00  0.00    -0.231 A  
HETATM   21  C   UNL     1      -9.467   7.064  69.411  1.00  0.00    -0.145 A  
BRANCH  18  22
HETATM   22  O   UNL     1     -12.437   9.609  70.862  1.00  0.00    -0.293 OA 
BRANCH  22  23
HETATM   23  C   UNL     1     -12.825   9.489  72.232  1.00  0.00    -0.346 C  
HETATM   24  C   UNL     1     -14.197   8.849  72.309  1.00  0.00    -0.474 C  
ENDBRANCH  22  23
ENDBRANCH  18  22
BRANCH  21  25
HETATM   25  S   UNL     1      -8.067   6.073  68.961  1.00  0.00    -0.108 S  
HETATM   26  O   UNL     1      -8.351   4.721  69.387  1.00  0.00    -0.076 OA 
HETATM   27  O   UNL     1      -6.889   6.769  69.430  1.00  0.00    -0.057 OA 
BRANCH  25  28
HETATM   28  N   UNL     1      -8.093   6.106  67.252  1.00  0.00    -0.106 N  
HETATM   29  C   UNL     1      -6.985   5.391  66.541  1.00  0.00    -0.064 C  
HETATM   30  C   UNL     1      -7.205   3.857  66.492  1.00  0.00    -0.068 C  
HETATM   31  N   UNL     1      -8.536   3.421  66.010  1.00  0.00    -0.114 NA 
HETATM   32  C   UNL     1      -9.588   4.170  66.733  1.00  0.00    -0.208 C  
HETATM   33  C   UNL     1      -9.413   5.699  66.670  1.00  0.00    -0.147 C  
BRANCH  31  34
HETATM   34  C   UNL     1      -8.625   3.526  64.547  1.00  0.00    -0.097 C  
HETATM   35  C   UNL     1      -7.918   2.398  63.804  1.00  0.00    -0.080 C  
ENDBRANCH  31  34
ENDBRANCH  25  28
ENDBRANCH  21  25
ENDBRANCH  11  16
ENDBRANCH   3   4
ENDBRANCH   2   3
TORSDOF 8
ENDMDL
MODEL      113
REMARK 921   NORMALIZED FREE ENERGY PREDICTED BY IDOCK:   -4.74 KCAL/MOL
REMARK 922        TOTAL FREE ENERGY PREDICTED BY IDOCK:   -7.97 KCAL/MOL
REMARK 923 INTER-LIGAND FREE ENERGY PREDICTED BY IDOCK:   -6.83 KCAL/MOL
REMARK 924 INTRA-LIGAND FREE ENERGY PREDICTED BY IDOCK:   -1.13 KCAL/MOL
REMARK 927      BINDING AFFINITY PREDICTED BY RF-SCORE:    0.00 PKD
ROOT
HETATM    1  C   UNL     1     -11.802   6.734  71.812  1.00  0.00    -0.371 C  
HETATM    2  C   UNL     1     -11.160   5.353  71.854  1.00  0.00    -0.179 C  
ENDROOT
BRANCH   2   3
HETATM    3  C   UNL     1      -9.797   5.284  71.161  1.00  0.00    -0.250 C  
BRANCH   3   4
HETATM    4  C   UNL     1      -8.876   6.387  71.566  1.00  0.00    -0.137 A  
HETATM    5  N   UNL     1      -8.297   6.495  72.748  1.00  0.00    -0.116 NA 
HETATM    6  C   UNL     1      -7.527   7.630  72.692  1.00  0.00    -0.085 A  
HETATM    7  C   UNL     1      -7.655   8.223  71.454  1.00  0.00    -0.088 A  
HETATM    8  C   UNL     1      -6.715   8.059  73.852  1.00  0.00    -0.135 C  
HETATM    9  N   UNL     1      -8.496   7.429  70.751  1.00  0.00    -0.130 NA 
HETATM   10  N   UNL     1      -8.811   7.669  69.441  1.00  0.00    -0.139 NA 
HETATM   11  C   UNL     1      -8.344   8.889  68.968  1.00  0.00    -0.124 C  
HETATM   12  N   UNL     1      -7.555   9.690  69.616  1.00  0.00    -0.099 N  
HETATM   13  O   UNL     1      -6.275  10.103  71.457  1.00  0.00    -0.313 OA 
HETATM   14  H   UNL     1      -7.272  10.566  69.176  1.00  0.00     0.000 HD 
HETATM   15  C   UNL     1      -7.087   9.399  70.875  1.00  0.00    -0.088 C  
BRANCH  11  16
HETATM   16  C   UNL     1      -8.786   9.334  67.589  1.00  0.00    -0.116 A  
HETATM   17  C   UNL     1      -8.857   9.122  65.164  1.00  0.00    -0.241 A  
HETATM   18  C   UNL     1      -8.412   8.645  66.409  1.00  0.00    -0.112 A  
HETATM   19  C   UNL     1      -9.564  10.499  67.487  1.00  0.00    -0.181 A  
HETATM   20  C   UNL     1      -9.638  10.271  65.073  1.00  0.00    -0.346 A  
HETATM   21  C   UNL     1      -9.985  10.955  66.233  1.00  0.00    -0.227 A  
BRANCH  18  22
HETATM   22  O   UNL     1      -7.642   7.516  66.530  1.00  0.00    -0.086 OA 
BRANCH  22  23
HETATM   23  C   UNL     1      -8.087   6.338  65.854  1.00  0.00    -0.123 C  
HETATM   24  C   UNL     1      -8.356   5.249  66.874  1.00  0.00    -0.107 C  
ENDBRANCH  22  23
ENDBRANCH  18  22
BRANCH  21  25
HETATM   25  S   UNL     1     -10.779  12.534  66.089  1.00  0.00    -0.269 S  
HETATM   26  O   UNL     1     -12.108  12.391  66.641  1.00  0.00    -0.592 OA 
HETATM   27  O   UNL     1     -10.584  12.982  64.727  1.00  0.00    -0.323 OA 
BRANCH  25  28
HETATM   28  N   UNL     1      -9.872  13.530  67.140  1.00  0.00    -0.240 N  
HETATM   29  C   UNL     1      -8.807  14.382  66.521  1.00  0.00    -0.089 C  
HETATM   30  C   UNL     1      -9.383  15.654  65.849  1.00  0.00    -0.321 C  
HETATM   31  N   UNL     1     -10.305  16.456  66.687  1.00  0.00    -0.290 NA 
HETATM   32  C   UNL     1     -11.322  15.562  67.285  1.00  0.00    -0.167 C  
HETATM   33  C   UNL     1     -10.724  14.365  68.048  1.00  0.00    -0.241 C  
BRANCH  31  34
HETATM   34  C   UNL     1      -9.561  17.256  67.669  1.00  0.00    -0.256 C  
HETATM   35  C   UNL     1      -8.502  18.162  67.050  1.00  0.00    -0.254 C  
ENDBRANCH  31  34
ENDBRANCH  25  28
ENDBRANCH  21  25
ENDBRANCH  11  16
ENDBRANCH   3   4
ENDBRANCH   2   3
TORSDOF 8
ENDMDL
MODEL      114
REMARK 921   NORMALIZED FREE ENERGY PREDICTED BY IDOCK:   -4.74 KCAL/MOL
REMARK 922        TOTAL FREE ENERGY PREDICTED BY IDOCK:   -7.96 KCAL/MOL
REMARK 923 INTER-LIGAND FREE ENERGY PREDICTED BY IDOCK:   -7.02 KCAL/MOL
REMARK 924 INTRA-LIGAND FREE ENERGY PREDICTED BY IDOCK:   -0.94 KCAL/MOL
REMARK 927      BINDING AFFINITY PREDICTED BY RF-SCORE:    0.00 PKD
ROOT
HETATM    1  C   UNL     1      -6.509  14.240  69.928  1.00  0.00    -0.137 C  
HETATM    2  C   UNL     1      -7.283  14.824  68.752  1.00  0.00    -0.125 C  
ENDROOT
BRANCH   2   3
HETATM    3  C   UNL     1      -8.790  14.932  68.997  1.00  0.00    -0.179 C  
BRANCH   3   4
HETATM    4  C   UNL     1      -9.607  14.560  67.804  1.00  0.00    -0.215 A  
HETATM    5  N   UNL     1     -10.070  15.412  66.908  1.00  0.00    -0.253 NA 
HETATM    6  C   UNL     1     -10.744  14.659  65.979  1.00  0.00    -0.312 A  
HETATM    7  C   UNL     1     -10.694  13.326  66.331  1.00  0.00    -0.285 A  
HETATM    8  C   UNL     1     -11.391  15.290  64.807  1.00  0.00    -0.396 C  
HETATM    9  N   UNL     1      -9.969  13.274  67.472  1.00  0.00    -0.220 NA 
HETATM   10  N   UNL     1      -9.651  12.094  68.088  1.00  0.00    -0.204 NA 
HETATM   11  C   UNL     1     -10.294  10.989  67.544  1.00  0.00    -0.198 C  
HETATM   12  N   UNL     1     -11.015  10.999  66.466  1.00  0.00    -0.215 N  
HETATM   13  O   UNL     1     -11.823  12.144  64.667  1.00  0.00    -0.359 OA 
HETATM   14  H   UNL     1     -11.445  10.128  66.154  1.00  0.00     0.000 HD 
HETATM   15  C   UNL     1     -11.219  12.141  65.731  1.00  0.00    -0.339 C  
BRANCH  11  16
HETATM   16  C   UNL     1     -10.152   9.661  68.260  1.00  0.00    -0.203 A  
HETATM   17  C   UNL     1     -10.514   8.170  70.151  1.00  0.00    -0.225 A  
HETATM   18  C   UNL     1     -10.691   9.427  69.548  1.00  0.00    -0.222 A  
HETATM   19  C   UNL     1      -9.421   8.642  67.626  1.00  0.00    -0.169 A  
HETATM   20  C   UNL     1      -9.798   7.162  69.510  1.00  0.00    -0.162 A  
HETATM   21  C   UNL     1      -9.254   7.403  68.254  1.00  0.00    -0.137 A  
BRANCH  18  22
HETATM   22  O   UNL     1     -11.392  10.439  70.155  1.00  0.00    -0.276 OA 
BRANCH  22  23
HETATM   23  C   UNL     1     -12.143  10.113  71.326  1.00  0.00    -0.394 C  
HETATM   24  C   UNL     1     -13.144  11.217  71.602  1.00  0.00    -0.529 C  
ENDBRANCH  22  23
ENDBRANCH  18  22
BRANCH  21  25
HETATM   25  S   UNL     1      -8.156   6.200  67.553  1.00  0.00    -0.109 S  
HETATM   26  O   UNL     1      -7.162   5.896  68.559  1.00  0.00    -0.078 OA 
HETATM   27  O   UNL     1      -7.768   6.691  66.249  1.00  0.00    -0.094 OA 
BRANCH  25  28
HETATM   28  N   UNL     1      -9.151   4.823  67.358  1.00  0.00    -0.113 N  
HETATM   29  C   UNL     1     -10.033   4.787  66.148  1.00  0.00    -0.241 C  
HETATM   30  C   UNL     1      -9.263   4.384  64.865  1.00  0.00    -0.157 C  
HETATM   31  N   UNL     1      -8.437   3.159  64.976  1.00  0.00    -0.095 NA 
HETATM   32  C   UNL     1      -7.601   3.243  66.195  1.00  0.00    -0.077 C  
HETATM   33  C   UNL     1      -8.403   3.529  67.478  1.00  0.00    -0.090 C  
BRANCH  31  34
HETATM   34  C   UNL     1      -9.274   1.954  64.907  1.00  0.00    -0.114 C  
HETATM   35  C   UNL     1     -10.279   1.968  63.760  1.00  0.00    -0.099 C  
ENDBRANCH  31  34
ENDBRANCH  25  28
ENDBRANCH  21  25
ENDBRANCH  11  16
ENDBRANCH   3   4
ENDBRANCH   2   3
TORSDOF 8
ENDMDL
MODEL      115
REMARK 921   NORMALIZED FREE ENERGY PREDICTED BY IDOCK:   -4.73 KCAL/MOL
REMARK 922        TOTAL FREE ENERGY PREDICTED BY IDOCK:   -7.96 KCAL/MOL
REMARK 923 INTER-LIGAND FREE ENERGY PREDICTED BY IDOCK:   -7.69 KCAL/MOL
REMARK 924 INTRA-LIGAND FREE ENERGY PREDICTED BY IDOCK:   -0.27 KCAL/MOL
REMARK 927      BINDING AFFINITY PREDICTED BY RF-SCORE:    0.00 PKD
ROOT
HETATM    1  C   UNL     1      -5.925  15.670  68.691  1.00  0.00    -0.101 C  
HETATM    2  C   UNL     1      -6.942  15.918  67.584  1.00  0.00    -0.187 C  
ENDROOT
BRANCH   2   3
HETATM    3  C   UNL     1      -8.397  15.791  68.042  1.00  0.00    -0.153 C  
BRANCH   3   4
HETATM    4  C   UNL     1      -9.329  15.412  66.939  1.00  0.00    -0.236 A  
HETATM    5  N   UNL     1     -10.102  16.253  66.279  1.00  0.00    -0.306 NA 
HETATM    6  C   UNL     1     -10.775  15.500  65.348  1.00  0.00    -0.405 A  
HETATM    7  C   UNL     1     -10.406  14.176  65.460  1.00  0.00    -0.351 A  
HETATM    8  C   UNL     1     -11.733  16.125  64.408  1.00  0.00    -0.059 C  
HETATM    9  N   UNL     1      -9.489  14.133  66.455  1.00  0.00    -0.285 NA 
HETATM   10  N   UNL     1      -8.844  12.980  66.810  1.00  0.00    -0.181 NA 
HETATM   11  C   UNL     1      -9.349  11.843  66.191  1.00  0.00    -0.219 C  
HETATM   12  N   UNL     1     -10.242  11.838  65.249  1.00  0.00    -0.256 N  
HETATM   13  O   UNL     1     -11.568  13.007  63.809  1.00  0.00    -0.424 OA 
HETATM   14  H   UNL     1     -10.545  10.944  64.863  1.00  0.00     0.000 HD 
HETATM   15  C   UNL     1     -10.792  12.995  64.755  1.00  0.00    -0.337 C  
BRANCH  11  16
HETATM   16  C   UNL     1      -8.826  10.495  66.644  1.00  0.00    -0.145 A  
HETATM   17  C   UNL     1      -7.656   8.392  66.279  1.00  0.00    -0.086 A  
HETATM   18  C   UNL     1      -8.103   9.630  65.787  1.00  0.00    -0.113 A  
HETATM   19  C   UNL     1      -9.111  10.082  67.956  1.00  0.00    -0.132 A  
HETATM   20  C   UNL     1      -7.932   7.995  67.585  1.00  0.00    -0.123 A  
HETATM   21  C   UNL     1      -8.660   8.840  68.415  1.00  0.00    -0.134 A  
BRANCH  18  22
HETATM   22  O   UNL     1      -7.846  10.047  64.506  1.00  0.00    -0.137 OA 
BRANCH  22  23
HETATM   23  C   UNL     1      -7.243   9.108  63.614  1.00  0.00    -0.093 C  
HETATM   24  C   UNL     1      -8.326   8.269  62.965  1.00  0.00    -0.071 C  
ENDBRANCH  22  23
ENDBRANCH  18  22
BRANCH  21  25
HETATM   25  S   UNL     1      -9.201   8.231  69.990  1.00  0.00    -0.152 S  
HETATM   26  O   UNL     1      -8.890   9.250  70.968  1.00  0.00    -0.218 OA 
HETATM   27  O   UNL     1      -8.682   6.888  70.125  1.00  0.00    -0.139 OA 
BRANCH  25  28
HETATM   28  N   UNL     1     -10.901   8.158  69.823  1.00  0.00    -0.227 N  
HETATM   29  C   UNL     1     -11.606   7.035  70.519  1.00  0.00    -0.319 C  
HETATM   30  C   UNL     1     -11.789   7.301  72.036  1.00  0.00    -0.296 C  
HETATM   31  N   UNL     1     -12.377   8.616  72.385  1.00  0.00    -0.380 NA 
HETATM   32  C   UNL     1     -11.653   9.682  71.656  1.00  0.00    -0.336 C  
HETATM   33  C   UNL     1     -11.584   9.455  70.134  1.00  0.00    -0.078 C  
BRANCH  31  34
HETATM   34  C   UNL     1     -13.829   8.618  72.162  1.00  0.00    -0.429 C  
HETATM   35  C   UNL     1     -14.367   7.305  71.603  1.00  0.00    -0.583 C  
ENDBRANCH  31  34
ENDBRANCH  25  28
ENDBRANCH  21  25
ENDBRANCH  11  16
ENDBRANCH   3   4
ENDBRANCH   2   3
TORSDOF 8
ENDMDL
MODEL      116
REMARK 921   NORMALIZED FREE ENERGY PREDICTED BY IDOCK:   -4.73 KCAL/MOL
REMARK 922        TOTAL FREE ENERGY PREDICTED BY IDOCK:   -7.95 KCAL/MOL
REMARK 923 INTER-LIGAND FREE ENERGY PREDICTED BY IDOCK:   -7.17 KCAL/MOL
REMARK 924 INTRA-LIGAND FREE ENERGY PREDICTED BY IDOCK:   -0.78 KCAL/MOL
REMARK 927      BINDING AFFINITY PREDICTED BY RF-SCORE:    0.00 PKD
ROOT
HETATM    1  C   UNL     1      -5.129  11.089  72.247  1.00  0.00     0.200 C  
HETATM    2  C   UNL     1      -5.429  10.260  71.004  1.00  0.00    -0.089 C  
ENDROOT
BRANCH   2   3
HETATM    3  C   UNL     1      -6.689   9.401  71.124  1.00  0.00    -0.047 C  
BRANCH   3   4
HETATM    4  C   UNL     1      -7.168   8.874  69.812  1.00  0.00    -0.055 A  
HETATM    5  N   UNL     1      -6.732   7.770  69.235  1.00  0.00    -0.043 NA 
HETATM    6  C   UNL     1      -7.441   7.646  68.065  1.00  0.00    -0.104 A  
HETATM    7  C   UNL     1      -8.314   8.705  67.932  1.00  0.00    -0.123 A  
HETATM    8  C   UNL     1      -7.221   6.498  67.157  1.00  0.00    -0.081 C  
HETATM    9  N   UNL     1      -8.142   9.465  69.039  1.00  0.00    -0.103 NA 
HETATM   10  N   UNL     1      -8.893  10.580  69.289  1.00  0.00    -0.153 NA 
HETATM   11  C   UNL     1      -9.704  10.958  68.225  1.00  0.00    -0.165 C  
HETATM   12  N   UNL     1      -9.880  10.271  67.138  1.00  0.00    -0.179 N  
HETATM   13  O   UNL     1      -9.491   8.366  65.947  1.00  0.00    -0.188 OA 
HETATM   14  H   UNL     1     -10.498  10.643  66.416  1.00  0.00     0.000 HD 
HETATM   15  C   UNL     1      -9.264   9.062  66.927  1.00  0.00    -0.142 C  
BRANCH  11  16
HETATM   16  C   UNL     1     -10.443  12.277  68.328  1.00  0.00    -0.236 A  
HETATM   17  C   UNL     1     -12.241  13.693  69.159  1.00  0.00    -0.265 A  
HETATM   18  C   UNL     1     -11.607  12.439  69.119  1.00  0.00    -0.314 A  
HETATM   19  C   UNL     1      -9.969  13.362  67.573  1.00  0.00    -0.230 A  
HETATM   20  C   UNL     1     -11.757  14.767  68.417  1.00  0.00    -0.343 A  
HETATM   21  C   UNL     1     -10.627  14.596  67.626  1.00  0.00    -0.256 A  
BRANCH  18  22
HETATM   22  O   UNL     1     -12.060  11.363  69.839  1.00  0.00    -0.310 OA 
BRANCH  22  23
HETATM   23  C   UNL     1     -12.650  11.624  71.114  1.00  0.00    -0.335 C  
HETATM   24  C   UNL     1     -12.811  10.318  71.867  1.00  0.00    -0.528 C  
ENDBRANCH  22  23
ENDBRANCH  18  22
BRANCH  21  25
HETATM   25  S   UNL     1     -10.158  15.895  66.514  1.00  0.00    -0.298 S  
HETATM   26  O   UNL     1     -11.230  16.039  65.554  1.00  0.00    -0.149 OA 
HETATM   27  O   UNL     1      -8.806  15.615  66.083  1.00  0.00    -0.321 OA 
BRANCH  25  28
HETATM   28  N   UNL     1     -10.149  17.284  67.511  1.00  0.00    -0.304 N  
HETATM   29  C   UNL     1      -9.331  17.218  68.764  1.00  0.00    -0.239 C  
HETATM   30  C   UNL     1      -7.819  17.429  68.496  1.00  0.00    -0.268 C  
HETATM   31  N   UNL     1      -7.476  18.618  67.681  1.00  0.00    -0.228 NA 
HETATM   32  C   UNL     1      -8.325  18.640  66.469  1.00  0.00    -0.291 C  
HETATM   33  C   UNL     1      -9.833  18.546  66.766  1.00  0.00    -0.342 C  
BRANCH  31  34
HETATM   34  C   UNL     1      -7.551  19.845  68.486  1.00  0.00    -0.250 C  
HETATM   35  C   UNL     1      -6.496  19.926  69.584  1.00  0.00    -0.388 C  
ENDBRANCH  31  34
ENDBRANCH  25  28
ENDBRANCH  21  25
ENDBRANCH  11  16
ENDBRANCH   3   4
ENDBRANCH   2   3
TORSDOF 8
ENDMDL
MODEL      117
REMARK 921   NORMALIZED FREE ENERGY PREDICTED BY IDOCK:   -4.68 KCAL/MOL
REMARK 922        TOTAL FREE ENERGY PREDICTED BY IDOCK:   -7.88 KCAL/MOL
REMARK 923 INTER-LIGAND FREE ENERGY PREDICTED BY IDOCK:   -7.25 KCAL/MOL
REMARK 924 INTRA-LIGAND FREE ENERGY PREDICTED BY IDOCK:   -0.63 KCAL/MOL
REMARK 927      BINDING AFFINITY PREDICTED BY RF-SCORE:    0.00 PKD
ROOT
HETATM    1  C   UNL     1      -5.681  15.450  70.503  1.00  0.00    -0.099 C  
HETATM    2  C   UNL     1      -5.128  16.742  69.916  1.00  0.00    -0.168 C  
ENDROOT
BRANCH   2   3
HETATM    3  C   UNL     1      -5.138  16.780  68.386  1.00  0.00    -0.114 C  
BRANCH   3   4
HETATM    4  C   UNL     1      -6.133  17.743  67.829  1.00  0.00    -0.156 A  
HETATM    5  N   UNL     1      -5.910  19.027  67.621  1.00  0.00    -0.190 NA 
HETATM    6  C   UNL     1      -7.070  19.533  67.087  1.00  0.00    -0.203 A  
HETATM    7  C   UNL     1      -8.013  18.533  66.983  1.00  0.00    -0.236 A  
HETATM    8  C   UNL     1      -7.178  20.960  66.711  1.00  0.00    -0.252 C  
HETATM    9  N   UNL     1      -7.412  17.411  67.442  1.00  0.00    -0.179 NA 
HETATM   10  N   UNL     1      -8.028  16.189  67.430  1.00  0.00    -0.149 NA 
HETATM   11  C   UNL     1      -9.373  16.245  67.086  1.00  0.00    -0.222 C  
HETATM   12  N   UNL     1      -9.994  17.303  66.663  1.00  0.00    -0.282 N  
HETATM   13  O   UNL     1      -9.913  19.491  66.026  1.00  0.00    -0.408 OA 
HETATM   14  H   UNL     1     -10.987  17.234  66.438  1.00  0.00     0.000 HD 
HETATM   15  C   UNL     1      -9.360  18.511  66.507  1.00  0.00    -0.313 C  
BRANCH  11  16
HETATM   16  C   UNL     1     -10.193  14.977  67.213  1.00  0.00    -0.242 A  
HETATM   17  C   UNL     1     -12.025  13.666  68.137  1.00  0.00    -0.390 A  
HETATM   18  C   UNL     1     -11.318  14.879  68.068  1.00  0.00    -0.324 A  
HETATM   19  C   UNL     1      -9.786  13.849  66.479  1.00  0.00    -0.296 A  
HETATM   20  C   UNL     1     -11.623  12.557  67.397  1.00  0.00    -0.434 A  
HETATM   21  C   UNL     1     -10.505  12.653  66.575  1.00  0.00    -0.247 A  
BRANCH  18  22
HETATM   22  O   UNL     1     -11.691  15.987  68.784  1.00  0.00    -0.385 OA 
BRANCH  22  23
HETATM   23  C   UNL     1     -11.054  16.205  70.044  1.00  0.00    -0.363 C  
HETATM   24  C   UNL     1     -11.772  15.403  71.112  1.00  0.00    -0.418 C  
ENDBRANCH  22  23
ENDBRANCH  18  22
BRANCH  21  25
HETATM   25  S   UNL     1      -9.870  11.179  65.822  1.00  0.00    -0.248 S  
HETATM   26  O   UNL     1      -8.554  11.496  65.313  1.00  0.00     0.101 OA 
HETATM   27  O   UNL     1     -10.903  10.673  64.946  1.00  0.00    -0.125 OA 
BRANCH  25  28
HETATM   28  N   UNL     1      -9.683  10.108  67.142  1.00  0.00    -0.168 N  
HETATM   29  C   UNL     1      -8.945   8.831  66.883  1.00  0.00    -0.132 C  
HETATM   30  C   UNL     1      -7.408   9.030  66.857  1.00  0.00    -0.086 C  
HETATM   31  N   UNL     1      -6.842   9.765  68.013  1.00  0.00    -0.072 NA 
HETATM   32  C   UNL     1      -7.619  11.005  68.230  1.00  0.00    -0.106 C  
HETATM   33  C   UNL     1      -9.135  10.771  68.370  1.00  0.00    -0.164 C  
BRANCH  31  34
HETATM   34  C   UNL     1      -6.755   8.898  69.195  1.00  0.00    -0.051 C  
HETATM   35  C   UNL     1      -7.084   9.607  70.504  1.00  0.00    -0.137 C  
ENDBRANCH  31  34
ENDBRANCH  25  28
ENDBRANCH  21  25
ENDBRANCH  11  16
ENDBRANCH   3   4
ENDBRANCH   2   3
TORSDOF 8
ENDMDL
MODEL      118
REMARK 921   NORMALIZED FREE ENERGY PREDICTED BY IDOCK:   -4.66 KCAL/MOL
REMARK 922        TOTAL FREE ENERGY PREDICTED BY IDOCK:   -7.84 KCAL/MOL
REMARK 923 INTER-LIGAND FREE ENERGY PREDICTED BY IDOCK:   -7.01 KCAL/MOL
REMARK 924 INTRA-LIGAND FREE ENERGY PREDICTED BY IDOCK:   -0.83 KCAL/MOL
REMARK 927      BINDING AFFINITY PREDICTED BY RF-SCORE:    0.00 PKD
ROOT
HETATM    1  C   UNL     1     -11.789  15.588  71.154  1.00  0.00    -0.435 C  
HETATM    2  C   UNL     1     -12.295  15.477  69.721  1.00  0.00    -0.261 C  
ENDROOT
BRANCH   2   3
HETATM    3  C   UNL     1     -12.160  14.074  69.125  1.00  0.00    -0.375 C  
BRANCH   3   4
HETATM    4  C   UNL     1     -10.802  13.799  68.570  1.00  0.00    -0.263 A  
HETATM    5  N   UNL     1     -10.001  14.707  68.044  1.00  0.00    -0.217 NA 
HETATM    6  C   UNL     1      -8.857  14.040  67.679  1.00  0.00    -0.190 A  
HETATM    7  C   UNL     1      -8.978  12.701  67.984  1.00  0.00    -0.200 A  
HETATM    8  C   UNL     1      -7.720  14.756  67.060  1.00  0.00    -0.038 C  
HETATM    9  N   UNL     1     -10.199  12.562  68.553  1.00  0.00    -0.225 NA 
HETATM   10  N   UNL     1     -10.647  11.368  69.048  1.00  0.00    -0.208 NA 
HETATM   11  C   UNL     1      -9.823  10.291  68.745  1.00  0.00    -0.180 C  
HETATM   12  N   UNL     1      -8.657  10.378  68.181  1.00  0.00    -0.122 N  
HETATM   13  O   UNL     1      -6.972  11.682  67.369  1.00  0.00    -0.097 OA 
HETATM   14  H   UNL     1      -8.133   9.521  68.001  1.00  0.00     0.000 HD 
HETATM   15  C   UNL     1      -8.105  11.582  67.819  1.00  0.00    -0.133 C  
BRANCH  11  16
HETATM   16  C   UNL     1     -10.313   8.900  69.091  1.00  0.00    -0.230 A  
HETATM   17  C   UNL     1     -11.385   7.286  70.565  1.00  0.00    -0.308 A  
HETATM   18  C   UNL     1     -10.964   8.603  70.313  1.00  0.00    -0.236 A  
HETATM   19  C   UNL     1     -10.071   7.865  68.172  1.00  0.00    -0.228 A  
HETATM   20  C   UNL     1     -11.152   6.268  69.644  1.00  0.00    -0.479 A  
HETATM   21  C   UNL     1     -10.495   6.562  68.454  1.00  0.00    -0.218 A  
BRANCH  18  22
HETATM   22  O   UNL     1     -11.180   9.626  71.202  1.00  0.00    -0.331 OA 
BRANCH  22  23
HETATM   23  C   UNL     1     -12.487   9.744  71.767  1.00  0.00    -0.398 C  
HETATM   24  C   UNL     1     -13.018  11.141  71.511  1.00  0.00    -0.542 C  
ENDBRANCH  22  23
ENDBRANCH  18  22
BRANCH  21  25
HETATM   25  S   UNL     1     -10.001   5.225  67.399  1.00  0.00    -0.183 S  
HETATM   26  O   UNL     1     -10.965   5.157  66.322  1.00  0.00    -0.236 OA 
HETATM   27  O   UNL     1      -9.757   4.083  68.251  1.00  0.00    -0.144 OA 
BRANCH  25  28
HETATM   28  N   UNL     1      -8.516   5.764  66.747  1.00  0.00    -0.112 N  
HETATM   29  C   UNL     1      -7.270   5.382  67.485  1.00  0.00    -0.075 C  
HETATM   30  C   UNL     1      -6.838   3.921  67.202  1.00  0.00    -0.051 C  
HETATM   31  N   UNL     1      -6.762   3.545  65.771  1.00  0.00    -0.040 NA 
HETATM   32  C   UNL     1      -8.009   3.961  65.090  1.00  0.00    -0.093 C  
HETATM   33  C   UNL     1      -8.358   5.448  65.290  1.00  0.00    -0.142 C  
BRANCH  31  34
HETATM   34  C   UNL     1      -5.539   4.075  65.153  1.00  0.00    -0.014 C  
HETATM   35  C   UNL     1      -5.390   3.720  63.678  1.00  0.00    -0.009 C  
ENDBRANCH  31  34
ENDBRANCH  25  28
ENDBRANCH  21  25
ENDBRANCH  11  16
ENDBRANCH   3   4
ENDBRANCH   2   3
TORSDOF 8
ENDMDL
MODEL      119
REMARK 921   NORMALIZED FREE ENERGY PREDICTED BY IDOCK:   -4.65 KCAL/MOL
REMARK 922        TOTAL FREE ENERGY PREDICTED BY IDOCK:   -7.84 KCAL/MOL
REMARK 923 INTER-LIGAND FREE ENERGY PREDICTED BY IDOCK:   -6.75 KCAL/MOL
REMARK 924 INTRA-LIGAND FREE ENERGY PREDICTED BY IDOCK:   -1.09 KCAL/MOL
REMARK 927      BINDING AFFINITY PREDICTED BY RF-SCORE:    0.00 PKD
ROOT
HETATM    1  C   UNL     1     -12.820  13.765  71.418  1.00  0.00    -0.449 C  
HETATM    2  C   UNL     1     -12.185  13.206  70.151  1.00  0.00    -0.360 C  
ENDROOT
BRANCH   2   3
HETATM    3  C   UNL     1     -11.371  14.235  69.363  1.00  0.00    -0.325 C  
BRANCH   3   4
HETATM    4  C   UNL     1     -11.370  13.981  67.892  1.00  0.00    -0.291 A  
HETATM    5  N   UNL     1     -12.158  14.582  67.019  1.00  0.00    -0.354 NA 
HETATM    6  C   UNL     1     -11.820  14.075  65.789  1.00  0.00    -0.383 A  
HETATM    7  C   UNL     1     -10.815  13.140  65.927  1.00  0.00    -0.273 A  
HETATM    8  C   UNL     1     -12.499  14.539  64.559  1.00  0.00    -0.346 C  
HETATM    9  N   UNL     1     -10.533  13.097  67.250  1.00  0.00    -0.242 NA 
HETATM   10  N   UNL     1      -9.531  12.319  67.762  1.00  0.00    -0.191 NA 
HETATM   11  C   UNL     1      -8.967  11.450  66.835  1.00  0.00    -0.171 C  
HETATM   12  N   UNL     1      -9.225  11.444  65.564  1.00  0.00    -0.300 N  
HETATM   13  O   UNL     1     -10.293  12.386  63.783  1.00  0.00    -0.411 OA 
HETATM   14  H   UNL     1      -8.756  10.760  64.970  1.00  0.00     0.000 HD 
HETATM   15  C   UNL     1     -10.109  12.325  64.990  1.00  0.00    -0.253 C  
BRANCH  11  16
HETATM   16  C   UNL     1      -7.974  10.422  67.337  1.00  0.00    -0.107 A  
HETATM   17  C   UNL     1      -5.714   9.607  67.730  1.00  0.00    -0.040 A  
HETATM   18  C   UNL     1      -6.573  10.609  67.249  1.00  0.00    -0.073 A  
HETATM   19  C   UNL     1      -8.475   9.224  67.872  1.00  0.00    -0.117 A  
HETATM   20  C   UNL     1      -6.218   8.427  68.270  1.00  0.00    -0.051 A  
HETATM   21  C   UNL     1      -7.595   8.240  68.335  1.00  0.00    -0.101 A  
BRANCH  18  22
HETATM   22  O   UNL     1      -6.104  11.782  66.712  1.00  0.00    -0.149 OA 
BRANCH  22  23
HETATM   23  C   UNL     1      -5.465  12.703  67.597  1.00  0.00    -0.124 C  
HETATM   24  C   UNL     1      -6.362  13.909  67.798  1.00  0.00    -0.169 C  
ENDBRANCH  22  23
ENDBRANCH  18  22
BRANCH  21  25
HETATM   25  S   UNL     1      -8.219   6.649  68.808  1.00  0.00    -0.120 S  
HETATM   26  O   UNL     1      -9.662   6.750  68.831  1.00  0.00    -0.137 OA 
HETATM   27  O   UNL     1      -7.484   6.238  69.983  1.00  0.00    -0.083 OA 
BRANCH  25  28
HETATM   28  N   UNL     1      -7.779   5.646  67.495  1.00  0.00    -0.096 N  
HETATM   29  C   UNL     1      -8.017   4.175  67.653  1.00  0.00    -0.091 C  
HETATM   30  C   UNL     1      -9.500   3.787  67.423  1.00  0.00    -0.196 C  
HETATM   31  N   UNL     1     -10.109   4.309  66.177  1.00  0.00    -0.218 NA 
HETATM   32  C   UNL     1      -9.828   5.758  66.066  1.00  0.00     0.024 C  
HETATM   33  C   UNL     1      -8.333   6.110  66.182  1.00  0.00    -0.128 C  
BRANCH  31  34
HETATM   34  C   UNL     1      -9.675   3.525  65.012  1.00  0.00    -0.142 C  
HETATM   35  C   UNL     1     -10.599   3.653  63.806  1.00  0.00    -0.284 C  
ENDBRANCH  31  34
ENDBRANCH  25  28
ENDBRANCH  21  25
ENDBRANCH  11  16
ENDBRANCH   3   4
ENDBRANCH   2   3
TORSDOF 8
ENDMDL
MODEL      120
REMARK 921   NORMALIZED FREE ENERGY PREDICTED BY IDOCK:   -4.65 KCAL/MOL
REMARK 922        TOTAL FREE ENERGY PREDICTED BY IDOCK:   -7.83 KCAL/MOL
REMARK 923 INTER-LIGAND FREE ENERGY PREDICTED BY IDOCK:   -6.83 KCAL/MOL
REMARK 924 INTRA-LIGAND FREE ENERGY PREDICTED BY IDOCK:   -1.00 KCAL/MOL
REMARK 927      BINDING AFFINITY PREDICTED BY RF-SCORE:    0.00 PKD
ROOT
HETATM    1  C   UNL     1      -9.991   4.052  66.793  1.00  0.00    -0.071 C  
HETATM    2  C   UNL     1      -9.156   3.407  67.892  1.00  0.00    -0.207 C  
ENDROOT
BRANCH   2   3
HETATM    3  C   UNL     1      -9.735   3.593  69.297  1.00  0.00    -0.078 C  
BRANCH   3   4
HETATM    4  C   UNL     1      -8.792   4.269  70.236  1.00  0.00    -0.084 A  
HETATM    5  N   UNL     1      -7.860   3.658  70.944  1.00  0.00    -0.047 NA 
HETATM    6  C   UNL     1      -7.214   4.641  71.652  1.00  0.00    -0.067 A  
HETATM    7  C   UNL     1      -7.777   5.868  71.371  1.00  0.00    -0.107 A  
HETATM    8  C   UNL     1      -6.086   4.317  72.553  1.00  0.00    -0.016 C  
HETATM    9  N   UNL     1      -8.760   5.625  70.473  1.00  0.00    -0.135 NA 
HETATM   10  N   UNL     1      -9.505   6.625  69.909  1.00  0.00    -0.156 NA 
HETATM   11  C   UNL     1      -9.287   7.874  70.479  1.00  0.00    -0.162 C  
HETATM   12  N   UNL     1      -8.371   8.145  71.357  1.00  0.00    -0.112 N  
HETATM   13  O   UNL     1      -6.576   7.458  72.584  1.00  0.00    -0.058 OA 
HETATM   14  H   UNL     1      -8.298   9.099  71.713  1.00  0.00     0.000 HD 
HETATM   15  C   UNL     1      -7.497   7.194  71.824  1.00  0.00    -0.086 C  
BRANCH  11  16
HETATM   16  C   UNL     1     -10.185   9.016  70.052  1.00  0.00    -0.222 A  
HETATM   17  C   UNL     1     -12.294  10.233  70.060  1.00  0.00    -0.158 A  
HETATM   18  C   UNL     1     -11.520   9.148  70.506  1.00  0.00    -0.229 A  
HETATM   19  C   UNL     1      -9.674   9.954  69.138  1.00  0.00    -0.204 A  
HETATM   20  C   UNL     1     -11.777  11.164  69.164  1.00  0.00    -0.408 A  
HETATM   21  C   UNL     1     -10.472  11.019  68.706  1.00  0.00    -0.198 A  
BRANCH  18  22
HETATM   22  O   UNL     1     -12.003   8.215  71.389  1.00  0.00    -0.287 OA 
BRANCH  22  23
HETATM   23  C   UNL     1     -13.144   8.575  72.170  1.00  0.00    -0.358 C  
HETATM   24  C   UNL     1     -14.314   7.692  71.783  1.00  0.00    -0.586 C  
ENDBRANCH  22  23
ENDBRANCH  18  22
BRANCH  21  25
HETATM   25  S   UNL     1      -9.904  12.072  67.396  1.00  0.00    -0.186 S  
HETATM   26  O   UNL     1     -10.303  11.453  66.152  1.00  0.00    -0.233 OA 
HETATM   27  O   UNL     1      -8.515  12.369  67.667  1.00  0.00    -0.149 OA 
BRANCH  25  28
HETATM   28  N   UNL     1     -10.830  13.493  67.602  1.00  0.00    -0.257 N  
HETATM   29  C   UNL     1     -10.380  14.452  68.661  1.00  0.00    -0.245 C  
HETATM   30  C   UNL     1      -9.184  15.325  68.200  1.00  0.00    -0.183 C  
HETATM   31  N   UNL     1      -9.355  15.997  66.890  1.00  0.00    -0.219 NA 
HETATM   32  C   UNL     1      -9.816  15.007  65.891  1.00  0.00    -0.338 C  
HETATM   33  C   UNL     1     -11.076  14.232  66.321  1.00  0.00    -0.323 C  
BRANCH  31  34
HETATM   34  C   UNL     1     -10.226  17.174  67.013  1.00  0.00    -0.313 C  
HETATM   35  C   UNL     1      -9.854  18.096  68.169  1.00  0.00    -0.350 C  
ENDBRANCH  31  34
ENDBRANCH  25  28
ENDBRANCH  21  25
ENDBRANCH  11  16
ENDBRANCH   3   4
ENDBRANCH   2   3
TORSDOF 8
ENDMDL
MODEL      121
REMARK 921   NORMALIZED FREE ENERGY PREDICTED BY IDOCK:   -4.62 KCAL/MOL
REMARK 922        TOTAL FREE ENERGY PREDICTED BY IDOCK:   -7.79 KCAL/MOL
REMARK 923 INTER-LIGAND FREE ENERGY PREDICTED BY IDOCK:   -6.62 KCAL/MOL
REMARK 924 INTRA-LIGAND FREE ENERGY PREDICTED BY IDOCK:   -1.17 KCAL/MOL
REMARK 927      BINDING AFFINITY PREDICTED BY RF-SCORE:    0.00 PKD
ROOT
HETATM    1  C   UNL     1     -12.509  13.491  71.346  1.00  0.00    -0.347 C  
HETATM    2  C   UNL     1     -12.044  13.071  69.957  1.00  0.00    -0.367 C  
ENDROOT
BRANCH   2   3
HETATM    3  C   UNL     1     -11.178  14.118  69.254  1.00  0.00    -0.308 C  
BRANCH   3   4
HETATM    4  C   UNL     1     -11.267  14.050  67.765  1.00  0.00    -0.281 A  
HETATM    5  N   UNL     1     -11.944  14.892  67.007  1.00  0.00    -0.217 NA 
HETATM    6  C   UNL     1     -11.746  14.483  65.711  1.00  0.00    -0.344 A  
HETATM    7  C   UNL     1     -10.941  13.363  65.692  1.00  0.00    -0.281 A  
HETATM    8  C   UNL     1     -12.354  15.214  64.578  1.00  0.00    -0.212 C  
HETATM    9  N   UNL     1     -10.637  13.106  66.986  1.00  0.00    -0.257 NA 
HETATM   10  N   UNL     1      -9.794  12.094  67.355  1.00  0.00    -0.188 NA 
HETATM   11  C   UNL     1      -9.436  11.253  66.308  1.00  0.00    -0.204 C  
HETATM   12  N   UNL     1      -9.725  11.450  65.059  1.00  0.00    -0.246 N  
HETATM   13  O   UNL     1     -10.634  12.789  63.452  1.00  0.00    -0.283 OA 
HETATM   14  H   UNL     1      -9.415  10.766  64.368  1.00  0.00     0.000 HD 
HETATM   15  C   UNL     1     -10.433  12.548  64.634  1.00  0.00    -0.319 C  
BRANCH  11  16
HETATM   16  C   UNL     1      -8.651  10.000  66.639  1.00  0.00    -0.130 A  
HETATM   17  C   UNL     1      -6.602   8.687  66.722  1.00  0.00    -0.061 A  
HETATM   18  C   UNL     1      -7.261   9.884  66.393  1.00  0.00    -0.100 A  
HETATM   19  C   UNL     1      -9.348   8.903  67.173  1.00  0.00    -0.182 A  
HETATM   20  C   UNL     1      -7.298   7.609  67.262  1.00  0.00    -0.091 A  
HETATM   21  C   UNL     1      -8.667   7.721  67.481  1.00  0.00    -0.125 A  
BRANCH  18  22
HETATM   22  O   UNL     1      -6.601  10.963  65.861  1.00  0.00    -0.118 OA 
BRANCH  22  23
HETATM   23  C   UNL     1      -5.598  11.586  66.665  1.00  0.00    -0.140 C  
HETATM   24  C   UNL     1      -6.186  12.808  67.342  1.00  0.00    -0.133 C  
ENDBRANCH  22  23
ENDBRANCH  18  22
BRANCH  21  25
HETATM   25  S   UNL     1      -9.578   6.273  67.949  1.00  0.00    -0.119 S  
HETATM   26  O   UNL     1      -8.627   5.190  68.056  1.00  0.00    -0.104 OA 
HETATM   27  O   UNL     1     -10.712   6.182  67.056  1.00  0.00    -0.277 OA 
BRANCH  25  28
HETATM   28  N   UNL     1     -10.134   6.648  69.522  1.00  0.00    -0.173 N  
HETATM   29  C   UNL     1     -10.984   5.621  70.205  1.00  0.00    -0.217 C  
HETATM   30  C   UNL     1     -10.146   4.461  70.802  1.00  0.00    -0.129 C  
HETATM   31  N   UNL     1      -9.000   4.873  71.647  1.00  0.00    -0.136 NA 
HETATM   32  C   UNL     1      -8.209   5.898  70.929  1.00  0.00    -0.125 C  
HETATM   33  C   UNL     1      -9.043   7.099  70.445  1.00  0.00    -0.156 C  
BRANCH  31  34
HETATM   34  C   UNL     1      -9.453   5.292  72.979  1.00  0.00    -0.139 C  
HETATM   35  C   UNL     1      -8.379   5.995  73.802  1.00  0.00    -0.114 C  
ENDBRANCH  31  34
ENDBRANCH  25  28
ENDBRANCH  21  25
ENDBRANCH  11  16
ENDBRANCH   3   4
ENDBRANCH   2   3
TORSDOF 8
ENDMDL
MODEL      122
REMARK 921   NORMALIZED FREE ENERGY PREDICTED BY IDOCK:   -4.60 KCAL/MOL
REMARK 922        TOTAL FREE ENERGY PREDICTED BY IDOCK:   -7.76 KCAL/MOL
REMARK 923 INTER-LIGAND FREE ENERGY PREDICTED BY IDOCK:   -7.18 KCAL/MOL
REMARK 924 INTRA-LIGAND FREE ENERGY PREDICTED BY IDOCK:   -0.58 KCAL/MOL
REMARK 927      BINDING AFFINITY PREDICTED BY RF-SCORE:    0.00 PKD
ROOT
HETATM    1  C   UNL     1     -11.771  14.648  70.422  1.00  0.00    -0.355 C  
HETATM    2  C   UNL     1     -12.280  13.842  69.233  1.00  0.00    -0.319 C  
ENDROOT
BRANCH   2   3
HETATM    3  C   UNL     1     -12.149  14.569  67.893  1.00  0.00    -0.261 C  
BRANCH   3   4
HETATM    4  C   UNL     1     -11.902  13.646  66.746  1.00  0.00    -0.413 A  
HETATM    5  N   UNL     1     -12.565  13.663  65.604  1.00  0.00    -0.491 NA 
HETATM    6  C   UNL     1     -12.014  12.673  64.829  1.00  0.00    -0.402 A  
HETATM    7  C   UNL     1     -11.005  12.040  65.525  1.00  0.00    -0.298 A  
HETATM    8  C   UNL     1     -12.507  12.412  63.459  1.00  0.00    -0.605 C  
HETATM    9  N   UNL     1     -10.936  12.666  66.723  1.00  0.00    -0.254 NA 
HETATM   10  N   UNL     1      -9.996  12.349  67.665  1.00  0.00    -0.197 NA 
HETATM   11  C   UNL     1      -9.255  11.215  67.356  1.00  0.00    -0.153 C  
HETATM   12  N   UNL     1      -9.306  10.572  66.230  1.00  0.00    -0.166 N  
HETATM   13  O   UNL     1     -10.114  10.420  64.103  1.00  0.00    -0.322 OA 
HETATM   14  H   UNL     1      -8.718   9.748  66.107  1.00  0.00     0.000 HD 
HETATM   15  C   UNL     1     -10.123  10.965  65.198  1.00  0.00    -0.292 C  
BRANCH  11  16
HETATM   16  C   UNL     1      -8.311  10.673  68.410  1.00  0.00    -0.127 A  
HETATM   17  C   UNL     1      -6.397  10.856  69.904  1.00  0.00    -0.132 A  
HETATM   18  C   UNL     1      -7.234  11.430  68.931  1.00  0.00    -0.113 A  
HETATM   19  C   UNL     1      -8.498   9.351  68.850  1.00  0.00    -0.122 A  
HETATM   20  C   UNL     1      -6.597   9.550  70.343  1.00  0.00    -0.086 A  
HETATM   21  C   UNL     1      -7.643   8.804  69.813  1.00  0.00    -0.072 A  
BRANCH  18  22
HETATM   22  O   UNL     1      -7.061  12.714  68.480  1.00  0.00    -0.089 OA 
BRANCH  22  23
HETATM   23  C   UNL     1      -5.919  12.979  67.664  1.00  0.00    -0.144 C  
HETATM   24  C   UNL     1      -5.410  14.377  67.956  1.00  0.00    -0.110 C  
ENDBRANCH  22  23
ENDBRANCH  18  22
BRANCH  21  25
HETATM   25  S   UNL     1      -7.747   7.078  70.206  1.00  0.00    -0.101 S  
HETATM   26  O   UNL     1      -6.512   6.719  70.867  1.00  0.00    -0.049 OA 
HETATM   27  O   UNL     1      -8.172   6.396  69.003  1.00  0.00    -0.113 OA 
BRANCH  25  28
HETATM   28  N   UNL     1      -9.006   7.010  71.361  1.00  0.00    -0.140 N  
HETATM   29  C   UNL     1     -10.295   6.383  70.927  1.00  0.00    -0.204 C  
HETATM   30  C   UNL     1     -10.232   4.834  70.938  1.00  0.00    -0.177 C  
HETATM   31  N   UNL     1      -9.721   4.226  72.190  1.00  0.00    -0.152 NA 
HETATM   32  C   UNL     1      -8.460   4.896  72.577  1.00  0.00    -0.120 C  
HETATM   33  C   UNL     1      -8.575   6.428  72.673  1.00  0.00    -0.122 C  
BRANCH  31  34
HETATM   34  C   UNL     1     -10.751   4.238  73.237  1.00  0.00    -0.220 C  
HETATM   35  C   UNL     1     -11.297   2.856  73.580  1.00  0.00    -0.264 C  
ENDBRANCH  31  34
ENDBRANCH  25  28
ENDBRANCH  21  25
ENDBRANCH  11  16
ENDBRANCH   3   4
ENDBRANCH   2   3
TORSDOF 8
ENDMDL
MODEL      123
REMARK 921   NORMALIZED FREE ENERGY PREDICTED BY IDOCK:   -4.60 KCAL/MOL
REMARK 922        TOTAL FREE ENERGY PREDICTED BY IDOCK:   -7.76 KCAL/MOL
REMARK 923 INTER-LIGAND FREE ENERGY PREDICTED BY IDOCK:   -7.94 KCAL/MOL
REMARK 924 INTRA-LIGAND FREE ENERGY PREDICTED BY IDOCK:    0.18 KCAL/MOL
REMARK 927      BINDING AFFINITY PREDICTED BY RF-SCORE:    0.00 PKD
ROOT
HETATM    1  C   UNL     1     -10.951  15.099  65.015  1.00  0.00    -0.443 C  
HETATM    2  C   UNL     1     -11.675  13.972  65.741  1.00  0.00    -0.368 C  
ENDROOT
BRANCH   2   3
HETATM    3  C   UNL     1     -10.828  13.283  66.813  1.00  0.00    -0.289 C  
BRANCH   3   4
HETATM    4  C   UNL     1     -11.464  13.301  68.164  1.00  0.00    -0.312 A  
HETATM    5  N   UNL     1     -12.010  14.360  68.731  1.00  0.00    -0.316 NA 
HETATM    6  C   UNL     1     -12.488  13.938  69.947  1.00  0.00    -0.229 A  
HETATM    7  C   UNL     1     -12.212  12.598  70.119  1.00  0.00    -0.238 A  
HETATM    8  C   UNL     1     -13.185  14.871  70.859  1.00  0.00    -0.420 C  
HETATM    9  N   UNL     1     -11.578  12.205  68.990  1.00  0.00    -0.296 NA 
HETATM   10  N   UNL     1     -11.204  10.907  68.771  1.00  0.00    -0.247 NA 
HETATM   11  C   UNL     1     -11.363  10.084  69.879  1.00  0.00    -0.250 C  
HETATM   12  N   UNL     1     -11.945  10.427  70.987  1.00  0.00    -0.367 N  
HETATM   13  O   UNL     1     -13.105  11.982  72.184  1.00  0.00    -0.437 OA 
HETATM   14  H   UNL     1     -12.007   9.743  71.742  1.00  0.00     0.000 HD 
HETATM   15  C   UNL     1     -12.479  11.678  71.179  1.00  0.00    -0.307 C  
BRANCH  11  16
HETATM   16  C   UNL     1     -10.816   8.673  69.802  1.00  0.00    -0.185 A  
HETATM   17  C   UNL     1     -10.111   6.687  68.582  1.00  0.00    -0.169 A  
HETATM   18  C   UNL     1     -10.618   7.999  68.573  1.00  0.00    -0.103 A  
HETATM   19  C   UNL     1     -10.536   8.006  71.006  1.00  0.00    -0.229 A  
HETATM   20  C   UNL     1      -9.825   6.037  69.780  1.00  0.00    -0.208 A  
HETATM   21  C   UNL     1     -10.041   6.697  70.984  1.00  0.00    -0.187 A  
BRANCH  18  22
HETATM   22  O   UNL     1     -10.908   8.665  67.409  1.00  0.00    -0.211 OA 
BRANCH  22  23
HETATM   23  C   UNL     1      -9.890   8.719  66.408  1.00  0.00    -0.282 C  
HETATM   24  C   UNL     1      -8.746   9.581  66.905  1.00  0.00    -0.136 C  
ENDBRANCH  22  23
ENDBRANCH  18  22
BRANCH  21  25
HETATM   25  S   UNL     1      -9.893   5.784  72.497  1.00  0.00    -0.162 S  
HETATM   26  O   UNL     1     -10.237   4.411  72.199  1.00  0.00    -0.186 OA 
HETATM   27  O   UNL     1     -10.611   6.527  73.510  1.00  0.00    -0.264 OA 
BRANCH  25  28
HETATM   28  N   UNL     1      -8.219   5.850  72.837  1.00  0.00    -0.118 N  
HETATM   29  C   UNL     1      -7.375   6.697  71.935  1.00  0.00    -0.086 C  
HETATM   30  C   UNL     1      -7.479   8.207  72.271  1.00  0.00    -0.114 C  
HETATM   31  N   UNL     1      -7.278   8.557  73.697  1.00  0.00    -0.326 NA 
HETATM   32  C   UNL     1      -8.123   7.680  74.538  1.00  0.00    -0.215 C  
HETATM   33  C   UNL     1      -7.917   6.177  74.268  1.00  0.00    -0.102 C  
BRANCH  31  34
HETATM   34  C   UNL     1      -5.852   8.531  74.048  1.00  0.00    -0.111 C  
HETATM   35  C   UNL     1      -5.202   9.910  74.086  1.00  0.00    -0.030 C  
ENDBRANCH  31  34
ENDBRANCH  25  28
ENDBRANCH  21  25
ENDBRANCH  11  16
ENDBRANCH   3   4
ENDBRANCH   2   3
TORSDOF 8
ENDMDL
MODEL      124
REMARK 921   NORMALIZED FREE ENERGY PREDICTED BY IDOCK:   -4.58 KCAL/MOL
REMARK 922        TOTAL FREE ENERGY PREDICTED BY IDOCK:   -7.74 KCAL/MOL
REMARK 923 INTER-LIGAND FREE ENERGY PREDICTED BY IDOCK:   -7.02 KCAL/MOL
REMARK 924 INTRA-LIGAND FREE ENERGY PREDICTED BY IDOCK:   -0.72 KCAL/MOL
REMARK 927      BINDING AFFINITY PREDICTED BY RF-SCORE:    0.00 PKD
ROOT
HETATM    1  C   UNL     1     -10.776  18.468  67.591  1.00  0.00    -0.405 C  
HETATM    2  C   UNL     1     -11.364  17.161  68.108  1.00  0.00     0.197 C  
ENDROOT
BRANCH   2   3
HETATM    3  C   UNL     1     -10.535  16.506  69.215  1.00  0.00    -0.326 C  
BRANCH   3   4
HETATM    4  C   UNL     1      -9.091  16.365  68.861  1.00  0.00    -0.256 A  
HETATM    5  N   UNL     1      -8.178  17.304  69.017  1.00  0.00    -0.164 NA 
HETATM    6  C   UNL     1      -6.993  16.759  68.589  1.00  0.00    -0.180 A  
HETATM    7  C   UNL     1      -7.202  15.466  68.156  1.00  0.00    -0.118 A  
HETATM    8  C   UNL     1      -5.734  17.535  68.634  1.00  0.00    -0.162 C  
HETATM    9  N   UNL     1      -8.521  15.225  68.341  1.00  0.00    -0.152 NA 
HETATM   10  N   UNL     1      -9.089  14.008  68.081  1.00  0.00    -0.186 NA 
HETATM   11  C   UNL     1      -8.235  13.118  67.441  1.00  0.00    -0.187 C  
HETATM   12  N   UNL     1      -6.972  13.317  67.224  1.00  0.00    -0.340 N  
HETATM   13  O   UNL     1      -5.126  14.627  67.502  1.00  0.00    -0.329 OA 
HETATM   14  H   UNL     1      -6.435  12.596  66.742  1.00  0.00     0.000 HD 
HETATM   15  C   UNL     1      -6.332  14.466  67.622  1.00  0.00    -0.106 C  
BRANCH  11  16
HETATM   16  C   UNL     1      -8.814  11.807  66.948  1.00  0.00    -0.191 A  
HETATM   17  C   UNL     1     -10.388  10.491  65.637  1.00  0.00    -0.274 A  
HETATM   18  C   UNL     1      -9.902  11.746  66.044  1.00  0.00    -0.232 A  
HETATM   19  C   UNL     1      -8.267  10.613  67.447  1.00  0.00    -0.115 A  
HETATM   20  C   UNL     1      -9.832   9.312  66.126  1.00  0.00    -0.363 A  
HETATM   21  C   UNL     1      -8.778   9.378  67.030  1.00  0.00    -0.127 A  
BRANCH  18  22
HETATM   22  O   UNL     1     -10.430  12.923  65.578  1.00  0.00    -0.280 OA 
BRANCH  22  23
HETATM   23  C   UNL     1     -11.836  12.965  65.333  1.00  0.00    -0.403 C  
HETATM   24  C   UNL     1     -12.535  13.573  66.533  1.00  0.00    -0.309 C  
ENDBRANCH  22  23
ENDBRANCH  18  22
BRANCH  21  25
HETATM   25  S   UNL     1      -8.234   7.887  67.819  1.00  0.00    -0.130 S  
HETATM   26  O   UNL     1      -6.791   7.951  67.898  1.00  0.00    -0.068 OA 
HETATM   27  O   UNL     1      -8.893   6.789  67.147  1.00  0.00    -0.117 OA 
BRANCH  25  28
HETATM   28  N   UNL     1      -8.858   8.027  69.404  1.00  0.00    -0.144 N  
HETATM   29  C   UNL     1     -10.347   8.111  69.544  1.00  0.00    -0.222 C  
HETATM   30  C   UNL     1     -11.032   6.726  69.421  1.00  0.00    -0.276 C  
HETATM   31  N   UNL     1     -10.462   5.655  70.273  1.00  0.00    -0.270 NA 
HETATM   32  C   UNL     1      -8.991   5.631  70.107  1.00  0.00    -0.138 C  
HETATM   33  C   UNL     1      -8.318   6.996  70.348  1.00  0.00    -0.129 C  
BRANCH  31  34
HETATM   34  C   UNL     1     -10.904   5.802  71.666  1.00  0.00    -0.255 C  
HETATM   35  C   UNL     1     -12.320   6.350  71.808  1.00  0.00    -0.259 C  
ENDBRANCH  31  34
ENDBRANCH  25  28
ENDBRANCH  21  25
ENDBRANCH  11  16
ENDBRANCH   3   4
ENDBRANCH   2   3
TORSDOF 8
ENDMDL
MODEL      125
REMARK 921   NORMALIZED FREE ENERGY PREDICTED BY IDOCK:   -4.57 KCAL/MOL
REMARK 922        TOTAL FREE ENERGY PREDICTED BY IDOCK:   -7.72 KCAL/MOL
REMARK 923 INTER-LIGAND FREE ENERGY PREDICTED BY IDOCK:   -7.33 KCAL/MOL
REMARK 924 INTRA-LIGAND FREE ENERGY PREDICTED BY IDOCK:   -0.39 KCAL/MOL
REMARK 927      BINDING AFFINITY PREDICTED BY RF-SCORE:    0.00 PKD
ROOT
HETATM    1  C   UNL     1     -13.375  15.410  70.301  1.00  0.00     0.106 C  
HETATM    2  C   UNL     1     -12.382  14.469  70.972  1.00  0.00    -0.417 C  
ENDROOT
BRANCH   2   3
HETATM    3  C   UNL     1     -10.954  15.017  71.027  1.00  0.00    -0.139 C  
BRANCH   3   4
HETATM    4  C   UNL     1     -10.564  15.767  69.796  1.00  0.00    -0.312 A  
HETATM    5  N   UNL     1     -10.546  17.082  69.685  1.00  0.00    -0.211 NA 
HETATM    6  C   UNL     1     -10.115  17.350  68.409  1.00  0.00    -0.347 A  
HETATM    7  C   UNL     1      -9.880  16.169  67.736  1.00  0.00    -0.232 A  
HETATM    8  C   UNL     1      -9.959  18.742  67.932  1.00  0.00    -0.400 C  
HETATM    9  N   UNL     1     -10.155  15.181  68.620  1.00  0.00    -0.216 NA 
HETATM   10  N   UNL     1      -9.972  13.858  68.323  1.00  0.00    -0.233 NA 
HETATM   11  C   UNL     1      -9.664  13.621  66.989  1.00  0.00    -0.251 C  
HETATM   12  N   UNL     1      -9.415  14.537  66.105  1.00  0.00    -0.432 N  
HETATM   13  O   UNL     1      -9.111  16.742  65.610  1.00  0.00    -0.489 OA 
HETATM   14  H   UNL     1      -9.201  14.253  65.149  1.00  0.00     0.000 HD 
HETATM   15  C   UNL     1      -9.430  15.876  66.412  1.00  0.00    -0.295 C  
BRANCH  11  16
HETATM   16  C   UNL     1      -9.616  12.183  66.515  1.00  0.00    -0.235 A  
HETATM   17  C   UNL     1     -10.659  10.094  65.822  1.00  0.00    -0.017 A  
HETATM   18  C   UNL     1     -10.784  11.426  66.254  1.00  0.00    -0.270 A  
HETATM   19  C   UNL     1      -8.357  11.575  66.371  1.00  0.00    -0.118 A  
HETATM   20  C   UNL     1      -9.407   9.504  65.670  1.00  0.00    -0.302 A  
HETATM   21  C   UNL     1      -8.264  10.245  65.948  1.00  0.00    -0.148 A  
BRANCH  18  22
HETATM   22  O   UNL     1     -12.004  12.035  66.411  1.00  0.00    -0.611 OA 
BRANCH  22  23
HETATM   23  C   UNL     1     -12.456  12.890  65.360  1.00  0.00    -0.454 C  
HETATM   24  C   UNL     1     -12.514  12.102  64.065  1.00  0.00    -0.541 C  
ENDBRANCH  22  23
ENDBRANCH  18  22
BRANCH  21  25
HETATM   25  S   UNL     1      -6.695   9.418  65.975  1.00  0.00    -0.082 S  
HETATM   26  O   UNL     1      -5.704  10.377  65.541  1.00  0.00    -0.090 OA 
HETATM   27  O   UNL     1      -6.869   8.162  65.280  1.00  0.00    -0.057 OA 
BRANCH  25  28
HETATM   28  N   UNL     1      -6.440   9.108  67.636  1.00  0.00    -0.063 N  
HETATM   29  C   UNL     1      -7.644   8.756  68.456  1.00  0.00    -0.098 C  
HETATM   30  C   UNL     1      -8.076   7.278  68.269  1.00  0.00    -0.124 C  
HETATM   31  N   UNL     1      -6.996   6.275  68.424  1.00  0.00    -0.077 NA 
HETATM   32  C   UNL     1      -5.830   6.683  67.608  1.00  0.00    -0.020 C  
HETATM   33  C   UNL     1      -5.345   8.117  67.894  1.00  0.00    -0.034 C  
BRANCH  31  34
HETATM   34  C   UNL     1      -6.685   6.053  69.842  1.00  0.00    -0.052 C  
HETATM   35  C   UNL     1      -7.636   5.084  70.536  1.00  0.00    -0.070 C  
ENDBRANCH  31  34
ENDBRANCH  25  28
ENDBRANCH  21  25
ENDBRANCH  11  16
ENDBRANCH   3   4
ENDBRANCH   2   3
TORSDOF 8
ENDMDL
MODEL      126
REMARK 921   NORMALIZED FREE ENERGY PREDICTED BY IDOCK:   -4.57 KCAL/MOL
REMARK 922        TOTAL FREE ENERGY PREDICTED BY IDOCK:   -7.71 KCAL/MOL
REMARK 923 INTER-LIGAND FREE ENERGY PREDICTED BY IDOCK:   -7.12 KCAL/MOL
REMARK 924 INTRA-LIGAND FREE ENERGY PREDICTED BY IDOCK:   -0.60 KCAL/MOL
REMARK 927      BINDING AFFINITY PREDICTED BY RF-SCORE:    0.00 PKD
ROOT
HETATM    1  C   UNL     1      -7.412  12.118  69.258  1.00  0.00     0.219 C  
HETATM    2  C   UNL     1      -6.378  12.719  70.202  1.00  0.00     0.062 C  
ENDROOT
BRANCH   2   3
HETATM    3  C   UNL     1      -5.369  13.637  69.509  1.00  0.00    -0.085 C  
BRANCH   3   4
HETATM    4  C   UNL     1      -5.705  15.085  69.640  1.00  0.00    -0.105 A  
HETATM    5  N   UNL     1      -5.130  15.923  70.483  1.00  0.00    -0.158 NA 
HETATM    6  C   UNL     1      -5.716  17.145  70.265  1.00  0.00    -0.177 A  
HETATM    7  C   UNL     1      -6.671  17.037  69.276  1.00  0.00    -0.234 A  
HETATM    8  C   UNL     1      -5.302  18.339  71.035  1.00  0.00    -0.231 C  
HETATM    9  N   UNL     1      -6.649  15.742  68.883  1.00  0.00    -0.114 NA 
HETATM   10  N   UNL     1      -7.426  15.270  67.861  1.00  0.00    -0.131 NA 
HETATM   11  C   UNL     1      -8.362  16.188  67.400  1.00  0.00    -0.171 C  
HETATM   12  N   UNL     1      -8.432  17.431  67.765  1.00  0.00    -0.219 N  
HETATM   13  O   UNL     1      -7.561  19.169  68.957  1.00  0.00    -0.345 OA 
HETATM   14  H   UNL     1      -9.162  18.021  67.365  1.00  0.00     0.000 HD 
HETATM   15  C   UNL     1      -7.559  17.980  68.672  1.00  0.00    -0.290 C  
BRANCH  11  16
HETATM   16  C   UNL     1      -9.389  15.713  66.393  1.00  0.00    -0.332 A  
HETATM   17  C   UNL     1     -11.001  16.079  64.606  1.00  0.00    -0.297 A  
HETATM   18  C   UNL     1     -10.055  16.595  65.508  1.00  0.00    -0.134 A  
HETATM   19  C   UNL     1      -9.714  14.346  66.375  1.00  0.00    -0.320 A  
HETATM   20  C   UNL     1     -11.309  14.721  64.586  1.00  0.00    -0.370 A  
HETATM   21  C   UNL     1     -10.667  13.862  65.471  1.00  0.00    -0.302 A  
BRANCH  18  22
HETATM   22  O   UNL     1      -9.732  17.927  65.550  1.00  0.00    -0.327 OA 
BRANCH  22  23
HETATM   23  C   UNL     1     -10.808  18.867  65.590  1.00  0.00    -0.051 C  
HETATM   24  C   UNL     1     -10.400  20.059  66.433  1.00  0.00    -0.573 C  
ENDBRANCH  22  23
ENDBRANCH  18  22
BRANCH  21  25
HETATM   25  S   UNL     1     -11.230  12.186  65.595  1.00  0.00    -0.337 S  
HETATM   26  O   UNL     1     -11.083  11.591  64.285  1.00  0.00    -0.342 OA 
HETATM   27  O   UNL     1     -12.516  12.220  66.256  1.00  0.00    -0.421 OA 
BRANCH  25  28
HETATM   28  N   UNL     1     -10.085  11.460  66.638  1.00  0.00    -0.207 N  
HETATM   29  C   UNL     1     -10.526  10.242  67.390  1.00  0.00    -0.251 C  
HETATM   30  C   UNL     1     -10.503   8.964  66.513  1.00  0.00    -0.105 C  
HETATM   31  N   UNL     1      -9.243   8.723  65.771  1.00  0.00    -0.219 NA 
HETATM   32  C   UNL     1      -8.849   9.962  65.064  1.00  0.00    -0.190 C  
HETATM   33  C   UNL     1      -8.765  11.198  65.978  1.00  0.00    -0.183 C  
BRANCH  31  34
HETATM   34  C   UNL     1      -8.204   8.186  66.661  1.00  0.00    -0.103 C  
HETATM   35  C   UNL     1      -6.816   8.764  66.406  1.00  0.00    -0.075 C  
ENDBRANCH  31  34
ENDBRANCH  25  28
ENDBRANCH  21  25
ENDBRANCH  11  16
ENDBRANCH   3   4
ENDBRANCH   2   3
TORSDOF 8
ENDMDL
MODEL      127
REMARK 921   NORMALIZED FREE ENERGY PREDICTED BY IDOCK:   -4.57 KCAL/MOL
REMARK 922        TOTAL FREE ENERGY PREDICTED BY IDOCK:   -7.71 KCAL/MOL
REMARK 923 INTER-LIGAND FREE ENERGY PREDICTED BY IDOCK:   -6.77 KCAL/MOL
REMARK 924 INTRA-LIGAND FREE ENERGY PREDICTED BY IDOCK:   -0.95 KCAL/MOL
REMARK 927      BINDING AFFINITY PREDICTED BY RF-SCORE:    0.00 PKD
ROOT
HETATM    1  C   UNL     1     -12.661   7.281  71.925  1.00  0.00    -0.326 C  
HETATM    2  C   UNL     1     -11.424   6.846  72.701  1.00  0.00    -0.235 C  
ENDROOT
BRANCH   2   3
HETATM    3  C   UNL     1     -11.079   5.364  72.532  1.00  0.00    -0.310 C  
BRANCH   3   4
HETATM    4  C   UNL     1      -9.632   5.127  72.251  1.00  0.00    -0.150 A  
HETATM    5  N   UNL     1      -8.810   4.449  73.030  1.00  0.00    -0.113 NA 
HETATM    6  C   UNL     1      -7.592   4.456  72.396  1.00  0.00    -0.079 A  
HETATM    7  C   UNL     1      -7.682   5.162  71.215  1.00  0.00    -0.101 A  
HETATM    8  C   UNL     1      -6.421   3.768  72.985  1.00  0.00    -0.028 C  
HETATM    9  N   UNL     1      -8.970   5.570  71.128  1.00  0.00    -0.140 NA 
HETATM   10  N   UNL     1      -9.453   6.253  70.045  1.00  0.00    -0.154 NA 
HETATM   11  C   UNL     1      -8.468   6.645  69.147  1.00  0.00    -0.124 C  
HETATM   12  N   UNL     1      -7.220   6.295  69.205  1.00  0.00    -0.084 N  
HETATM   13  O   UNL     1      -5.581   5.067  70.207  1.00  0.00    -0.014 OA 
HETATM   14  H   UNL     1      -6.578   6.642  68.493  1.00  0.00     0.000 HD 
HETATM   15  C   UNL     1      -6.734   5.473  70.193  1.00  0.00    -0.047 C  
BRANCH  11  16
HETATM   16  C   UNL     1      -8.870   7.557  68.005  1.00  0.00    -0.127 A  
HETATM   17  C   UNL     1      -8.915   8.196  65.656  1.00  0.00    -0.128 A  
HETATM   18  C   UNL     1      -8.511   7.299  66.660  1.00  0.00    -0.124 A  
HETATM   19  C   UNL     1      -9.593   8.722  68.312  1.00  0.00    -0.160 A  
HETATM   20  C   UNL     1      -9.642   9.342  65.967  1.00  0.00    -0.338 A  
HETATM   21  C   UNL     1      -9.974   9.601  67.292  1.00  0.00    -0.197 A  
BRANCH  18  22
HETATM   22  O   UNL     1      -7.795   6.162  66.383  1.00  0.00    -0.101 OA 
BRANCH  22  23
HETATM   23  C   UNL     1      -8.466   5.114  65.681  1.00  0.00    -0.134 C  
HETATM   24  C   UNL     1      -8.280   5.312  64.190  1.00  0.00    -0.132 C  
ENDBRANCH  22  23
ENDBRANCH  18  22
BRANCH  21  25
HETATM   25  S   UNL     1     -10.693  11.169  67.702  1.00  0.00    -0.248 S  
HETATM   26  O   UNL     1      -9.948  11.697  68.823  1.00  0.00    -0.200 OA 
HETATM   27  O   UNL     1     -12.123  10.969  67.787  1.00  0.00    -0.534 OA 
BRANCH  25  28
HETATM   28  N   UNL     1     -10.345  12.133  66.334  1.00  0.00    -0.215 N  
HETATM   29  C   UNL     1     -11.512  12.632  65.538  1.00  0.00    -0.340 C  
HETATM   30  C   UNL     1     -12.199  13.855  66.196  1.00  0.00    -0.464 C  
HETATM   31  N   UNL     1     -11.292  14.960  66.589  1.00  0.00    -0.347 NA 
HETATM   32  C   UNL     1     -10.153  14.407  67.355  1.00  0.00    -0.243 C  
HETATM   33  C   UNL     1      -9.412  13.269  66.630  1.00  0.00    -0.260 C  
BRANCH  31  34
HETATM   34  C   UNL     1     -10.896  15.755  65.418  1.00  0.00    -0.364 C  
HETATM   35  C   UNL     1      -9.818  16.791  65.714  1.00  0.00    -0.209 C  
ENDBRANCH  31  34
ENDBRANCH  25  28
ENDBRANCH  21  25
ENDBRANCH  11  16
ENDBRANCH   3   4
ENDBRANCH   2   3
TORSDOF 8
ENDMDL
MODEL      128
REMARK 921   NORMALIZED FREE ENERGY PREDICTED BY IDOCK:   -4.55 KCAL/MOL
REMARK 922        TOTAL FREE ENERGY PREDICTED BY IDOCK:   -7.69 KCAL/MOL
REMARK 923 INTER-LIGAND FREE ENERGY PREDICTED BY IDOCK:   -7.30 KCAL/MOL
REMARK 924 INTRA-LIGAND FREE ENERGY PREDICTED BY IDOCK:   -0.38 KCAL/MOL
REMARK 927      BINDING AFFINITY PREDICTED BY RF-SCORE:    0.00 PKD
ROOT
HETATM    1  C   UNL     1     -13.011  13.471  65.271  1.00  0.00    -0.290 C  
HETATM    2  C   UNL     1     -12.038  14.364  66.031  1.00  0.00    -0.370 C  
ENDROOT
BRANCH   2   3
HETATM    3  C   UNL     1     -10.854  14.845  65.188  1.00  0.00    -0.428 C  
BRANCH   3   4
HETATM    4  C   UNL     1      -9.592  14.983  65.973  1.00  0.00    -0.325 A  
HETATM    5  N   UNL     1      -9.022  16.130  66.294  1.00  0.00    -0.317 NA 
HETATM    6  C   UNL     1      -7.905  15.808  67.025  1.00  0.00    -0.236 A  
HETATM    7  C   UNL     1      -7.797  14.438  67.137  1.00  0.00    -0.082 A  
HETATM    8  C   UNL     1      -7.019  16.861  67.570  1.00  0.00    -0.165 C  
HETATM    9  N   UNL     1      -8.867  13.930  66.482  1.00  0.00    -0.078 NA 
HETATM   10  N   UNL     1      -9.131  12.588  66.435  1.00  0.00    -0.176 NA 
HETATM   11  C   UNL     1      -8.112  11.799  66.954  1.00  0.00    -0.160 C  
HETATM   12  N   UNL     1      -7.060  12.245  67.569  1.00  0.00    -0.129 N  
HETATM   13  O   UNL     1      -5.904  14.011  68.431  1.00  0.00    -0.087 OA 
HETATM   14  H   UNL     1      -6.369  11.576  67.910  1.00  0.00     0.000 HD 
HETATM   15  C   UNL     1      -6.845  13.585  67.777  1.00  0.00    -0.163 C  
BRANCH  11  16
HETATM   16  C   UNL     1      -8.223  10.296  66.791  1.00  0.00    -0.124 A  
HETATM   17  C   UNL     1      -8.433   8.272  65.454  1.00  0.00    -0.189 A  
HETATM   18  C   UNL     1      -8.327   9.672  65.524  1.00  0.00    -0.139 A  
HETATM   19  C   UNL     1      -8.262   9.506  67.952  1.00  0.00    -0.114 A  
HETATM   20  C   UNL     1      -8.459   7.495  66.609  1.00  0.00    -0.130 A  
HETATM   21  C   UNL     1      -8.377   8.115  67.851  1.00  0.00    -0.129 A  
BRANCH  18  22
HETATM   22  O   UNL     1      -8.298  10.463  64.403  1.00  0.00    -0.165 OA 
BRANCH  22  23
HETATM   23  C   UNL     1      -9.414  10.389  63.514  1.00  0.00    -0.312 C  
HETATM   24  C   UNL     1      -9.076   9.461  62.364  1.00  0.00    -0.207 C  
ENDBRANCH  22  23
ENDBRANCH  18  22
BRANCH  21  25
HETATM   25  S   UNL     1      -8.642   7.143  69.310  1.00  0.00    -0.137 S  
HETATM   26  O   UNL     1      -8.049   7.865  70.414  1.00  0.00    -0.109 OA 
HETATM   27  O   UNL     1      -8.231   5.793  68.998  1.00  0.00    -0.100 OA 
BRANCH  25  28
HETATM   28  N   UNL     1     -10.340   7.179  69.505  1.00  0.00    -0.209 N  
HETATM   29  C   UNL     1     -10.918   6.334  70.598  1.00  0.00    -0.309 C  
HETATM   30  C   UNL     1     -10.767   6.988  71.995  1.00  0.00    -0.215 C  
HETATM   31  N   UNL     1     -11.223   8.395  72.092  1.00  0.00    -0.335 NA 
HETATM   32  C   UNL     1     -10.637   9.176  70.980  1.00  0.00    -0.292 C  
HETATM   33  C   UNL     1     -10.899   8.567  69.589  1.00  0.00    -0.151 C  
BRANCH  31  34
HETATM   34  C   UNL     1     -12.688   8.467  72.166  1.00  0.00    -0.373 C  
HETATM   35  C   UNL     1     -13.248   9.867  71.937  1.00  0.00    -0.558 C  
ENDBRANCH  31  34
ENDBRANCH  25  28
ENDBRANCH  21  25
ENDBRANCH  11  16
ENDBRANCH   3   4
ENDBRANCH   2   3
TORSDOF 8
ENDMDL
MODEL      129
REMARK 921   NORMALIZED FREE ENERGY PREDICTED BY IDOCK:   -4.54 KCAL/MOL
REMARK 922        TOTAL FREE ENERGY PREDICTED BY IDOCK:   -7.67 KCAL/MOL
REMARK 923 INTER-LIGAND FREE ENERGY PREDICTED BY IDOCK:   -8.40 KCAL/MOL
REMARK 924 INTRA-LIGAND FREE ENERGY PREDICTED BY IDOCK:    0.73 KCAL/MOL
REMARK 927      BINDING AFFINITY PREDICTED BY RF-SCORE:    0.00 PKD
ROOT
HETATM    1  C   UNL     1     -10.835   5.903  66.972  1.00  0.00    -0.379 C  
HETATM    2  C   UNL     1      -9.488   5.462  67.533  1.00  0.00    -0.129 C  
ENDROOT
BRANCH   2   3
HETATM    3  C   UNL     1      -8.759   6.555  68.318  1.00  0.00    -0.117 C  
BRANCH   3   4
HETATM    4  C   UNL     1      -9.660   7.329  69.223  1.00  0.00    -0.156 A  
HETATM    5  N   UNL     1     -10.149   6.884  70.365  1.00  0.00    -0.187 NA 
HETATM    6  C   UNL     1     -10.905   7.909  70.880  1.00  0.00    -0.234 A  
HETATM    7  C   UNL     1     -10.877   8.988  70.023  1.00  0.00    -0.231 A  
HETATM    8  C   UNL     1     -11.601   7.766  72.178  1.00  0.00    -0.367 C  
HETATM    9  N   UNL     1     -10.084   8.617  68.990  1.00  0.00    -0.194 NA 
HETATM   10  N   UNL     1      -9.769   9.466  67.964  1.00  0.00    -0.142 NA 
HETATM   11  C   UNL     1     -10.480  10.659  67.986  1.00  0.00    -0.196 C  
HETATM   12  N   UNL     1     -11.267  11.043  68.944  1.00  0.00    -0.240 N  
HETATM   13  O   UNL     1     -12.146  10.675  71.016  1.00  0.00    -0.340 OA 
HETATM   14  H   UNL     1     -11.744  11.941  68.859  1.00  0.00     0.000 HD 
HETATM   15  C   UNL     1     -11.478  10.283  70.069  1.00  0.00    -0.296 C  
BRANCH  11  16
HETATM   16  C   UNL     1     -10.339  11.594  66.802  1.00  0.00    -0.257 A  
HETATM   17  C   UNL     1     -10.043  12.054  64.429  1.00  0.00    -0.298 A  
HETATM   18  C   UNL     1     -10.174  11.125  65.476  1.00  0.00    -0.263 A  
HETATM   19  C   UNL     1     -10.333  12.977  67.048  1.00  0.00    -0.247 A  
HETATM   20  C   UNL     1     -10.051  13.424  64.680  1.00  0.00    -0.256 A  
HETATM   21  C   UNL     1     -10.193  13.878  65.986  1.00  0.00    -0.310 A  
BRANCH  18  22
HETATM   22  O   UNL     1     -10.171   9.770  65.260  1.00  0.00    -0.216 OA 
BRANCH  22  23
HETATM   23  C   UNL     1      -9.229   9.255  64.317  1.00  0.00     0.087 C  
HETATM   24  C   UNL     1      -8.276   8.312  65.026  1.00  0.00    -0.160 C  
ENDBRANCH  22  23
ENDBRANCH  18  22
BRANCH  21  25
HETATM   25  S   UNL     1      -9.970  15.605  66.319  1.00  0.00    -0.320 S  
HETATM   26  O   UNL     1     -10.176  16.307  65.071  1.00  0.00    -0.553 OA 
HETATM   27  O   UNL     1      -8.729  15.738  67.050  1.00  0.00    -0.192 OA 
BRANCH  25  28
HETATM   28  N   UNL     1     -11.274  15.979  67.359  1.00  0.00    -0.163 N  
HETATM   29  C   UNL     1     -11.801  14.870  68.216  1.00  0.00    -0.278 C  
HETATM   30  C   UNL     1     -10.913  14.610  69.460  1.00  0.00    -0.245 C  
HETATM   31  N   UNL     1     -10.576  15.809  70.263  1.00  0.00    -0.315 NA 
HETATM   32  C   UNL     1     -10.079  16.875  69.364  1.00  0.00    -0.162 C  
HETATM   33  C   UNL     1     -11.033  17.197  68.198  1.00  0.00    -0.231 C  
BRANCH  31  34
HETATM   34  C   UNL     1     -11.712  16.216  71.101  1.00  0.00    -0.407 C  
HETATM   35  C   UNL     1     -12.421  15.051  71.785  1.00  0.00    -0.407 C  
ENDBRANCH  31  34
ENDBRANCH  25  28
ENDBRANCH  21  25
ENDBRANCH  11  16
ENDBRANCH   3   4
ENDBRANCH   2   3
TORSDOF 8
ENDMDL
MODEL      130
REMARK 921   NORMALIZED FREE ENERGY PREDICTED BY IDOCK:   -4.51 KCAL/MOL
REMARK 922        TOTAL FREE ENERGY PREDICTED BY IDOCK:   -7.63 KCAL/MOL
REMARK 923 INTER-LIGAND FREE ENERGY PREDICTED BY IDOCK:   -7.29 KCAL/MOL
REMARK 924 INTRA-LIGAND FREE ENERGY PREDICTED BY IDOCK:   -0.34 KCAL/MOL
REMARK 927      BINDING AFFINITY PREDICTED BY RF-SCORE:    0.00 PKD
ROOT
HETATM    1  C   UNL     1      -7.978  19.006  67.187  1.00  0.00    -0.271 C  
HETATM    2  C   UNL     1      -8.684  17.969  66.322  1.00  0.00    -0.194 C  
ENDROOT
BRANCH   2   3
HETATM    3  C   UNL     1      -8.741  16.575  66.950  1.00  0.00    -0.233 C  
BRANCH   3   4
HETATM    4  C   UNL     1      -9.779  15.695  66.335  1.00  0.00    -0.279 A  
HETATM    5  N   UNL     1     -10.656  16.080  65.427  1.00  0.00    -0.426 NA 
HETATM    6  C   UNL     1     -11.402  14.968  65.123  1.00  0.00    -0.372 A  
HETATM    7  C   UNL     1     -10.971  13.895  65.873  1.00  0.00    -0.284 A  
HETATM    8  C   UNL     1     -12.486  15.027  64.117  1.00  0.00    -0.052 C  
HETATM    9  N   UNL     1      -9.944  14.360  66.623  1.00  0.00    -0.264 NA 
HETATM   10  N   UNL     1      -9.217  13.552  67.455  1.00  0.00    -0.213 NA 
HETATM   11  C   UNL     1      -9.745  12.275  67.597  1.00  0.00    -0.194 C  
HETATM   12  N   UNL     1     -10.740  11.797  66.914  1.00  0.00    -0.238 N  
HETATM   13  O   UNL     1     -12.268  12.062  65.243  1.00  0.00    -0.437 OA 
HETATM   14  H   UNL     1     -11.050  10.843  67.100  1.00  0.00     0.000 HD 
HETATM   15  C   UNL     1     -11.389  12.531  65.952  1.00  0.00    -0.340 C  
BRANCH  11  16
HETATM   16  C   UNL     1      -9.121  11.358  68.629  1.00  0.00    -0.138 A  
HETATM   17  C   UNL     1      -7.216  10.393  69.799  1.00  0.00    -0.155 A  
HETATM   18  C   UNL     1      -7.721  11.272  68.826  1.00  0.00    -0.138 A  
HETATM   19  C   UNL     1      -9.973  10.536  69.386  1.00  0.00    -0.220 A  
HETATM   20  C   UNL     1      -8.068   9.591  70.554  1.00  0.00    -0.199 A  
HETATM   21  C   UNL     1      -9.441   9.664  70.342  1.00  0.00    -0.222 A  
BRANCH  18  22
HETATM   22  O   UNL     1      -6.906  12.075  68.068  1.00  0.00    -0.068 OA 
BRANCH  22  23
HETATM   23  C   UNL     1      -5.710  12.564  68.678  1.00  0.00    -0.054 C  
HETATM   24  C   UNL     1      -5.824  14.064  68.869  1.00  0.00    -0.083 C  
ENDBRANCH  22  23
ENDBRANCH  18  22
BRANCH  21  25
HETATM   25  S   UNL     1     -10.493   8.480  71.139  1.00  0.00    -0.237 S  
HETATM   26  O   UNL     1     -11.856   8.915  70.929  1.00  0.00    -0.282 OA 
HETATM   27  O   UNL     1      -9.972   8.284  72.474  1.00  0.00    -0.266 OA 
BRANCH  25  28
HETATM   28  N   UNL     1     -10.245   7.055  70.228  1.00  0.00    -0.191 N  
HETATM   29  C   UNL     1      -8.861   6.483  70.222  1.00  0.00    -0.151 C  
HETATM   30  C   UNL     1      -8.543   5.686  71.513  1.00  0.00    -0.132 C  
HETATM   31  N   UNL     1      -9.552   4.671  71.899  1.00  0.00    -0.148 NA 
HETATM   32  C   UNL     1     -10.898   5.287  71.871  1.00  0.00    -0.149 C  
HETATM   33  C   UNL     1     -11.238   5.974  70.535  1.00  0.00    -0.292 C  
BRANCH  31  34
HETATM   34  C   UNL     1      -9.428   3.465  71.069  1.00  0.00    -0.157 C  
HETATM   35  C   UNL     1      -9.934   2.197  71.748  1.00  0.00    -0.209 C  
ENDBRANCH  31  34
ENDBRANCH  25  28
ENDBRANCH  21  25
ENDBRANCH  11  16
ENDBRANCH   3   4
ENDBRANCH   2   3
TORSDOF 8
ENDMDL
MODEL      131
REMARK 921   NORMALIZED FREE ENERGY PREDICTED BY IDOCK:   -4.49 KCAL/MOL
REMARK 922        TOTAL FREE ENERGY PREDICTED BY IDOCK:   -7.59 KCAL/MOL
REMARK 923 INTER-LIGAND FREE ENERGY PREDICTED BY IDOCK:   -6.93 KCAL/MOL
REMARK 924 INTRA-LIGAND FREE ENERGY PREDICTED BY IDOCK:   -0.66 KCAL/MOL
REMARK 927      BINDING AFFINITY PREDICTED BY RF-SCORE:    0.00 PKD
ROOT
HETATM    1  C   UNL     1      -8.741   3.938  68.155  1.00  0.00    -0.124 C  
HETATM    2  C   UNL     1      -8.059   5.299  68.075  1.00  0.00    -0.099 C  
ENDROOT
BRANCH   2   3
HETATM    3  C   UNL     1      -7.493   5.785  69.411  1.00  0.00    -0.079 C  
BRANCH   3   4
HETATM    4  C   UNL     1      -8.539   6.326  70.329  1.00  0.00    -0.138 A  
HETATM    5  N   UNL     1      -9.002   5.706  71.398  1.00  0.00    -0.139 NA 
HETATM    6  C   UNL     1      -9.926   6.553  71.959  1.00  0.00    -0.169 A  
HETATM    7  C   UNL     1     -10.027   7.702  71.205  1.00  0.00    -0.177 A  
HETATM    8  C   UNL     1     -10.646   6.184  73.198  1.00  0.00    -0.269 C  
HETATM    9  N   UNL     1      -9.144   7.554  70.189  1.00  0.00    -0.148 NA 
HETATM   10  N   UNL     1      -8.919   8.536  69.263  1.00  0.00    -0.145 NA 
HETATM   11  C   UNL     1      -9.804   9.603  69.352  1.00  0.00    -0.193 C  
HETATM   12  N   UNL     1     -10.679   9.772  70.295  1.00  0.00    -0.279 N  
HETATM   13  O   UNL     1     -11.578   9.079  72.272  1.00  0.00    -0.328 OA 
HETATM   14  H   UNL     1     -11.284  10.593  70.263  1.00  0.00     0.000 HD 
HETATM   15  C   UNL     1     -10.819   8.884  71.333  1.00  0.00    -0.307 C  
BRANCH  11  16
HETATM   16  C   UNL     1      -9.757  10.658  68.265  1.00  0.00    -0.169 A  
HETATM   17  C   UNL     1     -10.167  11.456  66.002  1.00  0.00    -0.289 A  
HETATM   18  C   UNL     1     -10.251  10.429  66.958  1.00  0.00    -0.225 A  
HETATM   19  C   UNL     1      -9.162  11.894  68.569  1.00  0.00    -0.136 A  
HETATM   20  C   UNL     1      -9.586  12.682  66.314  1.00  0.00    -0.244 A  
HETATM   21  C   UNL     1      -9.084  12.894  67.593  1.00  0.00    -0.194 A  
BRANCH  18  22
HETATM   22  O   UNL     1     -10.818   9.212  66.679  1.00  0.00    -0.071 OA 
BRANCH  22  23
HETATM   23  C   UNL     1      -9.949   8.160  66.255  1.00  0.00    -0.077 C  
HETATM   24  C   UNL     1     -10.582   6.823  66.587  1.00  0.00    -0.208 C  
ENDBRANCH  22  23
ENDBRANCH  18  22
BRANCH  21  25
HETATM   25  S   UNL     1      -8.146  14.365  67.910  1.00  0.00    -0.167 S  
HETATM   26  O   UNL     1      -6.849  14.180  67.298  1.00  0.00    -0.226 OA 
HETATM   27  O   UNL     1      -8.267  14.647  69.323  1.00  0.00    -0.107 OA 
BRANCH  25  28
HETATM   28  N   UNL     1      -8.982  15.566  67.027  1.00  0.00    -0.212 N  
HETATM   29  C   UNL     1      -9.860  16.496  67.807  1.00  0.00    -0.240 C  
HETATM   30  C   UNL     1      -9.055  17.613  68.519  1.00  0.00    -0.279 C  
HETATM   31  N   UNL     1      -8.098  18.353  67.663  1.00  0.00    -0.247 NA 
HETATM   32  C   UNL     1      -7.272  17.386  66.906  1.00  0.00    -0.196 C  
HETATM   33  C   UNL     1      -8.096  16.355  66.111  1.00  0.00    -0.158 C  
BRANCH  31  34
HETATM   34  C   UNL     1      -8.797  19.332  66.819  1.00  0.00    -0.317 C  
HETATM   35  C   UNL     1      -9.884  20.111  67.551  1.00  0.00    -0.574 C  
ENDBRANCH  31  34
ENDBRANCH  25  28
ENDBRANCH  21  25
ENDBRANCH  11  16
ENDBRANCH   3   4
ENDBRANCH   2   3
TORSDOF 8
ENDMDL
MODEL      132
REMARK 921   NORMALIZED FREE ENERGY PREDICTED BY IDOCK:   -4.49 KCAL/MOL
REMARK 922        TOTAL FREE ENERGY PREDICTED BY IDOCK:   -7.59 KCAL/MOL
REMARK 923 INTER-LIGAND FREE ENERGY PREDICTED BY IDOCK:   -6.61 KCAL/MOL
REMARK 924 INTRA-LIGAND FREE ENERGY PREDICTED BY IDOCK:   -0.98 KCAL/MOL
REMARK 927      BINDING AFFINITY PREDICTED BY RF-SCORE:    0.00 PKD
ROOT
HETATM    1  C   UNL     1      -5.623  15.779  67.779  1.00  0.00    -0.155 C  
HETATM    2  C   UNL     1      -6.930  16.148  67.087  1.00  0.00    -0.244 C  
ENDROOT
BRANCH   2   3
HETATM    3  C   UNL     1      -8.172  15.557  67.758  1.00  0.00    -0.157 C  
BRANCH   3   4
HETATM    4  C   UNL     1      -9.265  15.239  66.792  1.00  0.00    -0.250 A  
HETATM    5  N   UNL     1      -9.868  16.118  66.014  1.00  0.00    -0.325 NA 
HETATM    6  C   UNL     1     -10.786  15.409  65.279  1.00  0.00    -0.409 A  
HETATM    7  C   UNL     1     -10.740  14.076  65.631  1.00  0.00    -0.303 A  
HETATM    8  C   UNL     1     -11.646  16.079  64.278  1.00  0.00    -0.139 C  
HETATM    9  N   UNL     1      -9.774  13.978  66.575  1.00  0.00    -0.286 NA 
HETATM   10  N   UNL     1      -9.398  12.781  67.120  1.00  0.00    -0.209 NA 
HETATM   11  C   UNL     1     -10.218  11.719  66.757  1.00  0.00    -0.211 C  
HETATM   12  N   UNL     1     -11.168  11.775  65.875  1.00  0.00    -0.316 N  
HETATM   13  O   UNL     1     -12.296  12.968  64.293  1.00  0.00    -0.471 OA 
HETATM   14  H   UNL     1     -11.713  10.934  65.685  1.00  0.00     0.000 HD 
HETATM   15  C   UNL     1     -11.464  12.927  65.189  1.00  0.00    -0.313 C  
BRANCH  11  16
HETATM   16  C   UNL     1      -9.999  10.386  67.442  1.00  0.00    -0.226 A  
HETATM   17  C   UNL     1     -10.540   8.688  69.102  1.00  0.00    -0.193 A  
HETATM   18  C   UNL     1     -10.809   9.936  68.513  1.00  0.00    -0.217 A  
HETATM   19  C   UNL     1      -8.920   9.592  67.016  1.00  0.00    -0.150 A  
HETATM   20  C   UNL     1      -9.477   7.902  68.665  1.00  0.00    -0.149 A  
HETATM   21  C   UNL     1      -8.671   8.359  67.628  1.00  0.00    -0.137 A  
BRANCH  18  22
HETATM   22  O   UNL     1     -11.850  10.731  68.921  1.00  0.00    -0.304 OA 
BRANCH  22  23
HETATM   23  C   UNL     1     -11.694  11.442  70.151  1.00  0.00    -0.328 C  
HETATM   24  C   UNL     1     -12.974  11.338  70.955  1.00  0.00    -0.304 C  
ENDBRANCH  22  23
ENDBRANCH  18  22
BRANCH  21  25
HETATM   25  S   UNL     1      -7.192   7.463  67.238  1.00  0.00    -0.095 S  
HETATM   26  O   UNL     1      -7.061   6.411  68.221  1.00  0.00    -0.077 OA 
HETATM   27  O   UNL     1      -6.143   8.441  67.052  1.00  0.00    -0.052 OA 
BRANCH  25  28
HETATM   28  N   UNL     1      -7.553   6.739  65.732  1.00  0.00    -0.084 N  
HETATM   29  C   UNL     1      -6.546   5.779  65.179  1.00  0.00    -0.043 C  
HETATM   30  C   UNL     1      -6.630   4.381  65.845  1.00  0.00    -0.044 C  
HETATM   31  N   UNL     1      -7.985   3.783  65.898  1.00  0.00    -0.093 NA 
HETATM   32  C   UNL     1      -8.938   4.779  66.435  1.00  0.00    -0.113 C  
HETATM   33  C   UNL     1      -8.919   6.123  65.682  1.00  0.00    -0.041 C  
BRANCH  31  34
HETATM   34  C   UNL     1      -8.367   3.233  64.591  1.00  0.00    -0.090 C  
HETATM   35  C   UNL     1      -9.771   2.638  64.559  1.00  0.00    -0.082 C  
ENDBRANCH  31  34
ENDBRANCH  25  28
ENDBRANCH  21  25
ENDBRANCH  11  16
ENDBRANCH   3   4
ENDBRANCH   2   3
TORSDOF 8
ENDMDL
MODEL      133
REMARK 921   NORMALIZED FREE ENERGY PREDICTED BY IDOCK:   -4.48 KCAL/MOL
REMARK 922        TOTAL FREE ENERGY PREDICTED BY IDOCK:   -7.59 KCAL/MOL
REMARK 923 INTER-LIGAND FREE ENERGY PREDICTED BY IDOCK:   -6.67 KCAL/MOL
REMARK 924 INTRA-LIGAND FREE ENERGY PREDICTED BY IDOCK:   -0.92 KCAL/MOL
REMARK 927      BINDING AFFINITY PREDICTED BY RF-SCORE:    0.00 PKD
ROOT
HETATM    1  C   UNL     1     -13.394  15.258  70.962  1.00  0.00    -0.537 C  
HETATM    2  C   UNL     1     -12.343  14.455  70.206  1.00  0.00    -0.410 C  
ENDROOT
BRANCH   2   3
HETATM    3  C   UNL     1     -11.556  15.276  69.183  1.00  0.00    -0.349 C  
BRANCH   3   4
HETATM    4  C   UNL     1     -11.339  14.555  67.894  1.00  0.00    -0.310 A  
HETATM    5  N   UNL     1     -11.900  14.874  66.743  1.00  0.00    -0.248 NA 
HETATM    6  C   UNL     1     -11.420  13.976  65.822  1.00  0.00    -0.318 A  
HETATM    7  C   UNL     1     -10.558  13.091  66.436  1.00  0.00    -0.284 A  
HETATM    8  C   UNL     1     -11.831  14.043  64.402  1.00  0.00    -0.453 C  
HETATM    9  N   UNL     1     -10.506  13.470  67.735  1.00  0.00    -0.237 NA 
HETATM   10  N   UNL     1      -9.693  12.855  68.647  1.00  0.00    -0.108 NA 
HETATM   11  C   UNL     1      -9.080  11.705  68.165  1.00  0.00    -0.183 C  
HETATM   12  N   UNL     1      -9.122  11.295  66.935  1.00  0.00    -0.163 N  
HETATM   13  O   UNL     1      -9.771  11.652  64.778  1.00  0.00    -0.238 OA 
HETATM   14  H   UNL     1      -8.636  10.433  66.687  1.00  0.00     0.000 HD 
HETATM   15  C   UNL     1      -9.798  11.981  65.956  1.00  0.00    -0.237 C  
BRANCH  11  16
HETATM   16  C   UNL     1      -8.300  10.851  69.144  1.00  0.00    -0.077 A  
HETATM   17  C   UNL     1      -6.296  10.285  70.406  1.00  0.00    -0.127 A  
HETATM   18  C   UNL     1      -6.956  11.127  69.494  1.00  0.00    -0.111 A  
HETATM   19  C   UNL     1      -8.934   9.722  69.688  1.00  0.00    -0.229 A  
HETATM   20  C   UNL     1      -6.936   9.175  70.950  1.00  0.00    -0.101 A  
HETATM   21  C   UNL     1      -8.249   8.897  70.587  1.00  0.00    -0.162 A  
BRANCH  18  22
HETATM   22  O   UNL     1      -6.352  12.229  68.943  1.00  0.00    -0.071 OA 
BRANCH  22  23
HETATM   23  C   UNL     1      -6.078  13.333  69.807  1.00  0.00    -0.128 C  
HETATM   24  C   UNL     1      -6.732  14.581  69.247  1.00  0.00    -0.127 C  
ENDBRANCH  22  23
ENDBRANCH  18  22
BRANCH  21  25
HETATM   25  S   UNL     1      -8.971   7.362  71.102  1.00  0.00    -0.143 S  
HETATM   26  O   UNL     1     -10.297   7.303  70.528  1.00  0.00    -0.203 OA 
HETATM   27  O   UNL     1      -8.775   7.262  72.532  1.00  0.00    -0.120 OA 
BRANCH  25  28
HETATM   28  N   UNL     1      -8.004   6.188  70.323  1.00  0.00    -0.105 N  
HETATM   29  C   UNL     1      -8.355   4.751  70.558  1.00  0.00    -0.095 C  
HETATM   30  C   UNL     1      -9.564   4.289  69.704  1.00  0.00    -0.205 C  
HETATM   31  N   UNL     1      -9.478   4.602  68.258  1.00  0.00    -0.140 NA 
HETATM   32  C   UNL     1      -9.112   6.026  68.087  1.00  0.00    -0.118 C  
HETATM   33  C   UNL     1      -7.840   6.435  68.853  1.00  0.00    -0.110 C  
BRANCH  31  34
HETATM   34  C   UNL     1      -8.577   3.666  67.571  1.00  0.00    -0.100 C  
HETATM   35  C   UNL     1      -8.689   3.708  66.051  1.00  0.00    -0.120 C  
ENDBRANCH  31  34
ENDBRANCH  25  28
ENDBRANCH  21  25
ENDBRANCH  11  16
ENDBRANCH   3   4
ENDBRANCH   2   3
TORSDOF 8
ENDMDL
MODEL      134
REMARK 921   NORMALIZED FREE ENERGY PREDICTED BY IDOCK:   -4.47 KCAL/MOL
REMARK 922        TOTAL FREE ENERGY PREDICTED BY IDOCK:   -7.56 KCAL/MOL
REMARK 923 INTER-LIGAND FREE ENERGY PREDICTED BY IDOCK:   -7.23 KCAL/MOL
REMARK 924 INTRA-LIGAND FREE ENERGY PREDICTED BY IDOCK:   -0.33 KCAL/MOL
REMARK 927      BINDING AFFINITY PREDICTED BY RF-SCORE:    0.00 PKD
ROOT
HETATM    1  C   UNL     1      -5.192   9.528  72.821  1.00  0.00    -0.047 C  
HETATM    2  C   UNL     1      -5.586   8.152  72.298  1.00  0.00    -0.039 C  
ENDROOT
BRANCH   2   3
HETATM    3  C   UNL     1      -6.574   8.194  71.130  1.00  0.00    -0.043 C  
BRANCH   3   4
HETATM    4  C   UNL     1      -8.001   8.179  71.568  1.00  0.00    -0.117 A  
HETATM    5  N   UNL     1      -8.485   7.439  72.548  1.00  0.00    -0.107 NA 
HETATM    6  C   UNL     1      -9.822   7.741  72.629  1.00  0.00    -0.225 A  
HETATM    7  C   UNL     1     -10.151   8.675  71.669  1.00  0.00    -0.294 A  
HETATM    8  C   UNL     1     -10.691   7.099  73.641  1.00  0.00    -0.302 C  
HETATM    9  N   UNL     1      -8.998   8.951  71.015  1.00  0.00    -0.221 NA 
HETATM   10  N   UNL     1      -8.922   9.893  70.025  1.00  0.00    -0.210 NA 
HETATM   11  C   UNL     1     -10.157  10.393  69.633  1.00  0.00    -0.190 C  
HETATM   12  N   UNL     1     -11.287  10.138  70.218  1.00  0.00    -0.293 N  
HETATM   13  O   UNL     1     -12.420   9.145  71.929  1.00  0.00    -0.339 OA 
HETATM   14  H   UNL     1     -12.140  10.558  69.846  1.00  0.00     0.000 HD 
HETATM   15  C   UNL     1     -11.375   9.322  71.319  1.00  0.00    -0.353 C  
BRANCH  11  16
HETATM   16  C   UNL     1     -10.203  11.309  68.427  1.00  0.00    -0.205 A  
HETATM   17  C   UNL     1      -9.856  11.802  66.068  1.00  0.00    -0.258 A  
HETATM   18  C   UNL     1      -9.790  10.893  67.138  1.00  0.00    -0.184 A  
HETATM   19  C   UNL     1     -10.638  12.631  68.616  1.00  0.00    -0.245 A  
HETATM   20  C   UNL     1     -10.299  13.107  66.261  1.00  0.00    -0.291 A  
HETATM   21  C   UNL     1     -10.685  13.516  67.533  1.00  0.00    -0.259 A  
BRANCH  18  22
HETATM   22  O   UNL     1      -9.358   9.600  66.977  1.00  0.00    -0.142 OA 
BRANCH  22  23
HETATM   23  C   UNL     1     -10.315   8.635  66.538  1.00  0.00    -0.166 C  
HETATM   24  C   UNL     1     -10.423   7.531  67.572  1.00  0.00    -0.341 C  
ENDBRANCH  22  23
ENDBRANCH  18  22
BRANCH  21  25
HETATM   25  S   UNL     1     -11.025  15.234  67.811  1.00  0.00    -0.320 S  
HETATM   26  O   UNL     1     -12.116  15.302  68.758  1.00  0.00    -0.273 OA 
HETATM   27  O   UNL     1     -11.128  15.860  66.512  1.00  0.00    -0.192 OA 
BRANCH  25  28
HETATM   28  N   UNL     1      -9.612  15.796  68.591  1.00  0.00    -0.199 N  
HETATM   29  C   UNL     1      -8.367  14.982  68.414  1.00  0.00    -0.154 C  
HETATM   30  C   UNL     1      -7.684  15.234  67.045  1.00  0.00    -0.157 C  
HETATM   31  N   UNL     1      -7.462  16.658  66.698  1.00  0.00    -0.255 NA 
HETATM   32  C   UNL     1      -8.717  17.414  66.909  1.00  0.00    -0.246 C  
HETATM   33  C   UNL     1      -9.316  17.239  68.317  1.00  0.00    -0.272 C  
BRANCH  31  34
HETATM   34  C   UNL     1      -6.307  17.201  67.425  1.00  0.00    -0.148 C  
HETATM   35  C   UNL     1      -5.226  16.168  67.723  1.00  0.00    -0.146 C  
ENDBRANCH  31  34
ENDBRANCH  25  28
ENDBRANCH  21  25
ENDBRANCH  11  16
ENDBRANCH   3   4
ENDBRANCH   2   3
TORSDOF 8
ENDMDL
MODEL      135
REMARK 921   NORMALIZED FREE ENERGY PREDICTED BY IDOCK:   -4.44 KCAL/MOL
REMARK 922        TOTAL FREE ENERGY PREDICTED BY IDOCK:   -7.53 KCAL/MOL
REMARK 923 INTER-LIGAND FREE ENERGY PREDICTED BY IDOCK:   -7.52 KCAL/MOL
REMARK 924 INTRA-LIGAND FREE ENERGY PREDICTED BY IDOCK:   -0.00 KCAL/MOL
REMARK 927      BINDING AFFINITY PREDICTED BY RF-SCORE:    0.00 PKD
ROOT
HETATM    1  C   UNL     1      -8.088   2.018  65.656  1.00  0.00    -0.084 C  
HETATM    2  C   UNL     1      -7.036   2.927  66.279  1.00  0.00    -0.058 C  
ENDROOT
BRANCH   2   3
HETATM    3  C   UNL     1      -7.327   4.419  66.102  1.00  0.00    -0.077 C  
BRANCH   3   4
HETATM    4  C   UNL     1      -8.203   4.978  67.174  1.00  0.00    -0.107 A  
HETATM    5  N   UNL     1      -8.507   4.363  68.301  1.00  0.00    -0.093 NA 
HETATM    6  C   UNL     1      -9.311   5.228  69.002  1.00  0.00    -0.130 A  
HETATM    7  C   UNL     1      -9.504   6.383  68.274  1.00  0.00    -0.121 A  
HETATM    8  C   UNL     1      -9.837   4.869  70.338  1.00  0.00    -0.302 C  
HETATM    9  N   UNL     1      -8.795   6.220  67.132  1.00  0.00    -0.109 NA 
HETATM   10  N   UNL     1      -8.696   7.201  66.183  1.00  0.00    -0.148 NA 
HETATM   11  C   UNL     1      -9.533   8.287  66.411  1.00  0.00    -0.221 C  
HETATM   12  N   UNL     1     -10.245   8.471  67.479  1.00  0.00    -0.224 N  
HETATM   13  O   UNL     1     -10.837   7.788  69.573  1.00  0.00    -0.230 OA 
HETATM   14  H   UNL     1     -10.829   9.305  67.544  1.00  0.00     0.000 HD 
HETATM   15  C   UNL     1     -10.240   7.581  68.526  1.00  0.00    -0.197 C  
BRANCH  11  16
HETATM   16  C   UNL     1      -9.633   9.346  65.332  1.00  0.00    -0.296 A  
HETATM   17  C   UNL     1      -8.991  10.336  63.202  1.00  0.00    -0.249 A  
HETATM   18  C   UNL     1      -8.845   9.313  64.156  1.00  0.00    -0.141 A  
HETATM   19  C   UNL     1     -10.519  10.417  65.537  1.00  0.00    -0.192 A  
HETATM   20  C   UNL     1      -9.879  11.388  63.407  1.00  0.00    -0.422 A  
HETATM   21  C   UNL     1     -10.636  11.426  64.573  1.00  0.00    -0.328 A  
BRANCH  18  22
HETATM   22  O   UNL     1      -7.979   8.264  63.980  1.00  0.00    -0.140 OA 
BRANCH  22  23
HETATM   23  C   UNL     1      -6.622   8.575  63.658  1.00  0.00    -0.084 C  
HETATM   24  C   UNL     1      -5.717   7.488  64.203  1.00  0.00    -0.037 C  
ENDBRANCH  22  23
ENDBRANCH  18  22
BRANCH  21  25
HETATM   25  S   UNL     1     -11.586  12.879  64.929  1.00  0.00    -0.346 S  
HETATM   26  O   UNL     1     -12.980  12.500  64.867  1.00  0.00    -0.821 OA 
HETATM   27  O   UNL     1     -11.066  13.939  64.093  1.00  0.00    -0.295 OA 
BRANCH  25  28
HETATM   28  N   UNL     1     -11.200  13.215  66.560  1.00  0.00    -0.301 N  
HETATM   29  C   UNL     1      -9.748  13.222  66.928  1.00  0.00    -0.248 C  
HETATM   30  C   UNL     1      -9.038  14.536  66.514  1.00  0.00    -0.219 C  
HETATM   31  N   UNL     1      -9.715  15.785  66.934  1.00  0.00    -0.225 NA 
HETATM   32  C   UNL     1     -11.145  15.715  66.560  1.00  0.00    -0.135 C  
HETATM   33  C   UNL     1     -11.861  14.455  67.083  1.00  0.00    -0.410 C  
BRANCH  31  34
HETATM   34  C   UNL     1      -9.481  16.055  68.359  1.00  0.00    -0.207 C  
HETATM   35  C   UNL     1      -9.829  17.479  68.781  1.00  0.00    -0.326 C  
ENDBRANCH  31  34
ENDBRANCH  25  28
ENDBRANCH  21  25
ENDBRANCH  11  16
ENDBRANCH   3   4
ENDBRANCH   2   3
TORSDOF 8
ENDMDL
MODEL      136
REMARK 921   NORMALIZED FREE ENERGY PREDICTED BY IDOCK:   -4.44 KCAL/MOL
REMARK 922        TOTAL FREE ENERGY PREDICTED BY IDOCK:   -7.52 KCAL/MOL
REMARK 923 INTER-LIGAND FREE ENERGY PREDICTED BY IDOCK:   -7.14 KCAL/MOL
REMARK 924 INTRA-LIGAND FREE ENERGY PREDICTED BY IDOCK:   -0.38 KCAL/MOL
REMARK 927      BINDING AFFINITY PREDICTED BY RF-SCORE:    0.00 PKD
ROOT
HETATM    1  C   UNL     1      -8.816  16.422  68.858  1.00  0.00    -0.256 C  
HETATM    2  C   UNL     1      -8.426  17.256  67.644  1.00  0.00    -0.212 C  
ENDROOT
BRANCH   2   3
HETATM    3  C   UNL     1      -8.194  16.430  66.377  1.00  0.00    -0.366 C  
BRANCH   3   4
HETATM    4  C   UNL     1      -9.409  15.688  65.928  1.00  0.00    -0.321 A  
HETATM    5  N   UNL     1     -10.372  16.194  65.181  1.00  0.00    -0.584 NA 
HETATM    6  C   UNL     1     -11.278  15.180  64.989  1.00  0.00    -0.409 A  
HETATM    7  C   UNL     1     -10.854  14.043  65.644  1.00  0.00    -0.295 A  
HETATM    8  C   UNL     1     -12.496  15.387  64.174  1.00  0.00     0.110 C  
HETATM    9  N   UNL     1      -9.674  14.370  66.222  1.00  0.00    -0.299 NA 
HETATM   10  N   UNL     1      -8.918  13.463  66.913  1.00  0.00    -0.228 NA 
HETATM   11  C   UNL     1      -9.556  12.246  67.122  1.00  0.00    -0.200 C  
HETATM   12  N   UNL     1     -10.695  11.901  66.605  1.00  0.00    -0.245 N  
HETATM   13  O   UNL     1     -12.434  12.382  65.211  1.00  0.00    -0.611 OA 
HETATM   14  H   UNL     1     -11.077  10.981  66.826  1.00  0.00     0.000 HD 
HETATM   15  C   UNL     1     -11.404  12.731  65.772  1.00  0.00    -0.320 C  
BRANCH  11  16
HETATM   16  C   UNL     1      -8.881  11.235  68.025  1.00  0.00    -0.148 A  
HETATM   17  C   UNL     1      -7.153  10.549  69.599  1.00  0.00    -0.141 A  
HETATM   18  C   UNL     1      -7.727  11.543  68.787  1.00  0.00    -0.124 A  
HETATM   19  C   UNL     1      -9.406   9.932  68.070  1.00  0.00    -0.140 A  
HETATM   20  C   UNL     1      -7.687   9.264  69.646  1.00  0.00    -0.087 A  
HETATM   21  C   UNL     1      -8.807   8.961  68.881  1.00  0.00    -0.137 A  
BRANCH  18  22
HETATM   22  O   UNL     1      -7.224  12.818  68.720  1.00  0.00    -0.099 OA 
BRANCH  22  23
HETATM   23  C   UNL     1      -5.965  13.064  69.351  1.00  0.00    -0.103 C  
HETATM   24  C   UNL     1      -6.167  14.014  70.515  1.00  0.00    -0.114 C  
ENDBRANCH  22  23
ENDBRANCH  18  22
BRANCH  21  25
HETATM   25  S   UNL     1      -9.336   7.272  68.772  1.00  0.00    -0.142 S  
HETATM   26  O   UNL     1     -10.533   7.150  69.575  1.00  0.00    -0.212 OA 
HETATM   27  O   UNL     1      -8.177   6.449  69.035  1.00  0.00    -0.113 OA 
BRANCH  25  28
HETATM   28  N   UNL     1      -9.781   7.103  67.130  1.00  0.00    -0.154 N  
HETATM   29  C   UNL     1      -8.672   7.083  66.123  1.00  0.00    -0.145 C  
HETATM   30  C   UNL     1      -7.963   5.707  66.050  1.00  0.00    -0.106 C  
HETATM   31  N   UNL     1      -8.859   4.536  65.899  1.00  0.00    -0.119 NA 
HETATM   32  C   UNL     1      -9.941   4.618  66.906  1.00  0.00    -0.211 C  
HETATM   33  C   UNL     1     -10.710   5.952  66.883  1.00  0.00    -0.321 C  
BRANCH  31  34
HETATM   34  C   UNL     1      -9.336   4.415  64.515  1.00  0.00    -0.143 C  
HETATM   35  C   UNL     1     -10.035   3.092  64.219  1.00  0.00    -0.148 C  
ENDBRANCH  31  34
ENDBRANCH  25  28
ENDBRANCH  21  25
ENDBRANCH  11  16
ENDBRANCH   3   4
ENDBRANCH   2   3
TORSDOF 8
ENDMDL
MODEL      137
REMARK 921   NORMALIZED FREE ENERGY PREDICTED BY IDOCK:   -4.41 KCAL/MOL
REMARK 922        TOTAL FREE ENERGY PREDICTED BY IDOCK:   -7.48 KCAL/MOL
REMARK 923 INTER-LIGAND FREE ENERGY PREDICTED BY IDOCK:   -6.52 KCAL/MOL
REMARK 924 INTRA-LIGAND FREE ENERGY PREDICTED BY IDOCK:   -0.95 KCAL/MOL
REMARK 927      BINDING AFFINITY PREDICTED BY RF-SCORE:    0.00 PKD
ROOT
HETATM    1  C   UNL     1     -12.168  12.197  63.466  1.00  0.00    -0.670 C  
HETATM    2  C   UNL     1     -12.660  12.967  64.686  1.00  0.00    -0.459 C  
ENDROOT
BRANCH   2   3
HETATM    3  C   UNL     1     -11.899  12.636  65.972  1.00  0.00    -0.492 C  
BRANCH   3   4
HETATM    4  C   UNL     1     -10.756  13.560  66.233  1.00  0.00    -0.288 A  
HETATM    5  N   UNL     1     -10.632  14.773  65.728  1.00  0.00    -0.309 NA 
HETATM    6  C   UNL     1      -9.459  15.278  66.231  1.00  0.00    -0.309 A  
HETATM    7  C   UNL     1      -8.859  14.343  67.048  1.00  0.00    -0.237 A  
HETATM    8  C   UNL     1      -9.002  16.642  65.884  1.00  0.00    -0.134 C  
HETATM    9  N   UNL     1      -9.687  13.271  67.051  1.00  0.00    -0.232 NA 
HETATM   10  N   UNL     1      -9.448  12.160  67.812  1.00  0.00    -0.186 NA 
HETATM   11  C   UNL     1      -8.201  12.158  68.424  1.00  0.00    -0.145 C  
HETATM   12  N   UNL     1      -7.369  13.154  68.428  1.00  0.00    -0.108 N  
HETATM   13  O   UNL     1      -6.912  15.320  67.881  1.00  0.00    -0.117 OA 
HETATM   14  H   UNL     1      -6.475  13.046  68.908  1.00  0.00     0.000 HD 
HETATM   15  C   UNL     1      -7.650  14.347  67.808  1.00  0.00    -0.164 C  
BRANCH  11  16
HETATM   16  C   UNL     1      -7.764  10.899  69.144  1.00  0.00    -0.127 A  
HETATM   17  C   UNL     1      -6.229   9.624  70.540  1.00  0.00    -0.078 A  
HETATM   18  C   UNL     1      -6.571  10.831  69.905  1.00  0.00    -0.149 A  
HETATM   19  C   UNL     1      -8.562   9.750  69.012  1.00  0.00    -0.146 A  
HETATM   20  C   UNL     1      -7.032   8.493  70.414  1.00  0.00    -0.038 A  
HETATM   21  C   UNL     1      -8.191   8.561  69.649  1.00  0.00    -0.115 A  
BRANCH  18  22
HETATM   22  O   UNL     1      -5.800  11.960  70.012  1.00  0.00    -0.119 OA 
BRANCH  22  23
HETATM   23  C   UNL     1      -5.276  12.282  71.301  1.00  0.00    -0.103 C  
HETATM   24  C   UNL     1      -5.473  13.761  71.567  1.00  0.00    -0.222 C  
ENDBRANCH  22  23
ENDBRANCH  18  22
BRANCH  21  25
HETATM   25  S   UNL     1      -9.077   7.064  69.307  1.00  0.00    -0.136 S  
HETATM   26  O   UNL     1     -10.414   7.233  69.834  1.00  0.00    -0.213 OA 
HETATM   27  O   UNL     1      -8.240   5.968  69.743  1.00  0.00    -0.114 OA 
BRANCH  25  28
HETATM   28  N   UNL     1      -9.179   7.045  67.601  1.00  0.00    -0.121 N  
HETATM   29  C   UNL     1      -8.086   6.335  66.862  1.00  0.00    -0.109 C  
HETATM   30  C   UNL     1      -8.270   4.796  66.867  1.00  0.00    -0.107 C  
HETATM   31  N   UNL     1      -9.610   4.314  66.458  1.00  0.00    -0.185 NA 
HETATM   32  C   UNL     1     -10.647   5.060  67.206  1.00  0.00    -0.002 C  
HETATM   33  C   UNL     1     -10.513   6.590  67.091  1.00  0.00    -0.287 C  
BRANCH  31  34
HETATM   34  C   UNL     1      -9.766   4.373  64.998  1.00  0.00    -0.164 C  
HETATM   35  C   UNL     1      -9.303   3.111  64.278  1.00  0.00    -0.137 C  
ENDBRANCH  31  34
ENDBRANCH  25  28
ENDBRANCH  21  25
ENDBRANCH  11  16
ENDBRANCH   3   4
ENDBRANCH   2   3
TORSDOF 8
ENDMDL
MODEL      138
REMARK 921   NORMALIZED FREE ENERGY PREDICTED BY IDOCK:   -4.40 KCAL/MOL
REMARK 922        TOTAL FREE ENERGY PREDICTED BY IDOCK:   -7.47 KCAL/MOL
REMARK 923 INTER-LIGAND FREE ENERGY PREDICTED BY IDOCK:   -6.70 KCAL/MOL
REMARK 924 INTRA-LIGAND FREE ENERGY PREDICTED BY IDOCK:   -0.77 KCAL/MOL
REMARK 927      BINDING AFFINITY PREDICTED BY RF-SCORE:    0.00 PKD
ROOT
HETATM    1  C   UNL     1     -12.173  13.043  63.310  1.00  0.00    -0.464 C  
HETATM    2  C   UNL     1     -12.179  14.196  64.307  1.00  0.00    -0.449 C  
ENDROOT
BRANCH   2   3
HETATM    3  C   UNL     1     -11.066  14.113  65.354  1.00  0.00    -0.321 C  
BRANCH   3   4
HETATM    4  C   UNL     1     -10.569  15.452  65.789  1.00  0.00    -0.348 A  
HETATM    5  N   UNL     1     -10.995  16.609  65.317  1.00  0.00    -0.382 NA 
HETATM    6  C   UNL     1     -10.297  17.577  65.995  1.00  0.00    -0.306 A  
HETATM    7  C   UNL     1      -9.425  16.989  66.887  1.00  0.00    -0.257 A  
HETATM    8  C   UNL     1     -10.531  19.014  65.729  1.00  0.00    -0.375 C  
HETATM    9  N   UNL     1      -9.611  15.655  66.757  1.00  0.00    -0.231 NA 
HETATM   10  N   UNL     1      -8.956  14.742  67.538  1.00  0.00    -0.180 NA 
HETATM   11  C   UNL     1      -7.959  15.298  68.331  1.00  0.00    -0.131 C  
HETATM   12  N   UNL     1      -7.733  16.568  68.467  1.00  0.00    -0.192 N  
HETATM   13  O   UNL     1      -8.335  18.719  68.009  1.00  0.00    -0.274 OA 
HETATM   14  H   UNL     1      -6.971  16.870  69.075  1.00  0.00     0.000 HD 
HETATM   15  C   UNL     1      -8.483  17.520  67.820  1.00  0.00    -0.225 C  
BRANCH  11  16
HETATM   16  C   UNL     1      -7.055  14.356  69.100  1.00  0.00    -0.127 A  
HETATM   17  C   UNL     1      -5.216  13.881  70.623  1.00  0.00    -0.117 A  
HETATM   18  C   UNL     1      -6.018  14.817  69.946  1.00  0.00    -0.132 A  
HETATM   19  C   UNL     1      -7.239  12.974  68.928  1.00  0.00    -0.047 A  
HETATM   20  C   UNL     1      -5.412  12.513  70.456  1.00  0.00    -0.162 A  
HETATM   21  C   UNL     1      -6.420  12.066  69.608  1.00  0.00    -0.088 A  
BRANCH  18  22
HETATM   22  O   UNL     1      -5.848  16.170  70.092  1.00  0.00    -0.183 OA 
BRANCH  22  23
HETATM   23  C   UNL     1      -5.228  16.632  71.294  1.00  0.00    -0.005 C  
HETATM   24  C   UNL     1      -5.151  18.146  71.266  1.00  0.00    -0.191 C  
ENDBRANCH  22  23
ENDBRANCH  18  22
BRANCH  21  25
HETATM   25  S   UNL     1      -6.510  10.337  69.226  1.00  0.00    -0.054 S  
HETATM   26  O   UNL     1      -5.194   9.783  69.454  1.00  0.00    -0.035 OA 
HETATM   27  O   UNL     1      -7.151  10.224  67.934  1.00  0.00    -0.082 OA 
BRANCH  25  28
HETATM   28  N   UNL     1      -7.560   9.721  70.426  1.00  0.00    -0.165 N  
HETATM   29  C   UNL     1      -8.991   9.512  70.037  1.00  0.00    -0.223 C  
HETATM   30  C   UNL     1      -9.199   8.211  69.219  1.00  0.00    -0.151 C  
HETATM   31  N   UNL     1      -8.608   6.987  69.811  1.00  0.00    -0.140 NA 
HETATM   32  C   UNL     1      -7.204   7.258  70.191  1.00  0.00    -0.074 C  
HETATM   33  C   UNL     1      -7.034   8.490  71.099  1.00  0.00    -0.070 C  
BRANCH  31  34
HETATM   34  C   UNL     1      -9.440   6.483  70.912  1.00  0.00    -0.172 C  
HETATM   35  C   UNL     1     -10.908   6.300  70.541  1.00  0.00    -0.348 C  
ENDBRANCH  31  34
ENDBRANCH  25  28
ENDBRANCH  21  25
ENDBRANCH  11  16
ENDBRANCH   3   4
ENDBRANCH   2   3
TORSDOF 8
ENDMDL
MODEL      139
REMARK 921   NORMALIZED FREE ENERGY PREDICTED BY IDOCK:   -4.36 KCAL/MOL
REMARK 922        TOTAL FREE ENERGY PREDICTED BY IDOCK:   -7.41 KCAL/MOL
REMARK 923 INTER-LIGAND FREE ENERGY PREDICTED BY IDOCK:   -6.44 KCAL/MOL
REMARK 924 INTRA-LIGAND FREE ENERGY PREDICTED BY IDOCK:   -0.96 KCAL/MOL
REMARK 927      BINDING AFFINITY PREDICTED BY RF-SCORE:    0.00 PKD
ROOT
HETATM    1  C   UNL     1      -5.506  15.337  69.908  1.00  0.00    -0.112 C  
HETATM    2  C   UNL     1      -6.220  14.702  68.721  1.00  0.00    -0.087 C  
ENDROOT
BRANCH   2   3
HETATM    3  C   UNL     1      -7.646  14.244  69.030  1.00  0.00    -0.084 C  
BRANCH   3   4
HETATM    4  C   UNL     1      -8.559  14.329  67.852  1.00  0.00    -0.171 A  
HETATM    5  N   UNL     1      -9.019  15.450  67.329  1.00  0.00    -0.190 NA 
HETATM    6  C   UNL     1      -9.799  15.081  66.261  1.00  0.00    -0.285 A  
HETATM    7  C   UNL     1      -9.817  13.707  66.147  1.00  0.00    -0.293 A  
HETATM    8  C   UNL     1     -10.473  16.096  65.420  1.00  0.00    -0.396 C  
HETATM    9  N   UNL     1      -9.027  13.245  67.144  1.00  0.00    -0.221 NA 
HETATM   10  N   UNL     1      -8.752  11.914  67.307  1.00  0.00    -0.164 NA 
HETATM   11  C   UNL     1      -9.501  11.083  66.483  1.00  0.00    -0.187 C  
HETATM   12  N   UNL     1     -10.286  11.485  65.531  1.00  0.00    -0.247 N  
HETATM   13  O   UNL     1     -11.125  13.199  64.284  1.00  0.00    -0.362 OA 
HETATM   14  H   UNL     1     -10.793  10.788  64.984  1.00  0.00     0.000 HD 
HETATM   15  C   UNL     1     -10.458  12.814  65.234  1.00  0.00    -0.292 C  
BRANCH  11  16
HETATM   16  C   UNL     1      -9.406   9.587  66.705  1.00  0.00    -0.196 A  
HETATM   17  C   UNL     1      -8.829   7.327  66.008  1.00  0.00    -0.161 A  
HETATM   18  C   UNL     1      -8.880   8.704  65.731  1.00  0.00    -0.193 A  
HETATM   19  C   UNL     1      -9.898   9.065  67.913  1.00  0.00    -0.207 A  
HETATM   20  C   UNL     1      -9.308   6.818  67.213  1.00  0.00    -0.148 A  
HETATM   21  C   UNL     1      -9.842   7.688  68.157  1.00  0.00    -0.164 A  
BRANCH  18  22
HETATM   22  O   UNL     1      -8.415   9.233  64.554  1.00  0.00    -0.161 OA 
BRANCH  22  23
HETATM   23  C   UNL     1      -7.094   9.778  64.552  1.00  0.00    -0.128 C  
HETATM   24  C   UNL     1      -6.089   8.654  64.715  1.00  0.00    -0.064 C  
ENDBRANCH  22  23
ENDBRANCH  18  22
BRANCH  21  25
HETATM   25  S   UNL     1     -10.655   7.011  69.579  1.00  0.00    -0.242 S  
HETATM   26  O   UNL     1     -11.542   5.971  69.106  1.00  0.00    -0.193 OA 
HETATM   27  O   UNL     1     -11.161   8.126  70.348  1.00  0.00    -0.264 OA 
BRANCH  25  28
HETATM   28  N   UNL     1      -9.383   6.267  70.445  1.00  0.00    -0.161 N  
HETATM   29  C   UNL     1      -8.670   7.106  71.461  1.00  0.00    -0.119 C  
HETATM   30  C   UNL     1      -9.465   7.235  72.786  1.00  0.00    -0.152 C  
HETATM   31  N   UNL     1      -9.944   5.959  73.368  1.00  0.00    -0.167 NA 
HETATM   32  C   UNL     1     -10.622   5.168  72.318  1.00  0.00    -0.218 C  
HETATM   33  C   UNL     1      -9.768   4.953  71.054  1.00  0.00    -0.185 C  
BRANCH  31  34
HETATM   34  C   UNL     1      -8.850   5.247  74.041  1.00  0.00    -0.117 C  
HETATM   35  C   UNL     1      -9.235   3.859  74.542  1.00  0.00    -0.115 C  
ENDBRANCH  31  34
ENDBRANCH  25  28
ENDBRANCH  21  25
ENDBRANCH  11  16
ENDBRANCH   3   4
ENDBRANCH   2   3
TORSDOF 8
ENDMDL
MODEL      140
REMARK 921   NORMALIZED FREE ENERGY PREDICTED BY IDOCK:   -4.35 KCAL/MOL
REMARK 922        TOTAL FREE ENERGY PREDICTED BY IDOCK:   -7.40 KCAL/MOL
REMARK 923 INTER-LIGAND FREE ENERGY PREDICTED BY IDOCK:   -7.19 KCAL/MOL
REMARK 924 INTRA-LIGAND FREE ENERGY PREDICTED BY IDOCK:   -0.21 KCAL/MOL
REMARK 927      BINDING AFFINITY PREDICTED BY RF-SCORE:    0.00 PKD
ROOT
HETATM    1  C   UNL     1      -7.045   8.820  69.492  1.00  0.00    -0.055 C  
HETATM    2  C   UNL     1      -6.631   8.953  68.031  1.00  0.00    -0.061 C  
ENDROOT
BRANCH   2   3
HETATM    3  C   UNL     1      -7.328   7.961  67.098  1.00  0.00    -0.091 C  
BRANCH   3   4
HETATM    4  C   UNL     1      -8.067   8.623  65.983  1.00  0.00    -0.109 A  
HETATM    5  N   UNL     1      -7.888   8.369  64.700  1.00  0.00    -0.119 NA 
HETATM    6  C   UNL     1      -8.772   9.175  64.025  1.00  0.00    -0.137 A  
HETATM    7  C   UNL     1      -9.490   9.937  64.923  1.00  0.00    -0.291 A  
HETATM    8  C   UNL     1      -8.860   9.144  62.548  1.00  0.00    -0.190 C  
HETATM    9  N   UNL     1      -9.047   9.575  66.150  1.00  0.00    -0.156 NA 
HETATM   10  N   UNL     1      -9.581  10.082  67.303  1.00  0.00    -0.153 NA 
HETATM   11  C   UNL     1     -10.476  11.125  67.094  1.00  0.00    -0.231 C  
HETATM   12  N   UNL     1     -10.909  11.517  65.936  1.00  0.00    -0.275 N  
HETATM   13  O   UNL     1     -10.985  11.223  63.676  1.00  0.00    -0.385 OA 
HETATM   14  H   UNL     1     -11.566  12.297  65.895  1.00  0.00     0.000 HD 
HETATM   15  C   UNL     1     -10.515  10.919  64.764  1.00  0.00    -0.303 C  
BRANCH  11  16
HETATM   16  C   UNL     1     -10.990  11.874  68.307  1.00  0.00    -0.273 A  
HETATM   17  C   UNL     1     -12.090  11.988  70.476  1.00  0.00    -0.402 A  
HETATM   18  C   UNL     1     -11.635  11.224  69.387  1.00  0.00    -0.321 A  
HETATM   19  C   UNL     1     -10.852  13.272  68.329  1.00  0.00    -0.276 A  
HETATM   20  C   UNL     1     -11.938  13.372  70.495  1.00  0.00    -0.332 A  
HETATM   21  C   UNL     1     -11.323  14.007  69.422  1.00  0.00    -0.268 A  
BRANCH  18  22
HETATM   22  O   UNL     1     -11.770   9.860  69.341  1.00  0.00    -0.042 OA 
BRANCH  22  23
HETATM   23  C   UNL     1     -11.861   9.163  70.585  1.00  0.00    -0.175 C  
HETATM   24  C   UNL     1     -10.493   9.120  71.236  1.00  0.00    -0.398 C  
ENDBRANCH  22  23
ENDBRANCH  18  22
BRANCH  21  25
HETATM   25  S   UNL     1     -11.342  15.778  69.352  1.00  0.00    -0.374 S  
HETATM   26  O   UNL     1     -10.663  16.257  70.535  1.00  0.00    -0.208 OA 
HETATM   27  O   UNL     1     -12.703  16.175  69.064  1.00  0.00     0.414 OA 
BRANCH  25  28
HETATM   28  N   UNL     1     -10.360  16.131  67.998  1.00  0.00    -0.263 N  
HETATM   29  C   UNL     1     -10.491  17.498  67.400  1.00  0.00    -0.342 C  
HETATM   30  C   UNL     1      -9.723  18.575  68.209  1.00  0.00    -0.356 C  
HETATM   31  N   UNL     1      -8.312  18.248  68.524  1.00  0.00    -0.313 NA 
HETATM   32  C   UNL     1      -8.243  16.884  69.094  1.00  0.00    -0.066 C  
HETATM   33  C   UNL     1      -8.912  15.810  68.216  1.00  0.00    -0.182 C  
BRANCH  31  34
HETATM   34  C   UNL     1      -7.452  18.451  67.351  1.00  0.00    -0.218 C  
HETATM   35  C   UNL     1      -6.799  19.828  67.296  1.00  0.00    -0.238 C  
ENDBRANCH  31  34
ENDBRANCH  25  28
ENDBRANCH  21  25
ENDBRANCH  11  16
ENDBRANCH   3   4
ENDBRANCH   2   3
TORSDOF 8
ENDMDL
MODEL      141
REMARK 921   NORMALIZED FREE ENERGY PREDICTED BY IDOCK:   -4.23 KCAL/MOL
REMARK 922        TOTAL FREE ENERGY PREDICTED BY IDOCK:   -7.22 KCAL/MOL
REMARK 923 INTER-LIGAND FREE ENERGY PREDICTED BY IDOCK:   -7.99 KCAL/MOL
REMARK 924 INTRA-LIGAND FREE ENERGY PREDICTED BY IDOCK:    0.77 KCAL/MOL
REMARK 927      BINDING AFFINITY PREDICTED BY RF-SCORE:    0.00 PKD
ROOT
HETATM    1  C   UNL     1     -10.554   7.471  67.450  1.00  0.00    -0.364 C  
HETATM    2  C   UNL     1     -10.829   8.412  68.616  1.00  0.00     0.027 C  
ENDROOT
BRANCH   2   3
HETATM    3  C   UNL     1     -10.711   9.894  68.254  1.00  0.00    -0.276 C  
BRANCH   3   4
HETATM    4  C   UNL     1     -11.427  10.791  69.210  1.00  0.00    -0.298 A  
HETATM    5  N   UNL     1     -11.925  10.415  70.373  1.00  0.00    -0.297 NA 
HETATM    6  C   UNL     1     -12.475  11.541  70.934  1.00  0.00    -0.366 A  
HETATM    7  C   UNL     1     -12.314  12.614  70.084  1.00  0.00    -0.152 A  
HETATM    8  C   UNL     1     -13.120  11.494  72.265  1.00  0.00    -0.048 C  
HETATM    9  N   UNL     1     -11.645  12.135  69.009  1.00  0.00    -0.296 NA 
HETATM   10  N   UNL     1     -11.246  12.936  67.974  1.00  0.00    -0.252 NA 
HETATM   11  C   UNL     1     -11.750  14.229  68.041  1.00  0.00    -0.351 C  
HETATM   12  N   UNL     1     -12.414  14.722  69.042  1.00  0.00    -0.578 N  
HETATM   13  O   UNL     1     -13.237  14.470  71.153  1.00  0.00    -0.346 OA 
HETATM   14  H   UNL     1     -12.741  15.687  68.987  1.00  0.00     0.000 HD 
HETATM   15  C   UNL     1     -12.690  13.990  70.170  1.00  0.00    -0.150 C  
BRANCH  11  16
HETATM   16  C   UNL     1     -11.517  15.146  66.858  1.00  0.00    -0.215 A  
HETATM   17  C   UNL     1     -11.384  15.612  64.472  1.00  0.00    -0.327 A  
HETATM   18  C   UNL     1     -11.621  14.703  65.517  1.00  0.00    -0.335 A  
HETATM   19  C   UNL     1     -11.144  16.476  67.115  1.00  0.00     0.066 A  
HETATM   20  C   UNL     1     -11.026  16.931  64.735  1.00  0.00     0.079 A  
HETATM   21  C   UNL     1     -10.905  17.356  66.053  1.00  0.00     0.016 A  
BRANCH  18  22
HETATM   22  O   UNL     1     -11.975  13.397  65.288  1.00  0.00    -0.343 OA 
BRANCH  22  23
HETATM   23  C   UNL     1     -13.135  13.158  64.488  1.00  0.00     0.220 C  
HETATM   24  C   UNL     1     -12.801  12.141  63.415  1.00  0.00    -0.406 C  
ENDBRANCH  22  23
ENDBRANCH  18  22
BRANCH  21  25
HETATM   25  S   UNL     1     -10.229  18.964  66.374  1.00  0.00    -0.448 S  
HETATM   26  O   UNL     1     -10.612  19.323  67.721  1.00  0.00    -0.419 OA 
HETATM   27  O   UNL     1     -10.584  19.803  65.251  1.00  0.00    -0.368 OA 
BRANCH  25  28
HETATM   28  N   UNL     1      -8.541  18.693  66.357  1.00  0.00    -0.291 N  
HETATM   29  C   UNL     1      -7.733  19.365  67.425  1.00  0.00    -0.252 C  
HETATM   30  C   UNL     1      -7.815  18.624  68.784  1.00  0.00    -0.289 C  
HETATM   31  N   UNL     1      -7.550  17.167  68.732  1.00  0.00    -0.254 NA 
HETATM   32  C   UNL     1      -8.360  16.561  67.651  1.00  0.00    -0.165 C  
HETATM   33  C   UNL     1      -8.174  17.242  66.282  1.00  0.00    -0.267 C  
BRANCH  31  34
HETATM   34  C   UNL     1      -6.109  16.900  68.621  1.00  0.00    -0.148 C  
HETATM   35  C   UNL     1      -5.762  15.417  68.551  1.00  0.00    -0.097 C  
ENDBRANCH  31  34
ENDBRANCH  25  28
ENDBRANCH  21  25
ENDBRANCH  11  16
ENDBRANCH   3   4
ENDBRANCH   2   3
TORSDOF 8
ENDMDL
MODEL      142
REMARK 921   NORMALIZED FREE ENERGY PREDICTED BY IDOCK:   -4.23 KCAL/MOL
REMARK 922        TOTAL FREE ENERGY PREDICTED BY IDOCK:   -7.21 KCAL/MOL
REMARK 923 INTER-LIGAND FREE ENERGY PREDICTED BY IDOCK:   -7.99 KCAL/MOL
REMARK 924 INTRA-LIGAND FREE ENERGY PREDICTED BY IDOCK:    0.78 KCAL/MOL
REMARK 927      BINDING AFFINITY PREDICTED BY RF-SCORE:    0.00 PKD
ROOT
HETATM    1  C   UNL     1     -10.382  20.092  65.851  1.00  0.00    -0.529 C  
HETATM    2  C   UNL     1     -10.575  18.651  66.307  1.00  0.00    -0.396 C  
ENDROOT
BRANCH   2   3
HETATM    3  C   UNL     1     -10.511  18.470  67.825  1.00  0.00    -0.443 C  
BRANCH   3   4
HETATM    4  C   UNL     1      -9.197  17.939  68.298  1.00  0.00    -0.282 A  
HETATM    5  N   UNL     1      -8.153  18.679  68.619  1.00  0.00    -0.333 NA 
HETATM    6  C   UNL     1      -7.172  17.802  69.014  1.00  0.00    -0.207 A  
HETATM    7  C   UNL     1      -7.635  16.507  68.918  1.00  0.00    -0.238 A  
HETATM    8  C   UNL     1      -5.849  18.289  69.463  1.00  0.00    -0.246 C  
HETATM    9  N   UNL     1      -8.911  16.604  68.477  1.00  0.00    -0.226 NA 
HETATM   10  N   UNL     1      -9.721  15.512  68.322  1.00  0.00    -0.200 NA 
HETATM   11  C   UNL     1      -9.059  14.299  68.474  1.00  0.00    -0.191 C  
HETATM   12  N   UNL     1      -7.832  14.162  68.873  1.00  0.00    -0.258 N  
HETATM   13  O   UNL     1      -5.915  15.116  69.656  1.00  0.00    -0.105 OA 
HETATM   14  H   UNL     1      -7.441  13.223  68.949  1.00  0.00     0.000 HD 
HETATM   15  C   UNL     1      -7.041  15.238  69.196  1.00  0.00    -0.155 C  
BRANCH  11  16
HETATM   16  C   UNL     1      -9.818  13.029  68.149  1.00  0.00    -0.228 A  
HETATM   17  C   UNL     1     -11.748  11.819  67.288  1.00  0.00    -0.293 A  
HETATM   18  C   UNL     1     -11.103  13.040  67.554  1.00  0.00    -0.268 A  
HETATM   19  C   UNL     1      -9.230  11.800  68.493  1.00  0.00    -0.152 A  
HETATM   20  C   UNL     1     -11.153  10.605  67.621  1.00  0.00    -0.385 A  
HETATM   21  C   UNL     1      -9.900  10.602  68.224  1.00  0.00    -0.163 A  
BRANCH  18  22
HETATM   22  O   UNL     1     -11.664  14.251  67.237  1.00  0.00    -0.356 OA 
BRANCH  22  23
HETATM   23  C   UNL     1     -12.192  14.408  65.918  1.00  0.00    -0.341 C  
HETATM   24  C   UNL     1     -11.112  14.964  65.011  1.00  0.00    -0.422 C  
ENDBRANCH  22  23
ENDBRANCH  18  22
BRANCH  21  25
HETATM   25  S   UNL     1      -9.258   9.072  68.850  1.00  0.00    -0.140 S  
HETATM   26  O   UNL     1     -10.393   8.242  69.187  1.00  0.00    -0.212 OA 
HETATM   27  O   UNL     1      -8.262   9.408  69.844  1.00  0.00    -0.114 OA 
BRANCH  25  28
HETATM   28  N   UNL     1      -8.481   8.384  67.492  1.00  0.00    -0.128 N  
HETATM   29  C   UNL     1      -9.194   8.482  66.178  1.00  0.00    -0.211 C  
HETATM   30  C   UNL     1      -9.044   9.880  65.526  1.00  0.00    -0.189 C  
HETATM   31  N   UNL     1      -7.658  10.396  65.437  1.00  0.00    -0.145 NA 
HETATM   32  C   UNL     1      -7.000  10.258  66.755  1.00  0.00    -0.093 C  
HETATM   33  C   UNL     1      -7.060   8.831  67.332  1.00  0.00    -0.079 C  
BRANCH  31  34
HETATM   34  C   UNL     1      -6.929   9.753  64.334  1.00  0.00    -0.126 C  
HETATM   35  C   UNL     1      -5.580  10.396  64.031  1.00  0.00    -0.143 C  
ENDBRANCH  31  34
ENDBRANCH  25  28
ENDBRANCH  21  25
ENDBRANCH  11  16
ENDBRANCH   3   4
ENDBRANCH   2   3
TORSDOF 8
ENDMDL
MODEL      143
REMARK 921   NORMALIZED FREE ENERGY PREDICTED BY IDOCK:   -4.21 KCAL/MOL
REMARK 922        TOTAL FREE ENERGY PREDICTED BY IDOCK:   -7.19 KCAL/MOL
REMARK 923 INTER-LIGAND FREE ENERGY PREDICTED BY IDOCK:   -6.56 KCAL/MOL
REMARK 924 INTRA-LIGAND FREE ENERGY PREDICTED BY IDOCK:   -0.63 KCAL/MOL
REMARK 927      BINDING AFFINITY PREDICTED BY RF-SCORE:    0.00 PKD
ROOT
HETATM    1  C   UNL     1     -12.117  12.023  64.158  1.00  0.00    -0.458 C  
HETATM    2  C   UNL     1     -11.326  12.286  65.434  1.00  0.00    -0.389 C  
ENDROOT
BRANCH   2   3
HETATM    3  C   UNL     1     -10.827  11.014  66.123  1.00  0.00    -0.212 C  
BRANCH   3   4
HETATM    4  C   UNL     1      -9.535  11.207  66.847  1.00  0.00    -0.185 A  
HETATM    5  N   UNL     1      -8.518  11.923  66.404  1.00  0.00    -0.100 NA 
HETATM    6  C   UNL     1      -7.551  11.852  67.376  1.00  0.00    -0.151 A  
HETATM    7  C   UNL     1      -7.992  11.068  68.420  1.00  0.00    -0.131 A  
HETATM    8  C   UNL     1      -6.260  12.558  67.221  1.00  0.00    -0.124 C  
HETATM    9  N   UNL     1      -9.244  10.676  68.083  1.00  0.00    -0.144 NA 
HETATM   10  N   UNL     1     -10.030   9.929  68.917  1.00  0.00    -0.173 NA 
HETATM   11  C   UNL     1      -9.363   9.459  70.043  1.00  0.00    -0.226 C  
HETATM   12  N   UNL     1      -8.158   9.792  70.391  1.00  0.00    -0.237 N  
HETATM   13  O   UNL     1      -6.298  11.058  70.024  1.00  0.00    -0.121 OA 
HETATM   14  H   UNL     1      -7.762   9.385  71.238  1.00  0.00     0.000 HD 
HETATM   15  C   UNL     1      -7.399  10.671  69.658  1.00  0.00    -0.130 C  
BRANCH  11  16
HETATM   16  C   UNL     1     -10.089   8.478  70.941  1.00  0.00    -0.246 A  
HETATM   17  C   UNL     1     -11.834   7.877  72.528  1.00  0.00    -0.390 A  
HETATM   18  C   UNL     1     -11.218   8.842  71.713  1.00  0.00    -0.362 A  
HETATM   19  C   UNL     1      -9.587   7.169  71.032  1.00  0.00    -0.158 A  
HETATM   20  C   UNL     1     -11.338   6.578  72.603  1.00  0.00    -0.259 A  
HETATM   21  C   UNL     1     -10.216   6.231  71.858  1.00  0.00    -0.201 A  
BRANCH  18  22
HETATM   22  O   UNL     1     -11.685  10.129  71.618  1.00  0.00    -0.307 OA 
BRANCH  22  23
HETATM   23  C   UNL     1     -13.101  10.319  71.628  1.00  0.00    -0.449 C  
HETATM   24  C   UNL     1     -13.409  11.768  71.951  1.00  0.00    -0.401 C  
ENDBRANCH  22  23
ENDBRANCH  18  22
BRANCH  21  25
HETATM   25  S   UNL     1      -9.460   4.652  72.137  1.00  0.00    -0.144 S  
HETATM   26  O   UNL     1     -10.094   4.078  73.303  1.00  0.00    -0.128 OA 
HETATM   27  O   UNL     1      -8.029   4.856  72.095  1.00  0.00    -0.105 OA 
BRANCH  25  28
HETATM   28  N   UNL     1      -9.934   3.740  70.772  1.00  0.00    -0.099 N  
HETATM   29  C   UNL     1      -9.413   4.186  69.440  1.00  0.00    -0.190 C  
HETATM   30  C   UNL     1      -7.948   3.742  69.199  1.00  0.00    -0.055 C  
HETATM   31  N   UNL     1      -7.668   2.308  69.442  1.00  0.00    -0.043 NA 
HETATM   32  C   UNL     1      -8.219   1.921  70.760  1.00  0.00    -0.048 C  
HETATM   33  C   UNL     1      -9.710   2.267  70.935  1.00  0.00    -0.060 C  
BRANCH  31  34
HETATM   34  C   UNL     1      -8.150   1.482  68.327  1.00  0.00    -0.056 C  
HETATM   35  C   UNL     1      -8.112   2.189  66.976  1.00  0.00    -0.076 C  
ENDBRANCH  31  34
ENDBRANCH  25  28
ENDBRANCH  21  25
ENDBRANCH  11  16
ENDBRANCH   3   4
ENDBRANCH   2   3
TORSDOF 8
ENDMDL
MODEL      144
REMARK 921   NORMALIZED FREE ENERGY PREDICTED BY IDOCK:   -4.21 KCAL/MOL
REMARK 922        TOTAL FREE ENERGY PREDICTED BY IDOCK:   -7.19 KCAL/MOL
REMARK 923 INTER-LIGAND FREE ENERGY PREDICTED BY IDOCK:   -6.76 KCAL/MOL
REMARK 924 INTRA-LIGAND FREE ENERGY PREDICTED BY IDOCK:   -0.43 KCAL/MOL
REMARK 927      BINDING AFFINITY PREDICTED BY RF-SCORE:    0.00 PKD
ROOT
HETATM    1  C   UNL     1      -7.162   8.194  63.141  1.00  0.00    -0.091 C  
HETATM    2  C   UNL     1      -7.260   8.521  64.626  1.00  0.00    -0.086 C  
ENDROOT
BRANCH   2   3
HETATM    3  C   UNL     1      -6.377   7.641  65.513  1.00  0.00    -0.042 C  
BRANCH   3   4
HETATM    4  C   UNL     1      -7.102   6.465  66.080  1.00  0.00    -0.067 A  
HETATM    5  N   UNL     1      -6.917   5.211  65.710  1.00  0.00    -0.065 NA 
HETATM    6  C   UNL     1      -7.761   4.457  66.487  1.00  0.00    -0.094 A  
HETATM    7  C   UNL     1      -8.477   5.277  67.334  1.00  0.00    -0.106 A  
HETATM    8  C   UNL     1      -7.811   2.984  66.353  1.00  0.00    -0.077 C  
HETATM    9  N   UNL     1      -8.048   6.535  67.077  1.00  0.00    -0.112 NA 
HETATM   10  N   UNL     1      -8.493   7.621  67.780  1.00  0.00    -0.121 NA 
HETATM   11  C   UNL     1      -9.549   7.338  68.638  1.00  0.00    -0.141 C  
HETATM   12  N   UNL     1     -10.005   6.151  68.895  1.00  0.00    -0.145 N  
HETATM   13  O   UNL     1      -9.834   3.892  68.631  1.00  0.00    -0.098 OA 
HETATM   14  H   UNL     1     -10.789   6.054  69.541  1.00  0.00     0.000 HD 
HETATM   15  C   UNL     1      -9.470   5.020  68.328  1.00  0.00    -0.133 C  
BRANCH  11  16
HETATM   16  C   UNL     1     -10.234   8.498  69.330  1.00  0.00    -0.211 A  
HETATM   17  C   UNL     1     -11.469   9.495  71.177  1.00  0.00    -0.430 A  
HETATM   18  C   UNL     1     -10.848   8.374  70.600  1.00  0.00    -0.231 A  
HETATM   19  C   UNL     1     -10.288   9.731  68.658  1.00  0.00    -0.224 A  
HETATM   20  C   UNL     1     -11.508  10.716  70.509  1.00  0.00    -0.407 A  
HETATM   21  C   UNL     1     -10.921  10.828  69.254  1.00  0.00    -0.241 A  
BRANCH  18  22
HETATM   22  O   UNL     1     -10.793   7.158  71.234  1.00  0.00    -0.230 OA 
BRANCH  22  23
HETATM   23  C   UNL     1     -11.412   7.055  72.518  1.00  0.00    -0.237 C  
HETATM   24  C   UNL     1     -11.404   5.605  72.962  1.00  0.00    -0.288 C  
ENDBRANCH  22  23
ENDBRANCH  18  22
BRANCH  21  25
HETATM   25  S   UNL     1     -11.178  12.313  68.319  1.00  0.00    -0.292 S  
HETATM   26  O   UNL     1      -9.879  12.917  68.119  1.00  0.00    -0.217 OA 
HETATM   27  O   UNL     1     -12.244  13.042  68.969  1.00  0.00    -0.227 OA 
BRANCH  25  28
HETATM   28  N   UNL     1     -11.733  11.738  66.808  1.00  0.00    -0.222 N  
HETATM   29  C   UNL     1     -12.249  12.758  65.840  1.00  0.00    -0.359 C  
HETATM   30  C   UNL     1     -11.108  13.511  65.109  1.00  0.00    -0.316 C  
HETATM   31  N   UNL     1     -10.069  12.651  64.495  1.00  0.00    -0.281 NA 
HETATM   32  C   UNL     1      -9.611  11.655  65.489  1.00  0.00    -0.218 C  
HETATM   33  C   UNL     1     -10.754  10.837  66.119  1.00  0.00    -0.118 C  
BRANCH  31  34
HETATM   34  C   UNL     1     -10.550  12.063  63.237  1.00  0.00    -0.348 C  
HETATM   35  C   UNL     1      -9.580  11.064  62.615  1.00  0.00    -0.285 C  
ENDBRANCH  31  34
ENDBRANCH  25  28
ENDBRANCH  21  25
ENDBRANCH  11  16
ENDBRANCH   3   4
ENDBRANCH   2   3
TORSDOF 8
ENDMDL
MODEL      145
REMARK 921   NORMALIZED FREE ENERGY PREDICTED BY IDOCK:   -4.21 KCAL/MOL
REMARK 922        TOTAL FREE ENERGY PREDICTED BY IDOCK:   -7.18 KCAL/MOL
REMARK 923 INTER-LIGAND FREE ENERGY PREDICTED BY IDOCK:   -7.17 KCAL/MOL
REMARK 924 INTRA-LIGAND FREE ENERGY PREDICTED BY IDOCK:   -0.01 KCAL/MOL
REMARK 927      BINDING AFFINITY PREDICTED BY RF-SCORE:    0.00 PKD
ROOT
HETATM    1  C   UNL     1     -12.312  13.675  64.085  1.00  0.00    -0.385 C  
HETATM    2  C   UNL     1     -12.098  12.488  65.016  1.00  0.00    -0.504 C  
ENDROOT
BRANCH   2   3
HETATM    3  C   UNL     1     -11.990  12.874  66.493  1.00  0.00    -0.447 C  
BRANCH   3   4
HETATM    4  C   UNL     1     -10.584  12.894  66.994  1.00  0.00    -0.252 A  
HETATM    5  N   UNL     1      -9.730  13.884  66.815  1.00  0.00    -0.270 NA 
HETATM    6  C   UNL     1      -8.570  13.506  67.445  1.00  0.00    -0.208 A  
HETATM    7  C   UNL     1      -8.728  12.255  68.005  1.00  0.00    -0.181 A  
HETATM    8  C   UNL     1      -7.385  14.392  67.461  1.00  0.00    -0.208 C  
HETATM    9  N   UNL     1      -9.999  11.884  67.725  1.00  0.00    -0.182 NA 
HETATM   10  N   UNL     1     -10.541  10.714  68.181  1.00  0.00    -0.187 NA 
HETATM   11  C   UNL     1      -9.618   9.870  68.789  1.00  0.00    -0.160 C  
HETATM   12  N   UNL     1      -8.387  10.177  69.056  1.00  0.00    -0.127 N  
HETATM   13  O   UNL     1      -6.725  11.739  69.082  1.00  0.00    -0.095 OA 
HETATM   14  H   UNL     1      -7.791   9.480  69.503  1.00  0.00     0.000 HD 
HETATM   15  C   UNL     1      -7.856  11.408  68.756  1.00  0.00    -0.128 C  
BRANCH  11  16
HETATM   16  C   UNL     1     -10.074   8.476  69.171  1.00  0.00    -0.207 A  
HETATM   17  C   UNL     1     -10.788   6.210  68.641  1.00  0.00    -0.403 A  
HETATM   18  C   UNL     1     -10.365   7.479  68.209  1.00  0.00    -0.195 A  
HETATM   19  C   UNL     1     -10.247   8.188  70.535  1.00  0.00    -0.207 A  
HETATM   20  C   UNL     1     -10.947   5.928  69.995  1.00  0.00    -0.430 A  
HETATM   21  C   UNL     1     -10.679   6.918  70.935  1.00  0.00    -0.230 A  
BRANCH  18  22
HETATM   22  O   UNL     1     -10.200   7.785  66.882  1.00  0.00    -0.260 OA 
BRANCH  22  23
HETATM   23  C   UNL     1      -9.325   6.953  66.117  1.00  0.00    -0.042 C  
HETATM   24  C   UNL     1      -7.923   7.528  66.161  1.00  0.00    -0.111 C  
ENDBRANCH  22  23
ENDBRANCH  18  22
BRANCH  21  25
HETATM   25  S   UNL     1     -11.103   6.624  72.631  1.00  0.00    -0.246 S  
HETATM   26  O   UNL     1     -12.098   5.574  72.643  1.00  0.00    -0.199 OA 
HETATM   27  O   UNL     1     -11.374   7.913  73.228  1.00  0.00    -0.312 OA 
BRANCH  25  28
HETATM   28  N   UNL     1      -9.660   5.993  73.295  1.00  0.00    -0.143 N  
HETATM   29  C   UNL     1      -8.569   5.631  72.335  1.00  0.00    -0.121 C  
HETATM   30  C   UNL     1      -7.775   6.870  71.846  1.00  0.00    -0.094 C  
HETATM   31  N   UNL     1      -7.287   7.775  72.913  1.00  0.00    -0.082 NA 
HETATM   32  C   UNL     1      -8.400   8.083  73.839  1.00  0.00    -0.260 C  
HETATM   33  C   UNL     1      -9.100   6.833  74.404  1.00  0.00    -0.203 C  
BRANCH  31  34
HETATM   34  C   UNL     1      -6.098   7.216  73.571  1.00  0.00    -0.057 C  
HETATM   35  C   UNL     1      -5.479   6.038  72.827  1.00  0.00    -0.031 C  
ENDBRANCH  31  34
ENDBRANCH  25  28
ENDBRANCH  21  25
ENDBRANCH  11  16
ENDBRANCH   3   4
ENDBRANCH   2   3
TORSDOF 8
ENDMDL
MODEL      146
REMARK 921   NORMALIZED FREE ENERGY PREDICTED BY IDOCK:   -4.18 KCAL/MOL
REMARK 922        TOTAL FREE ENERGY PREDICTED BY IDOCK:   -7.15 KCAL/MOL
REMARK 923 INTER-LIGAND FREE ENERGY PREDICTED BY IDOCK:   -6.35 KCAL/MOL
REMARK 924 INTRA-LIGAND FREE ENERGY PREDICTED BY IDOCK:   -0.79 KCAL/MOL
REMARK 927      BINDING AFFINITY PREDICTED BY RF-SCORE:    0.00 PKD
ROOT
HETATM    1  C   UNL     1     -11.536  15.958  68.460  1.00  0.00    -0.351 C  
HETATM    2  C   UNL     1     -11.149  15.335  67.124  1.00  0.00    -0.323 C  
ENDROOT
BRANCH   2   3
HETATM    3  C   UNL     1     -10.882  13.830  67.198  1.00  0.00    -0.288 C  
BRANCH   3   4
HETATM    4  C   UNL     1      -9.497  13.502  67.650  1.00  0.00    -0.222 A  
HETATM    5  N   UNL     1      -8.475  14.337  67.628  1.00  0.00    -0.167 NA 
HETATM    6  C   UNL     1      -7.406  13.645  68.142  1.00  0.00    -0.121 A  
HETATM    7  C   UNL     1      -7.792  12.362  68.469  1.00  0.00    -0.112 A  
HETATM    8  C   UNL     1      -6.079  14.284  68.282  1.00  0.00    -0.119 C  
HETATM    9  N   UNL     1      -9.109  12.286  68.166  1.00  0.00    -0.193 NA 
HETATM   10  N   UNL     1      -9.858  11.169  68.419  1.00  0.00    -0.179 NA 
HETATM   11  C   UNL     1      -9.108  10.075  68.832  1.00  0.00    -0.159 C  
HETATM   12  N   UNL     1      -7.841  10.099  69.112  1.00  0.00    -0.108 N  
HETATM   13  O   UNL     1      -5.921  11.301  69.371  1.00  0.00    -0.052 OA 
HETATM   14  H   UNL     1      -7.386   9.235  69.406  1.00  0.00     0.000 HD 
HETATM   15  C   UNL     1      -7.093  11.248  69.025  1.00  0.00    -0.116 C  
BRANCH  11  16
HETATM   16  C   UNL     1      -9.813   8.740  68.968  1.00  0.00    -0.183 A  
HETATM   17  C   UNL     1     -11.271   7.168  70.122  1.00  0.00    -0.295 A  
HETATM   18  C   UNL     1     -10.656   8.431  70.063  1.00  0.00    -0.235 A  
HETATM   19  C   UNL     1      -9.580   7.766  67.983  1.00  0.00    -0.166 A  
HETATM   20  C   UNL     1     -11.044   6.212  69.135  1.00  0.00    -0.448 A  
HETATM   21  C   UNL     1     -10.199   6.514  68.073  1.00  0.00    -0.164 A  
BRANCH  18  22
HETATM   22  O   UNL     1     -10.860   9.392  71.020  1.00  0.00    -0.281 OA 
BRANCH  22  23
HETATM   23  C   UNL     1     -12.107   9.375  71.718  1.00  0.00    -0.382 C  
HETATM   24  C   UNL     1     -12.847  10.671  71.453  1.00  0.00    -0.556 C  
ENDBRANCH  22  23
ENDBRANCH  18  22
BRANCH  21  25
HETATM   25  S   UNL     1      -9.739   5.219  66.953  1.00  0.00    -0.174 S  
HETATM   26  O   UNL     1      -8.497   5.619  66.329  1.00  0.00    -0.118 OA 
HETATM   27  O   UNL     1     -10.907   4.916  66.156  1.00  0.00    -0.289 OA 
BRANCH  25  28
HETATM   28  N   UNL     1      -9.411   3.899  67.988  1.00  0.00    -0.174 N  
HETATM   29  C   UNL     1      -9.350   2.541  67.360  1.00  0.00    -0.102 C  
HETATM   30  C   UNL     1      -8.001   2.282  66.640  1.00  0.00    -0.076 C  
HETATM   31  N   UNL     1      -6.787   2.571  67.439  1.00  0.00    -0.040 NA 
HETATM   32  C   UNL     1      -6.912   3.914  68.047  1.00  0.00    -0.051 C  
HETATM   33  C   UNL     1      -8.208   4.110  68.856  1.00  0.00    -0.071 C  
BRANCH  31  34
HETATM   34  C   UNL     1      -6.528   1.497  68.407  1.00  0.00    -0.025 C  
HETATM   35  C   UNL     1      -5.289   1.728  69.266  1.00  0.00    -0.012 C  
ENDBRANCH  31  34
ENDBRANCH  25  28
ENDBRANCH  21  25
ENDBRANCH  11  16
ENDBRANCH   3   4
ENDBRANCH   2   3
TORSDOF 8
ENDMDL
MODEL      147
REMARK 921   NORMALIZED FREE ENERGY PREDICTED BY IDOCK:   -4.17 KCAL/MOL
REMARK 922        TOTAL FREE ENERGY PREDICTED BY IDOCK:   -7.13 KCAL/MOL
REMARK 923 INTER-LIGAND FREE ENERGY PREDICTED BY IDOCK:   -6.91 KCAL/MOL
REMARK 924 INTRA-LIGAND FREE ENERGY PREDICTED BY IDOCK:   -0.23 KCAL/MOL
REMARK 927      BINDING AFFINITY PREDICTED BY RF-SCORE:    0.00 PKD
ROOT
HETATM    1  C   UNL     1      -7.413  18.872  67.115  1.00  0.00    -0.238 C  
HETATM    2  C   UNL     1      -8.374  18.094  66.224  1.00  0.00    -0.228 C  
ENDROOT
BRANCH   2   3
HETATM    3  C   UNL     1      -8.162  16.579  66.263  1.00  0.00    -0.360 C  
BRANCH   3   4
HETATM    4  C   UNL     1      -9.385  15.805  65.894  1.00  0.00    -0.321 A  
HETATM    5  N   UNL     1     -10.364  16.255  65.132  1.00  0.00    -0.603 NA 
HETATM    6  C   UNL     1     -11.271  15.229  65.033  1.00  0.00    -0.403 A  
HETATM    7  C   UNL     1     -10.832  14.143  65.761  1.00  0.00    -0.297 A  
HETATM    8  C   UNL     1     -12.506  15.376  64.230  1.00  0.00     0.048 C  
HETATM    9  N   UNL     1      -9.642  14.512  66.290  1.00  0.00    -0.300 NA 
HETATM   10  N   UNL     1      -8.870  13.658  67.030  1.00  0.00    -0.234 NA 
HETATM   11  C   UNL     1      -9.502  12.460  67.340  1.00  0.00    -0.186 C  
HETATM   12  N   UNL     1     -10.650  12.077  66.874  1.00  0.00    -0.223 N  
HETATM   13  O   UNL     1     -12.417  12.455  65.483  1.00  0.00    -0.643 OA 
HETATM   14  H   UNL     1     -11.026  11.176  67.169  1.00  0.00     0.000 HD 
HETATM   15  C   UNL     1     -11.378  12.844  65.996  1.00  0.00    -0.317 C  
BRANCH  11  16
HETATM   16  C   UNL     1      -8.807  11.518  68.302  1.00  0.00    -0.166 A  
HETATM   17  C   UNL     1      -6.963  10.885  69.761  1.00  0.00    -0.121 A  
HETATM   18  C   UNL     1      -7.548  11.812  68.881  1.00  0.00    -0.063 A  
HETATM   19  C   UNL     1      -9.427  10.291  68.591  1.00  0.00    -0.169 A  
HETATM   20  C   UNL     1      -7.590   9.676  70.051  1.00  0.00    -0.151 A  
HETATM   21  C   UNL     1      -8.816   9.384  69.464  1.00  0.00    -0.162 A  
BRANCH  18  22
HETATM   22  O   UNL     1      -6.954  13.010  68.576  1.00  0.00    -0.089 OA 
BRANCH  22  23
HETATM   23  C   UNL     1      -6.392  13.761  69.654  1.00  0.00    -0.116 C  
HETATM   24  C   UNL     1      -6.855  15.202  69.555  1.00  0.00    -0.179 C  
ENDBRANCH  22  23
ENDBRANCH  18  22
BRANCH  21  25
HETATM   25  S   UNL     1      -9.490   7.756  69.658  1.00  0.00    -0.156 S  
HETATM   26  O   UNL     1     -10.633   7.662  68.776  1.00  0.00    -0.204 OA 
HETATM   27  O   UNL     1      -9.627   7.522  71.079  1.00  0.00    -0.161 OA 
BRANCH  25  28
HETATM   28  N   UNL     1      -8.260   6.742  69.041  1.00  0.00    -0.117 N  
HETATM   29  C   UNL     1      -8.000   5.463  69.776  1.00  0.00    -0.088 C  
HETATM   30  C   UNL     1      -9.041   4.365  69.440  1.00  0.00    -0.113 C  
HETATM   31  N   UNL     1      -9.274   4.129  67.996  1.00  0.00    -0.137 NA 
HETATM   32  C   UNL     1      -9.508   5.425  67.321  1.00  0.00    -0.123 C  
HETATM   33  C   UNL     1      -8.400   6.464  67.575  1.00  0.00    -0.117 C  
BRANCH  31  34
HETATM   34  C   UNL     1      -8.184   3.337  67.411  1.00  0.00    -0.082 C  
HETATM   35  C   UNL     1      -8.431   1.833  67.439  1.00  0.00    -0.094 C  
ENDBRANCH  31  34
ENDBRANCH  25  28
ENDBRANCH  21  25
ENDBRANCH  11  16
ENDBRANCH   3   4
ENDBRANCH   2   3
TORSDOF 8
ENDMDL
MODEL      148
REMARK 921   NORMALIZED FREE ENERGY PREDICTED BY IDOCK:   -4.17 KCAL/MOL
REMARK 922        TOTAL FREE ENERGY PREDICTED BY IDOCK:   -7.13 KCAL/MOL
REMARK 923 INTER-LIGAND FREE ENERGY PREDICTED BY IDOCK:   -5.99 KCAL/MOL
REMARK 924 INTRA-LIGAND FREE ENERGY PREDICTED BY IDOCK:   -1.14 KCAL/MOL
REMARK 927      BINDING AFFINITY PREDICTED BY RF-SCORE:    0.00 PKD
ROOT
HETATM    1  C   UNL     1      -5.268   5.909  72.811  1.00  0.00    -0.026 C  
HETATM    2  C   UNL     1      -6.076   4.619  72.865  1.00  0.00    -0.025 C  
ENDROOT
BRANCH   2   3
HETATM    3  C   UNL     1      -6.983   4.407  71.650  1.00  0.00    -0.038 C  
BRANCH   3   4
HETATM    4  C   UNL     1      -8.427   4.646  71.947  1.00  0.00    -0.117 A  
HETATM    5  N   UNL     1      -9.118   4.031  72.888  1.00  0.00    -0.107 NA 
HETATM    6  C   UNL     1     -10.386   4.555  72.833  1.00  0.00    -0.184 A  
HETATM    7  C   UNL     1     -10.460   5.498  71.829  1.00  0.00    -0.228 A  
HETATM    8  C   UNL     1     -11.441   4.103  73.767  1.00  0.00    -0.113 C  
HETATM    9  N   UNL     1      -9.222   5.554  71.286  1.00  0.00    -0.145 NA 
HETATM   10  N   UNL     1      -8.895   6.436  70.292  1.00  0.00    -0.149 NA 
HETATM   11  C   UNL     1      -9.986   7.123  69.772  1.00  0.00    -0.178 C  
HETATM   12  N   UNL     1     -11.192   7.080  70.248  1.00  0.00    -0.287 N  
HETATM   13  O   UNL     1     -12.631   6.350  71.859  1.00  0.00    -0.314 OA 
HETATM   14  H   UNL     1     -11.922   7.623  69.788  1.00  0.00     0.000 HD 
HETATM   15  C   UNL     1     -11.519   6.328  71.350  1.00  0.00    -0.293 C  
BRANCH  11  16
HETATM   16  C   UNL     1      -9.763   7.991  68.551  1.00  0.00    -0.166 A  
HETATM   17  C   UNL     1     -10.031   8.515  66.188  1.00  0.00    -0.160 A  
HETATM   18  C   UNL     1     -10.285   7.662  67.276  1.00  0.00    -0.272 A  
HETATM   19  C   UNL     1      -8.973   9.144  68.693  1.00  0.00    -0.136 A  
HETATM   20  C   UNL     1      -9.257   9.662  66.340  1.00  0.00    -0.205 A  
HETATM   21  C   UNL     1      -8.730   9.969  67.590  1.00  0.00    -0.121 A  
BRANCH  18  22
HETATM   22  O   UNL     1     -11.045   6.526  67.156  1.00  0.00    -0.390 OA 
BRANCH  22  23
HETATM   23  C   UNL     1     -10.515   5.458  66.368  1.00  0.00    -0.267 C  
HETATM   24  C   UNL     1      -9.806   4.471  67.275  1.00  0.00    -0.216 C  
ENDBRANCH  22  23
ENDBRANCH  18  22
BRANCH  21  25
HETATM   25  S   UNL     1      -7.563  11.298  67.722  1.00  0.00    -0.109 S  
HETATM   26  O   UNL     1      -7.278  11.746  66.377  1.00  0.00     0.031 OA 
HETATM   27  O   UNL     1      -6.503  10.843  68.594  1.00  0.00    -0.053 OA 
BRANCH  25  28
HETATM   28  N   UNL     1      -8.450  12.526  68.513  1.00  0.00    -0.112 N  
HETATM   29  C   UNL     1      -7.771  13.849  68.691  1.00  0.00    -0.128 C  
HETATM   30  C   UNL     1      -7.788  14.702  67.396  1.00  0.00    -0.202 C  
HETATM   31  N   UNL     1      -9.113  14.850  66.749  1.00  0.00    -0.254 NA 
HETATM   32  C   UNL     1      -9.742  13.516  66.616  1.00  0.00    -0.280 C  
HETATM   33  C   UNL     1      -9.819  12.733  67.940  1.00  0.00    -0.223 C  
BRANCH  31  34
HETATM   34  C   UNL     1      -9.939  15.832  67.463  1.00  0.00    -0.236 C  
HETATM   35  C   UNL     1      -9.865  17.239  66.879  1.00  0.00    -0.287 C  
ENDBRANCH  31  34
ENDBRANCH  25  28
ENDBRANCH  21  25
ENDBRANCH  11  16
ENDBRANCH   3   4
ENDBRANCH   2   3
TORSDOF 8
ENDMDL
MODEL      149
REMARK 921   NORMALIZED FREE ENERGY PREDICTED BY IDOCK:   -4.15 KCAL/MOL
REMARK 922        TOTAL FREE ENERGY PREDICTED BY IDOCK:   -7.10 KCAL/MOL
REMARK 923 INTER-LIGAND FREE ENERGY PREDICTED BY IDOCK:   -7.32 KCAL/MOL
REMARK 924 INTRA-LIGAND FREE ENERGY PREDICTED BY IDOCK:    0.22 KCAL/MOL
REMARK 927      BINDING AFFINITY PREDICTED BY RF-SCORE:    0.00 PKD
ROOT
HETATM    1  C   UNL     1     -11.117  11.643  63.482  1.00  0.00    -0.476 C  
HETATM    2  C   UNL     1     -10.712  10.992  64.799  1.00  0.00    -0.304 C  
ENDROOT
BRANCH   2   3
HETATM    3  C   UNL     1      -9.484  10.085  64.688  1.00  0.00    -0.367 C  
BRANCH   3   4
HETATM    4  C   UNL     1      -8.754   9.924  65.980  1.00  0.00    -0.137 A  
HETATM    5  N   UNL     1      -8.029   8.873  66.314  1.00  0.00    -0.102 NA 
HETATM    6  C   UNL     1      -7.524   9.139  67.563  1.00  0.00    -0.088 A  
HETATM    7  C   UNL     1      -7.965  10.373  67.992  1.00  0.00    -0.105 A  
HETATM    8  C   UNL     1      -6.642   8.172  68.253  1.00  0.00    -0.060 C  
HETATM    9  N   UNL     1      -8.728  10.862  66.987  1.00  0.00    -0.139 NA 
HETATM   10  N   UNL     1      -9.290  12.109  67.029  1.00  0.00    -0.195 NA 
HETATM   11  C   UNL     1      -9.161  12.738  68.262  1.00  0.00    -0.186 C  
HETATM   12  N   UNL     1      -8.459  12.295  69.258  1.00  0.00     0.033 N  
HETATM   13  O   UNL     1      -7.013  10.740  70.090  1.00  0.00    -0.173 OA 
HETATM   14  H   UNL     1      -8.434  12.837  70.122  1.00  0.00     0.000 HD 
HETATM   15  C   UNL     1      -7.748  11.122  69.190  1.00  0.00    -0.076 C  
BRANCH  11  16
HETATM   16  C   UNL     1      -9.898  14.045  68.473  1.00  0.00    -0.225 A  
HETATM   17  C   UNL     1     -11.616  15.419  69.517  1.00  0.00    -0.346 A  
HETATM   18  C   UNL     1     -10.977  14.174  69.381  1.00  0.00    -0.179 A  
HETATM   19  C   UNL     1      -9.512  15.155  67.702  1.00  0.00    -0.201 A  
HETATM   20  C   UNL     1     -11.219  16.517  68.759  1.00  0.00    -0.277 A  
HETATM   21  C   UNL     1     -10.172  16.379  67.854  1.00  0.00    -0.268 A  
BRANCH  18  22
HETATM   22  O   UNL     1     -11.346  13.076  70.115  1.00  0.00    -0.018 OA 
BRANCH  22  23
HETATM   23  C   UNL     1     -12.741  12.882  70.357  1.00  0.00     0.049 C  
HETATM   24  C   UNL     1     -13.034  13.140  71.822  1.00  0.00    -0.435 C  
ENDBRANCH  22  23
ENDBRANCH  18  22
BRANCH  21  25
HETATM   25  S   UNL     1      -9.830  17.711  66.734  1.00  0.00    -0.319 S  
HETATM   26  O   UNL     1     -10.562  18.864  67.210  1.00  0.00    -0.417 OA 
HETATM   27  O   UNL     1     -10.034  17.201  65.397  1.00  0.00    -0.547 OA 
BRANCH  25  28
HETATM   28  N   UNL     1      -8.163  18.008  66.971  1.00  0.00    -0.221 N  
HETATM   29  C   UNL     1      -7.494  18.941  66.010  1.00  0.00    -0.244 C  
HETATM   30  C   UNL     1      -7.782  20.430  66.333  1.00  0.00    -0.155 C  
HETATM   31  N   UNL     1      -7.547  20.833  67.739  1.00  0.00    -0.188 NA 
HETATM   32  C   UNL     1      -8.214  19.868  68.641  1.00  0.00    -0.112 C  
HETATM   33  C   UNL     1      -7.824  18.401  68.377  1.00  0.00    -0.306 C  
BRANCH  31  34
HETATM   34  C   UNL     1      -6.112  21.005  68.003  1.00  0.00    -0.347 C  
HETATM   35  C   UNL     1      -5.213  20.430  66.915  1.00  0.00    -0.186 C  
ENDBRANCH  31  34
ENDBRANCH  25  28
ENDBRANCH  21  25
ENDBRANCH  11  16
ENDBRANCH   3   4
ENDBRANCH   2   3
TORSDOF 8
ENDMDL
MODEL      150
REMARK 921   NORMALIZED FREE ENERGY PREDICTED BY IDOCK:   -4.11 KCAL/MOL
REMARK 922        TOTAL FREE ENERGY PREDICTED BY IDOCK:   -7.05 KCAL/MOL
REMARK 923 INTER-LIGAND FREE ENERGY PREDICTED BY IDOCK:   -7.70 KCAL/MOL
REMARK 924 INTRA-LIGAND FREE ENERGY PREDICTED BY IDOCK:    0.65 KCAL/MOL
REMARK 927      BINDING AFFINITY PREDICTED BY RF-SCORE:    0.00 PKD
ROOT
HETATM    1  C   UNL     1      -7.874   9.186  62.840  1.00  0.00    -0.129 C  
HETATM    2  C   UNL     1      -8.389  10.448  63.522  1.00  0.00    -0.154 C  
ENDROOT
BRANCH   2   3
HETATM    3  C   UNL     1      -9.757  10.909  63.016  1.00  0.00    -0.380 C  
BRANCH   3   4
HETATM    4  C   UNL     1     -10.334  12.028  63.820  1.00  0.00    -0.426 A  
HETATM    5  N   UNL     1     -11.154  12.951  63.353  1.00  0.00    -0.255 NA 
HETATM    6  C   UNL     1     -11.453  13.767  64.416  1.00  0.00    -0.372 A  
HETATM    7  C   UNL     1     -10.789  13.330  65.543  1.00  0.00    -0.284 A  
HETATM    8  C   UNL     1     -12.371  14.917  64.262  1.00  0.00    -0.300 C  
HETATM    9  N   UNL     1     -10.097  12.232  65.160  1.00  0.00    -0.272 NA 
HETATM   10  N   UNL     1      -9.362  11.483  66.038  1.00  0.00    -0.220 NA 
HETATM   11  C   UNL     1      -9.242  12.056  67.299  1.00  0.00    -0.182 C  
HETATM   12  N   UNL     1      -9.869  13.119  67.699  1.00  0.00    -0.214 N  
HETATM   13  O   UNL     1     -11.406  14.752  67.286  1.00  0.00    -0.335 OA 
HETATM   14  H   UNL     1      -9.707  13.458  68.648  1.00  0.00     0.000 HD 
HETATM   15  C   UNL     1     -10.744  13.803  66.891  1.00  0.00    -0.280 C  
BRANCH  11  16
HETATM   16  C   UNL     1      -8.305  11.400  68.292  1.00  0.00    -0.152 A  
HETATM   17  C   UNL     1      -6.110  11.028  69.279  1.00  0.00    -0.050 A  
HETATM   18  C   UNL     1      -6.918  11.682  68.332  1.00  0.00    -0.079 A  
HETATM   19  C   UNL     1      -8.839  10.448  69.176  1.00  0.00    -0.180 A  
HETATM   20  C   UNL     1      -6.650  10.094  70.160  1.00  0.00    -0.128 A  
HETATM   21  C   UNL     1      -8.009   9.807  70.103  1.00  0.00    -0.186 A  
BRANCH  18  22
HETATM   22  O   UNL     1      -6.414  12.606  67.452  1.00  0.00    -0.149 OA 
BRANCH  22  23
HETATM   23  C   UNL     1      -5.839  13.794  68.000  1.00  0.00    -0.133 C  
HETATM   24  C   UNL     1      -6.924  14.609  68.675  1.00  0.00    -0.111 C  
ENDBRANCH  22  23
ENDBRANCH  18  22
BRANCH  21  25
HETATM   25  S   UNL     1      -8.638   8.457  71.066  1.00  0.00    -0.170 S  
HETATM   26  O   UNL     1      -8.305   8.730  72.446  1.00  0.00    -0.387 OA 
HETATM   27  O   UNL     1      -8.199   7.239  70.422  1.00  0.00    -0.121 OA 
BRANCH  25  28
HETATM   28  N   UNL     1     -10.332   8.603  70.890  1.00  0.00    -0.201 N  
HETATM   29  C   UNL     1     -11.012   7.607  70.001  1.00  0.00    -0.228 C  
HETATM   30  C   UNL     1     -11.225   6.239  70.698  1.00  0.00    -0.337 C  
HETATM   31  N   UNL     1     -11.856   6.297  72.037  1.00  0.00    -0.329 NA 
HETATM   32  C   UNL     1     -11.156   7.306  72.863  1.00  0.00    -0.325 C  
HETATM   33  C   UNL     1     -11.059   8.692  72.198  1.00  0.00    -0.364 C  
BRANCH  31  34
HETATM   34  C   UNL     1     -13.305   6.517  71.925  1.00  0.00     0.156 C  
HETATM   35  C   UNL     1     -13.687   7.962  71.623  1.00  0.00    -0.422 C  
ENDBRANCH  31  34
ENDBRANCH  25  28
ENDBRANCH  21  25
ENDBRANCH  11  16
ENDBRANCH   3   4
ENDBRANCH   2   3
TORSDOF 8
ENDMDL
MODEL      151
REMARK 921   NORMALIZED FREE ENERGY PREDICTED BY IDOCK:   -4.10 KCAL/MOL
REMARK 922        TOTAL FREE ENERGY PREDICTED BY IDOCK:   -7.03 KCAL/MOL
REMARK 923 INTER-LIGAND FREE ENERGY PREDICTED BY IDOCK:   -6.35 KCAL/MOL
REMARK 924 INTRA-LIGAND FREE ENERGY PREDICTED BY IDOCK:   -0.68 KCAL/MOL
REMARK 927      BINDING AFFINITY PREDICTED BY RF-SCORE:    0.00 PKD
ROOT
HETATM    1  C   UNL     1     -12.074  11.906  63.646  1.00  0.00    -0.580 C  
HETATM    2  C   UNL     1     -12.307  13.319  64.168  1.00  0.00    -0.408 C  
ENDROOT
BRANCH   2   3
HETATM    3  C   UNL     1     -12.073  13.468  65.672  1.00  0.00    -0.467 C  
BRANCH   3   4
HETATM    4  C   UNL     1     -10.954  14.400  66.003  1.00  0.00    -0.316 A  
HETATM    5  N   UNL     1     -10.995  15.712  65.866  1.00  0.00    -0.277 NA 
HETATM    6  C   UNL     1      -9.777  16.179  66.296  1.00  0.00    -0.307 A  
HETATM    7  C   UNL     1      -8.984  15.122  66.690  1.00  0.00    -0.287 A  
HETATM    8  C   UNL     1      -9.471  17.626  66.297  1.00  0.00    -0.232 C  
HETATM    9  N   UNL     1      -9.735  14.011  66.512  1.00  0.00    -0.286 NA 
HETATM   10  N   UNL     1      -9.296  12.763  66.860  1.00  0.00    -0.228 NA 
HETATM   11  C   UNL     1      -7.957  12.724  67.231  1.00  0.00    -0.156 C  
HETATM   12  N   UNL     1      -7.196  13.762  67.392  1.00  0.00    -0.300 N  
HETATM   13  O   UNL     1      -6.971  16.031  67.442  1.00  0.00    -0.154 OA 
HETATM   14  H   UNL     1      -6.223  13.621  67.665  1.00  0.00     0.000 HD 
HETATM   15  C   UNL     1      -7.654  15.044  67.208  1.00  0.00    -0.194 C  
BRANCH  11  16
HETATM   16  C   UNL     1      -7.323  11.368  67.465  1.00  0.00    -0.112 A  
HETATM   17  C   UNL     1      -5.644   9.903  68.446  1.00  0.00    -0.042 A  
HETATM   18  C   UNL     1      -6.179  11.192  68.281  1.00  0.00    -0.049 A  
HETATM   19  C   UNL     1      -7.877  10.256  66.809  1.00  0.00    -0.114 A  
HETATM   20  C   UNL     1      -6.206   8.804  67.801  1.00  0.00    -0.056 A  
HETATM   21  C   UNL     1      -7.317   8.986  66.985  1.00  0.00    -0.087 A  
BRANCH  18  22
HETATM   22  O   UNL     1      -5.647  12.293  68.904  1.00  0.00    -0.051 OA 
BRANCH  22  23
HETATM   23  C   UNL     1      -5.667  12.317  70.332  1.00  0.00    -0.169 C  
HETATM   24  C   UNL     1      -5.793  13.752  70.806  1.00  0.00    -0.188 C  
ENDBRANCH  22  23
ENDBRANCH  18  22
BRANCH  21  25
HETATM   25  S   UNL     1      -7.880   7.628  65.993  1.00  0.00    -0.106 S  
HETATM   26  O   UNL     1      -6.760   6.727  65.833  1.00  0.00    -0.049 OA 
HETATM   27  O   UNL     1      -8.549   8.195  64.843  1.00  0.00    -0.124 OA 
BRANCH  25  28
HETATM   28  N   UNL     1      -9.037   6.863  66.992  1.00  0.00    -0.132 N  
HETATM   29  C   UNL     1      -9.838   5.755  66.380  1.00  0.00    -0.138 C  
HETATM   30  C   UNL     1      -9.049   4.422  66.310  1.00  0.00    -0.126 C  
HETATM   31  N   UNL     1      -8.405   3.997  67.576  1.00  0.00    -0.097 NA 
HETATM   32  C   UNL     1      -7.645   5.134  68.142  1.00  0.00    -0.080 C  
HETATM   33  C   UNL     1      -8.481   6.416  68.310  1.00  0.00    -0.115 C  
BRANCH  31  34
HETATM   34  C   UNL     1      -9.392   3.419  68.498  1.00  0.00    -0.168 C  
HETATM   35  C   UNL     1      -9.557   1.910  68.355  1.00  0.00    -0.157 C  
ENDBRANCH  31  34
ENDBRANCH  25  28
ENDBRANCH  21  25
ENDBRANCH  11  16
ENDBRANCH   3   4
ENDBRANCH   2   3
TORSDOF 8
ENDMDL
MODEL      152
REMARK 921   NORMALIZED FREE ENERGY PREDICTED BY IDOCK:   -4.06 KCAL/MOL
REMARK 922        TOTAL FREE ENERGY PREDICTED BY IDOCK:   -6.97 KCAL/MOL
REMARK 923 INTER-LIGAND FREE ENERGY PREDICTED BY IDOCK:   -6.99 KCAL/MOL
REMARK 924 INTRA-LIGAND FREE ENERGY PREDICTED BY IDOCK:    0.02 KCAL/MOL
REMARK 927      BINDING AFFINITY PREDICTED BY RF-SCORE:    0.00 PKD
ROOT
HETATM    1  C   UNL     1      -9.746  18.701  68.911  1.00  0.00    -0.363 C  
HETATM    2  C   UNL     1      -8.806  18.642  67.714  1.00  0.00    -0.294 C  
ENDROOT
BRANCH   2   3
HETATM    3  C   UNL     1      -8.341  17.228  67.362  1.00  0.00    -0.211 C  
BRANCH   3   4
HETATM    4  C   UNL     1      -9.339  16.466  66.553  1.00  0.00    -0.273 A  
HETATM    5  N   UNL     1     -10.188  17.003  65.697  1.00  0.00    -0.599 NA 
HETATM    6  C   UNL     1     -10.902  15.959  65.162  1.00  0.00    -0.421 A  
HETATM    7  C   UNL     1     -10.479  14.770  65.718  1.00  0.00    -0.334 A  
HETATM    8  C   UNL     1     -11.948  16.192  64.142  1.00  0.00     0.338 C  
HETATM    9  N   UNL     1      -9.490  15.098  66.582  1.00  0.00    -0.247 NA 
HETATM   10  N   UNL     1      -8.780  14.159  67.278  1.00  0.00    -0.208 NA 
HETATM   11  C   UNL     1      -9.290  12.871  67.159  1.00  0.00    -0.229 C  
HETATM   12  N   UNL     1     -10.249  12.518  66.360  1.00  0.00    -0.240 N  
HETATM   13  O   UNL     1     -11.718  13.072  64.707  1.00  0.00    -0.319 OA 
HETATM   14  H   UNL     1     -10.549  11.542  66.353  1.00  0.00     0.000 HD 
HETATM   15  C   UNL     1     -10.875  13.411  65.526  1.00  0.00    -0.289 C  
BRANCH  11  16
HETATM   16  C   UNL     1      -8.688  11.785  68.028  1.00  0.00    -0.167 A  
HETATM   17  C   UNL     1      -6.828  10.429  68.822  1.00  0.00    -0.059 A  
HETATM   18  C   UNL     1      -7.312  11.453  67.989  1.00  0.00    -0.090 A  
HETATM   19  C   UNL     1      -9.547  11.061  68.871  1.00  0.00    -0.174 A  
HETATM   20  C   UNL     1      -7.684   9.723  69.663  1.00  0.00    -0.136 A  
HETATM   21  C   UNL     1      -9.038  10.040  69.682  1.00  0.00    -0.210 A  
BRANCH  18  22
HETATM   22  O   UNL     1      -6.492  12.165  67.150  1.00  0.00    -0.148 OA 
BRANCH  22  23
HETATM   23  C   UNL     1      -5.273  11.546  66.737  1.00  0.00    -0.122 C  
HETATM   24  C   UNL     1      -5.506  10.801  65.437  1.00  0.00    -0.133 C  
ENDBRANCH  22  23
ENDBRANCH  18  22
BRANCH  21  25
HETATM   25  S   UNL     1     -10.149   8.989  70.579  1.00  0.00    -0.234 S  
HETATM   26  O   UNL     1     -11.089   9.850  71.262  1.00  0.00    -0.351 OA 
HETATM   27  O   UNL     1      -9.337   8.044  71.313  1.00  0.00    -0.143 OA 
BRANCH  25  28
HETATM   28  N   UNL     1     -10.992   8.160  69.344  1.00  0.00    -0.082 N  
HETATM   29  C   UNL     1     -10.556   8.412  67.934  1.00  0.00    -0.154 C  
HETATM   30  C   UNL     1      -9.276   7.621  67.560  1.00  0.00    -0.132 C  
HETATM   31  N   UNL     1      -9.308   6.173  67.872  1.00  0.00    -0.115 NA 
HETATM   32  C   UNL     1      -9.762   5.985  69.268  1.00  0.00    -0.142 C  
HETATM   33  C   UNL     1     -11.097   6.684  69.586  1.00  0.00    -0.334 C  
BRANCH  31  34
HETATM   34  C   UNL     1     -10.106   5.440  66.879  1.00  0.00    -0.209 C  
HETATM   35  C   UNL     1      -9.289   4.892  65.715  1.00  0.00    -0.165 C  
ENDBRANCH  31  34
ENDBRANCH  25  28
ENDBRANCH  21  25
ENDBRANCH  11  16
ENDBRANCH   3   4
ENDBRANCH   2   3
TORSDOF 8
ENDMDL
MODEL      153
REMARK 921   NORMALIZED FREE ENERGY PREDICTED BY IDOCK:   -3.97 KCAL/MOL
REMARK 922        TOTAL FREE ENERGY PREDICTED BY IDOCK:   -6.84 KCAL/MOL
REMARK 923 INTER-LIGAND FREE ENERGY PREDICTED BY IDOCK:   -5.95 KCAL/MOL
REMARK 924 INTRA-LIGAND FREE ENERGY PREDICTED BY IDOCK:   -0.89 KCAL/MOL
REMARK 927      BINDING AFFINITY PREDICTED BY RF-SCORE:    0.00 PKD
ROOT
HETATM    1  C   UNL     1     -12.173  13.043  63.310  1.00  0.00    -0.464 C  
HETATM    2  C   UNL     1     -12.179  14.196  64.307  1.00  0.00    -0.449 C  
ENDROOT
BRANCH   2   3
HETATM    3  C   UNL     1     -11.066  14.113  65.354  1.00  0.00    -0.321 C  
BRANCH   3   4
HETATM    4  C   UNL     1     -10.569  15.452  65.789  1.00  0.00    -0.348 A  
HETATM    5  N   UNL     1     -10.995  16.609  65.317  1.00  0.00    -0.382 NA 
HETATM    6  C   UNL     1     -10.297  17.577  65.995  1.00  0.00    -0.306 A  
HETATM    7  C   UNL     1      -9.425  16.989  66.887  1.00  0.00    -0.257 A  
HETATM    8  C   UNL     1     -10.531  19.014  65.729  1.00  0.00    -0.375 C  
HETATM    9  N   UNL     1      -9.611  15.655  66.757  1.00  0.00    -0.231 NA 
HETATM   10  N   UNL     1      -8.956  14.742  67.538  1.00  0.00    -0.180 NA 
HETATM   11  C   UNL     1      -7.959  15.298  68.331  1.00  0.00    -0.131 C  
HETATM   12  N   UNL     1      -7.733  16.568  68.467  1.00  0.00    -0.192 N  
HETATM   13  O   UNL     1      -8.335  18.719  68.009  1.00  0.00    -0.274 OA 
HETATM   14  H   UNL     1      -6.971  16.870  69.075  1.00  0.00     0.000 HD 
HETATM   15  C   UNL     1      -8.483  17.520  67.820  1.00  0.00    -0.225 C  
BRANCH  11  16
HETATM   16  C   UNL     1      -7.055  14.356  69.100  1.00  0.00    -0.127 A  
HETATM   17  C   UNL     1      -5.216  13.881  70.623  1.00  0.00    -0.117 A  
HETATM   18  C   UNL     1      -6.018  14.817  69.946  1.00  0.00    -0.132 A  
HETATM   19  C   UNL     1      -7.239  12.974  68.928  1.00  0.00    -0.047 A  
HETATM   20  C   UNL     1      -5.412  12.513  70.456  1.00  0.00    -0.162 A  
HETATM   21  C   UNL     1      -6.420  12.066  69.608  1.00  0.00    -0.088 A  
BRANCH  18  22
HETATM   22  O   UNL     1      -5.848  16.170  70.092  1.00  0.00    -0.183 OA 
BRANCH  22  23
HETATM   23  C   UNL     1      -5.228  16.632  71.294  1.00  0.00    -0.005 C  
HETATM   24  C   UNL     1      -5.151  18.146  71.266  1.00  0.00    -0.191 C  
ENDBRANCH  22  23
ENDBRANCH  18  22
BRANCH  21  25
HETATM   25  S   UNL     1      -6.510  10.337  69.226  1.00  0.00    -0.054 S  
HETATM   26  O   UNL     1      -7.577   9.781  70.028  1.00  0.00    -0.127 OA 
HETATM   27  O   UNL     1      -5.164   9.815  69.312  1.00  0.00    -0.036 OA 
BRANCH  25  28
HETATM   28  N   UNL     1      -7.012  10.319  67.592  1.00  0.00    -0.083 N  
HETATM   29  C   UNL     1      -5.949  10.123  66.555  1.00  0.00    -0.062 C  
HETATM   30  C   UNL     1      -5.524   8.639  66.417  1.00  0.00    -0.035 C  
HETATM   31  N   UNL     1      -6.634   7.671  66.252  1.00  0.00    -0.049 NA 
HETATM   32  C   UNL     1      -7.659   7.923  67.290  1.00  0.00    -0.101 C  
HETATM   33  C   UNL     1      -8.153   9.382  67.332  1.00  0.00    -0.110 C  
BRANCH  31  34
HETATM   34  C   UNL     1      -7.154   7.698  64.878  1.00  0.00    -0.063 C  
HETATM   35  C   UNL     1      -6.078   7.536  63.810  1.00  0.00    -0.049 C  
ENDBRANCH  31  34
ENDBRANCH  25  28
ENDBRANCH  21  25
ENDBRANCH  11  16
ENDBRANCH   3   4
ENDBRANCH   2   3
TORSDOF 8
ENDMDL
MODEL      154
REMARK 921   NORMALIZED FREE ENERGY PREDICTED BY IDOCK:   -3.96 KCAL/MOL
REMARK 922        TOTAL FREE ENERGY PREDICTED BY IDOCK:   -6.83 KCAL/MOL
REMARK 923 INTER-LIGAND FREE ENERGY PREDICTED BY IDOCK:   -6.28 KCAL/MOL
REMARK 924 INTRA-LIGAND FREE ENERGY PREDICTED BY IDOCK:   -0.55 KCAL/MOL
REMARK 927      BINDING AFFINITY PREDICTED BY RF-SCORE:    0.00 PKD
ROOT
HETATM    1  C   UNL     1     -11.579  11.534  63.348  1.00  0.00    -0.232 C  
HETATM    2  C   UNL     1     -10.729  11.466  64.611  1.00  0.00    -0.378 C  
ENDROOT
BRANCH   2   3
HETATM    3  C   UNL     1      -9.824  10.234  64.681  1.00  0.00    -0.396 C  
BRANCH   3   4
HETATM    4  C   UNL     1      -8.594  10.454  65.497  1.00  0.00    -0.169 A  
HETATM    5  N   UNL     1      -7.413  10.791  65.012  1.00  0.00     0.086 NA 
HETATM    6  C   UNL     1      -6.576  10.909  66.094  1.00  0.00    -0.108 A  
HETATM    7  C   UNL     1      -7.267  10.625  67.253  1.00  0.00    -0.091 A  
HETATM    8  C   UNL     1      -5.157  11.293  65.924  1.00  0.00    -0.055 C  
HETATM    9  N   UNL     1      -8.535  10.351  66.869  1.00  0.00    -0.123 NA 
HETATM   10  N   UNL     1      -9.534  10.085  67.765  1.00  0.00    -0.140 NA 
HETATM   11  C   UNL     1      -9.088   9.938  69.073  1.00  0.00    -0.164 C  
HETATM   12  N   UNL     1      -7.877  10.169  69.480  1.00  0.00    -0.147 N  
HETATM   13  O   UNL     1      -5.768  10.902  69.019  1.00  0.00    -0.041 OA 
HETATM   14  H   UNL     1      -7.655  10.027  70.465  1.00  0.00     0.000 HD 
HETATM   15  C   UNL     1      -6.887  10.597  68.630  1.00  0.00    -0.059 C  
BRANCH  11  16
HETATM   16  C   UNL     1     -10.082   9.468  70.115  1.00  0.00    -0.293 A  
HETATM   17  C   UNL     1     -12.205   9.603  71.299  1.00  0.00    -0.452 A  
HETATM   18  C   UNL     1     -11.338  10.093  70.307  1.00  0.00    -0.315 A  
HETATM   19  C   UNL     1      -9.714   8.394  70.943  1.00  0.00    -0.212 A  
HETATM   20  C   UNL     1     -11.838   8.531  72.108  1.00  0.00    -0.448 A  
HETATM   21  C   UNL     1     -10.595   7.934  71.928  1.00  0.00    -0.231 A  
BRANCH  18  22
HETATM   22  O   UNL     1     -11.672  11.147  69.495  1.00  0.00    -0.273 OA 
BRANCH  22  23
HETATM   23  C   UNL     1     -11.934  12.405  70.121  1.00  0.00    -0.298 C  
HETATM   24  C   UNL     1     -12.103  13.469  69.054  1.00  0.00    -0.330 C  
ENDBRANCH  22  23
ENDBRANCH  18  22
BRANCH  21  25
HETATM   25  S   UNL     1     -10.048   6.728  73.108  1.00  0.00    -0.228 S  
HETATM   26  O   UNL     1     -10.762   6.985  74.339  1.00  0.00    -0.003 OA 
HETATM   27  O   UNL     1      -8.602   6.730  73.073  1.00  0.00    -0.120 OA 
BRANCH  25  28
HETATM   28  N   UNL     1     -10.621   5.254  72.460  1.00  0.00    -0.215 N  
HETATM   29  C   UNL     1     -10.727   5.160  70.969  1.00  0.00    -0.063 C  
HETATM   30  C   UNL     1      -9.357   4.898  70.293  1.00  0.00    -0.154 C  
HETATM   31  N   UNL     1      -8.573   3.774  70.857  1.00  0.00    -0.071 NA 
HETATM   32  C   UNL     1      -8.517   3.909  72.330  1.00  0.00    -0.098 C  
HETATM   33  C   UNL     1      -9.900   4.052  72.993  1.00  0.00    -0.134 C  
BRANCH  31  34
HETATM   34  C   UNL     1      -9.100   2.483  70.395  1.00  0.00    -0.108 C  
HETATM   35  C   UNL     1      -9.212   2.372  68.878  1.00  0.00    -0.214 C  
ENDBRANCH  31  34
ENDBRANCH  25  28
ENDBRANCH  21  25
ENDBRANCH  11  16
ENDBRANCH   3   4
ENDBRANCH   2   3
TORSDOF 8
ENDMDL
MODEL      155
REMARK 921   NORMALIZED FREE ENERGY PREDICTED BY IDOCK:   -3.96 KCAL/MOL
REMARK 922        TOTAL FREE ENERGY PREDICTED BY IDOCK:   -6.82 KCAL/MOL
REMARK 923 INTER-LIGAND FREE ENERGY PREDICTED BY IDOCK:   -6.34 KCAL/MOL
REMARK 924 INTRA-LIGAND FREE ENERGY PREDICTED BY IDOCK:   -0.48 KCAL/MOL
REMARK 927      BINDING AFFINITY PREDICTED BY RF-SCORE:    0.00 PKD
ROOT
HETATM    1  C   UNL     1      -7.991  18.691  68.306  1.00  0.00    -0.337 C  
HETATM    2  C   UNL     1      -8.528  18.035  67.040  1.00  0.00    -0.247 C  
ENDROOT
BRANCH   2   3
HETATM    3  C   UNL     1      -8.603  16.508  67.120  1.00  0.00    -0.208 C  
BRANCH   3   4
HETATM    4  C   UNL     1      -9.550  16.021  68.167  1.00  0.00    -0.209 A  
HETATM    5  N   UNL     1     -10.078  16.769  69.118  1.00  0.00    -0.285 NA 
HETATM    6  C   UNL     1     -10.896  15.940  69.845  1.00  0.00    -0.333 A  
HETATM    7  C   UNL     1     -10.851  14.664  69.325  1.00  0.00    -0.258 A  
HETATM    8  C   UNL     1     -11.672  16.451  70.997  1.00  0.00    -0.162 C  
HETATM    9  N   UNL     1     -10.010  14.728  68.266  1.00  0.00    -0.217 NA 
HETATM   10  N   UNL     1      -9.767  13.653  67.455  1.00  0.00    -0.222 NA 
HETATM   11  C   UNL     1     -10.306  12.462  67.927  1.00  0.00    -0.210 C  
HETATM   12  N   UNL     1     -11.097  12.354  68.950  1.00  0.00    -0.251 N  
HETATM   13  O   UNL     1     -12.306  13.361  70.599  1.00  0.00    -0.350 OA 
HETATM   14  H   UNL     1     -11.435  11.428  69.214  1.00  0.00     0.000 HD 
HETATM   15  C   UNL     1     -11.493  13.441  69.690  1.00  0.00    -0.207 C  
BRANCH  11  16
HETATM   16  C   UNL     1      -9.947  11.182  67.202  1.00  0.00    -0.215 A  
HETATM   17  C   UNL     1     -10.150   9.609  65.354  1.00  0.00    -0.093 A  
HETATM   18  C   UNL     1     -10.530  10.817  65.964  1.00  0.00    -0.208 A  
HETATM   19  C   UNL     1      -9.027  10.312  67.811  1.00  0.00    -0.135 A  
HETATM   20  C   UNL     1      -9.229   8.758  65.959  1.00  0.00    -0.282 A  
HETATM   21  C   UNL     1      -8.674   9.111  67.184  1.00  0.00    -0.123 A  
BRANCH  18  22
HETATM   22  O   UNL     1     -11.435  11.675  65.392  1.00  0.00    -0.231 OA 
BRANCH  22  23
HETATM   23  C   UNL     1     -11.403  11.816  63.971  1.00  0.00    -0.381 C  
HETATM   24  C   UNL     1     -10.134  12.541  63.568  1.00  0.00    -0.116 C  
ENDBRANCH  22  23
ENDBRANCH  18  22
BRANCH  21  25
HETATM   25  S   UNL     1      -7.685   7.921  68.049  1.00  0.00    -0.128 S  
HETATM   26  O   UNL     1      -6.727   8.661  68.840  1.00  0.00    -0.052 OA 
HETATM   27  O   UNL     1      -7.250   6.946  67.074  1.00  0.00    -0.080 OA 
BRANCH  25  28
HETATM   28  N   UNL     1      -8.798   7.184  69.118  1.00  0.00    -0.136 N  
HETATM   29  C   UNL     1      -9.315   5.832  68.735  1.00  0.00    -0.119 C  
HETATM   30  C   UNL     1      -8.302   4.700  69.046  1.00  0.00    -0.080 C  
HETATM   31  N   UNL     1      -7.744   4.705  70.419  1.00  0.00    -0.053 NA 
HETATM   32  C   UNL     1      -7.266   6.066  70.747  1.00  0.00    -0.077 C  
HETATM   33  C   UNL     1      -8.328   7.163  70.541  1.00  0.00    -0.131 C  
BRANCH  31  34
HETATM   34  C   UNL     1      -8.714   4.164  71.381  1.00  0.00    -0.106 C  
HETATM   35  C   UNL     1      -8.167   4.031  72.798  1.00  0.00    -0.095 C  
ENDBRANCH  31  34
ENDBRANCH  25  28
ENDBRANCH  21  25
ENDBRANCH  11  16
ENDBRANCH   3   4
ENDBRANCH   2   3
TORSDOF 8
ENDMDL
MODEL      156
REMARK 921   NORMALIZED FREE ENERGY PREDICTED BY IDOCK:   -3.94 KCAL/MOL
REMARK 922        TOTAL FREE ENERGY PREDICTED BY IDOCK:   -6.79 KCAL/MOL
REMARK 923 INTER-LIGAND FREE ENERGY PREDICTED BY IDOCK:   -6.88 KCAL/MOL
REMARK 924 INTRA-LIGAND FREE ENERGY PREDICTED BY IDOCK:    0.09 KCAL/MOL
REMARK 927      BINDING AFFINITY PREDICTED BY RF-SCORE:    0.00 PKD
ROOT
HETATM    1  C   UNL     1     -11.072  15.390  64.753  1.00  0.00    -0.416 C  
HETATM    2  C   UNL     1     -11.137  14.484  65.976  1.00  0.00    -0.329 C  
ENDROOT
BRANCH   2   3
HETATM    3  C   UNL     1     -11.645  13.073  65.673  1.00  0.00    -0.391 C  
BRANCH   3   4
HETATM    4  C   UNL     1     -10.551  12.111  65.346  1.00  0.00    -0.272 A  
HETATM    5  N   UNL     1     -10.636  11.140  64.457  1.00  0.00    -0.338 NA 
HETATM    6  C   UNL     1      -9.413  10.515  64.457  1.00  0.00    -0.276 A  
HETATM    7  C   UNL     1      -8.580  11.117  65.376  1.00  0.00    -0.009 A  
HETATM    8  C   UNL     1      -9.140   9.372  63.558  1.00  0.00    -0.057 C  
HETATM    9  N   UNL     1      -9.300  12.125  65.921  1.00  0.00    -0.182 NA 
HETATM   10  N   UNL     1      -8.772  12.993  66.838  1.00  0.00    -0.189 NA 
HETATM   11  C   UNL     1      -7.508  12.631  67.288  1.00  0.00    -0.109 C  
HETATM   12  N   UNL     1      -6.794  11.660  66.809  1.00  0.00    -0.289 N  
HETATM   13  O   UNL     1      -6.530  10.011  65.257  1.00  0.00    -0.097 OA 
HETATM   14  H   UNL     1      -5.876  11.478  67.215  1.00  0.00     0.000 HD 
HETATM   15  C   UNL     1      -7.230  10.870  65.774  1.00  0.00     0.014 C  
BRANCH  11  16
HETATM   16  C   UNL     1      -6.907  13.423  68.432  1.00  0.00    -0.102 A  
HETATM   17  C   UNL     1      -5.998  13.628  70.681  1.00  0.00    -0.143 A  
HETATM   18  C   UNL     1      -6.545  12.827  69.664  1.00  0.00     0.015 A  
HETATM   19  C   UNL     1      -6.745  14.808  68.264  1.00  0.00    -0.114 A  
HETATM   20  C   UNL     1      -5.829  14.999  70.502  1.00  0.00    -0.126 A  
HETATM   21  C   UNL     1      -6.206  15.582  69.298  1.00  0.00    -0.123 A  
BRANCH  18  22
HETATM   22  O   UNL     1      -6.722  11.474  69.811  1.00  0.00    -0.122 OA 
BRANCH  22  23
HETATM   23  C   UNL     1      -5.635  10.721  70.353  1.00  0.00    -0.092 C  
HETATM   24  C   UNL     1      -5.294   9.585  69.409  1.00  0.00    -0.035 C  
ENDBRANCH  22  23
ENDBRANCH  18  22
BRANCH  21  25
HETATM   25  S   UNL     1      -6.203  17.350  69.167  1.00  0.00    -0.239 S  
HETATM   26  O   UNL     1      -5.504  17.684  67.946  1.00  0.00    -0.132 OA 
HETATM   27  O   UNL     1      -5.759  17.867  70.442  1.00  0.00    -0.238 OA 
BRANCH  25  28
HETATM   28  N   UNL     1      -7.855  17.734  68.953  1.00  0.00    -0.232 N  
HETATM   29  C   UNL     1      -8.187  19.157  68.626  1.00  0.00    -0.369 C  
HETATM   30  C   UNL     1      -7.939  19.495  67.133  1.00  0.00    -0.268 C  
HETATM   31  N   UNL     1      -8.542  18.555  66.159  1.00  0.00    -0.491 NA 
HETATM   32  C   UNL     1      -8.196  17.167  66.542  1.00  0.00    -0.273 C  
HETATM   33  C   UNL     1      -8.558  16.818  67.998  1.00  0.00    -0.210 C  
BRANCH  31  34
HETATM   34  C   UNL     1      -9.984  18.796  66.021  1.00  0.00    -0.255 C  
HETATM   35  C   UNL     1     -10.373  20.268  66.102  1.00  0.00    -0.385 C  
ENDBRANCH  31  34
ENDBRANCH  25  28
ENDBRANCH  21  25
ENDBRANCH  11  16
ENDBRANCH   3   4
ENDBRANCH   2   3
TORSDOF 8
ENDMDL
MODEL      157
REMARK 921   NORMALIZED FREE ENERGY PREDICTED BY IDOCK:   -3.93 KCAL/MOL
REMARK 922        TOTAL FREE ENERGY PREDICTED BY IDOCK:   -6.78 KCAL/MOL
REMARK 923 INTER-LIGAND FREE ENERGY PREDICTED BY IDOCK:   -5.89 KCAL/MOL
REMARK 924 INTRA-LIGAND FREE ENERGY PREDICTED BY IDOCK:   -0.89 KCAL/MOL
REMARK 927      BINDING AFFINITY PREDICTED BY RF-SCORE:    0.00 PKD
ROOT
HETATM    1  C   UNL     1      -9.480  16.200  66.753  1.00  0.00    -0.256 C  
HETATM    2  C   UNL     1      -9.620  15.115  67.814  1.00  0.00    -0.203 C  
ENDROOT
BRANCH   2   3
HETATM    3  C   UNL     1     -10.890  14.274  67.672  1.00  0.00    -0.273 C  
BRANCH   3   4
HETATM    4  C   UNL     1     -11.007  13.605  66.343  1.00  0.00    -0.297 A  
HETATM    5  N   UNL     1     -11.876  13.930  65.405  1.00  0.00    -0.339 NA 
HETATM    6  C   UNL     1     -11.632  13.087  64.349  1.00  0.00    -0.369 A  
HETATM    7  C   UNL     1     -10.599  12.230  64.664  1.00  0.00    -0.303 A  
HETATM    8  C   UNL     1     -12.421  13.178  63.100  1.00  0.00    -0.115 C  
HETATM    9  N   UNL     1     -10.207  12.570  65.914  1.00  0.00    -0.256 NA 
HETATM   10  N   UNL     1      -9.149  11.970  66.541  1.00  0.00    -0.205 NA 
HETATM   11  C   UNL     1      -8.645  10.869  65.860  1.00  0.00    -0.176 C  
HETATM   12  N   UNL     1      -9.008  10.495  64.671  1.00  0.00    -0.197 N  
HETATM   13  O   UNL     1     -10.240  10.885  62.793  1.00  0.00    -0.171 OA 
HETATM   14  H   UNL     1      -8.575   9.667  64.262  1.00  0.00     0.000 HD 
HETATM   15  C   UNL     1      -9.955  11.176  63.946  1.00  0.00    -0.329 C  
BRANCH  11  16
HETATM   16  C   UNL     1      -7.592  10.026  66.549  1.00  0.00    -0.106 A  
HETATM   17  C   UNL     1      -5.685   8.512  66.544  1.00  0.00    -0.047 A  
HETATM   18  C   UNL     1      -6.628   9.275  65.834  1.00  0.00    -0.076 A  
HETATM   19  C   UNL     1      -7.607   9.966  67.953  1.00  0.00    -0.090 A  
HETATM   20  C   UNL     1      -5.700   8.467  67.936  1.00  0.00    -0.039 A  
HETATM   21  C   UNL     1      -6.661   9.190  68.633  1.00  0.00    -0.058 A  
BRANCH  18  22
HETATM   22  O   UNL     1      -6.637   9.339  64.464  1.00  0.00    -0.078 OA 
BRANCH  22  23
HETATM   23  C   UNL     1      -5.625  10.127  63.833  1.00  0.00    -0.129 C  
HETATM   24  C   UNL     1      -6.192  10.753  62.573  1.00  0.00    -0.094 C  
ENDBRANCH  22  23
ENDBRANCH  18  22
BRANCH  21  25
HETATM   25  S   UNL     1      -6.815   8.944  70.382  1.00  0.00    -0.056 S  
HETATM   26  O   UNL     1      -7.941   9.737  70.824  1.00  0.00    -0.288 OA 
HETATM   27  O   UNL     1      -5.500   9.136  70.952  1.00  0.00    -0.031 OA 
BRANCH  25  28
HETATM   28  N   UNL     1      -7.245   7.294  70.512  1.00  0.00    -0.065 N  
HETATM   29  C   UNL     1      -7.479   6.759  71.891  1.00  0.00    -0.093 C  
HETATM   30  C   UNL     1      -8.875   7.143  72.447  1.00  0.00    -0.127 C  
HETATM   31  N   UNL     1     -10.018   6.859  71.548  1.00  0.00    -0.178 NA 
HETATM   32  C   UNL     1      -9.724   7.394  70.200  1.00  0.00    -0.175 C  
HETATM   33  C   UNL     1      -8.383   6.905  69.618  1.00  0.00    -0.133 C  
BRANCH  31  34
HETATM   34  C   UNL     1     -10.355   5.429  71.564  1.00  0.00    -0.225 C  
HETATM   35  C   UNL     1     -10.905   4.941  72.899  1.00  0.00    -0.313 C  
ENDBRANCH  31  34
ENDBRANCH  25  28
ENDBRANCH  21  25
ENDBRANCH  11  16
ENDBRANCH   3   4
ENDBRANCH   2   3
TORSDOF 8
ENDMDL
MODEL      158
REMARK 921   NORMALIZED FREE ENERGY PREDICTED BY IDOCK:   -3.91 KCAL/MOL
REMARK 922        TOTAL FREE ENERGY PREDICTED BY IDOCK:   -6.75 KCAL/MOL
REMARK 923 INTER-LIGAND FREE ENERGY PREDICTED BY IDOCK:   -7.55 KCAL/MOL
REMARK 924 INTRA-LIGAND FREE ENERGY PREDICTED BY IDOCK:    0.80 KCAL/MOL
REMARK 927      BINDING AFFINITY PREDICTED BY RF-SCORE:    0.00 PKD
ROOT
HETATM    1  C   UNL     1     -11.429  15.827  64.223  1.00  0.00    -0.203 C  
HETATM    2  C   UNL     1     -12.067  14.562  64.785  1.00  0.00    -0.454 C  
ENDROOT
BRANCH   2   3
HETATM    3  C   UNL     1     -11.084  13.649  65.520  1.00  0.00    -0.301 C  
BRANCH   3   4
HETATM    4  C   UNL     1     -11.456  13.411  66.946  1.00  0.00    -0.342 A  
HETATM    5  N   UNL     1     -11.929  14.330  67.768  1.00  0.00    -0.370 NA 
HETATM    6  C   UNL     1     -12.154  13.691  68.963  1.00  0.00    -0.309 A  
HETATM    7  C   UNL     1     -11.799  12.363  68.859  1.00  0.00    -0.301 A  
HETATM    8  C   UNL     1     -12.704  14.421  70.127  1.00  0.00    -0.259 C  
HETATM    9  N   UNL     1     -11.372  12.195  67.585  1.00  0.00    -0.292 NA 
HETATM   10  N   UNL     1     -10.995  10.976  67.091  1.00  0.00    -0.283 NA 
HETATM   11  C   UNL     1     -10.913   9.982  68.058  1.00  0.00    -0.240 C  
HETATM   12  N   UNL     1     -11.290  10.107  69.293  1.00  0.00    -0.382 N  
HETATM   13  O   UNL     1     -12.267  11.373  70.918  1.00  0.00    -0.370 OA 
HETATM   14  H   UNL     1     -11.184   9.311  69.923  1.00  0.00     0.000 HD 
HETATM   15  C   UNL     1     -11.827  11.273  69.781  1.00  0.00    -0.364 C  
BRANCH  11  16
HETATM   16  C   UNL     1     -10.335   8.641  67.652  1.00  0.00    -0.317 A  
HETATM   17  C   UNL     1      -9.403   7.087  66.025  1.00  0.00    -0.019 A  
HETATM   18  C   UNL     1      -9.924   8.358  66.327  1.00  0.00    -0.146 A  
HETATM   19  C   UNL     1     -10.246   7.636  68.629  1.00  0.00    -0.214 A  
HETATM   20  C   UNL     1      -9.307   6.100  67.002  1.00  0.00    -0.132 A  
HETATM   21  C   UNL     1      -9.731   6.378  68.297  1.00  0.00    -0.127 A  
BRANCH  18  22
HETATM   22  O   UNL     1     -10.030   9.350  65.385  1.00  0.00    -0.235 OA 
BRANCH  22  23
HETATM   23  C   UNL     1      -8.932   9.529  64.489  1.00  0.00    -0.212 C  
HETATM   24  C   UNL     1      -9.244  10.668  63.538  1.00  0.00    -0.283 C  
ENDBRANCH  22  23
ENDBRANCH  18  22
BRANCH  21  25
HETATM   25  S   UNL     1      -9.819   5.051  69.470  1.00  0.00    -0.228 S  
HETATM   26  O   UNL     1      -9.601   3.823  68.738  1.00  0.00    -0.161 OA 
HETATM   27  O   UNL     1     -11.025   5.250  70.243  1.00  0.00    -0.166 OA 
BRANCH  25  28
HETATM   28  N   UNL     1      -8.462   5.319  70.473  1.00  0.00    -0.117 N  
HETATM   29  C   UNL     1      -7.420   6.270  69.970  1.00  0.00    -0.087 C  
HETATM   30  C   UNL     1      -7.829   7.753  70.165  1.00  0.00    -0.095 C  
HETATM   31  N   UNL     1      -8.285   8.113  71.528  1.00  0.00    -0.114 NA 
HETATM   32  C   UNL     1      -9.298   7.132  71.978  1.00  0.00    -0.137 C  
HETATM   33  C   UNL     1      -8.827   5.668  71.885  1.00  0.00    -0.135 C  
BRANCH  31  34
HETATM   34  C   UNL     1      -7.145   8.259  72.442  1.00  0.00    -0.098 C  
HETATM   35  C   UNL     1      -6.033   9.152  71.901  1.00  0.00    -0.054 C  
ENDBRANCH  31  34
ENDBRANCH  25  28
ENDBRANCH  21  25
ENDBRANCH  11  16
ENDBRANCH   3   4
ENDBRANCH   2   3
TORSDOF 8
ENDMDL
MODEL      159
REMARK 921   NORMALIZED FREE ENERGY PREDICTED BY IDOCK:   -3.90 KCAL/MOL
REMARK 922        TOTAL FREE ENERGY PREDICTED BY IDOCK:   -6.73 KCAL/MOL
REMARK 923 INTER-LIGAND FREE ENERGY PREDICTED BY IDOCK:   -6.32 KCAL/MOL
REMARK 924 INTRA-LIGAND FREE ENERGY PREDICTED BY IDOCK:   -0.41 KCAL/MOL
REMARK 927      BINDING AFFINITY PREDICTED BY RF-SCORE:    0.00 PKD
ROOT
HETATM    1  C   UNL     1      -9.030  20.069  66.256  1.00  0.00    -0.383 C  
HETATM    2  C   UNL     1      -9.577  18.661  66.457  1.00  0.00    -0.351 C  
ENDROOT
BRANCH   2   3
HETATM    3  C   UNL     1      -9.686  18.244  67.925  1.00  0.00    -0.314 C  
BRANCH   3   4
HETATM    4  C   UNL     1      -8.470  17.539  68.427  1.00  0.00    -0.275 A  
HETATM    5  N   UNL     1      -7.489  18.108  69.103  1.00  0.00    -0.157 NA 
HETATM    6  C   UNL     1      -6.589  17.110  69.383  1.00  0.00    -0.220 A  
HETATM    7  C   UNL     1      -7.035  15.916  68.854  1.00  0.00    -0.143 A  
HETATM    8  C   UNL     1      -5.355  17.386  70.151  1.00  0.00    -0.228 C  
HETATM    9  N   UNL     1      -8.221  16.195  68.265  1.00  0.00    -0.158 NA 
HETATM   10  N   UNL     1      -8.997  15.230  67.683  1.00  0.00    -0.176 NA 
HETATM   11  C   UNL     1      -8.373  13.992  67.589  1.00  0.00    -0.187 C  
HETATM   12  N   UNL     1      -7.229  13.689  68.119  1.00  0.00    -0.102 N  
HETATM   13  O   UNL     1      -5.462  14.292  69.429  1.00  0.00    -0.086 OA 
HETATM   14  H   UNL     1      -6.859  12.747  67.987  1.00  0.00     0.000 HD 
HETATM   15  C   UNL     1      -6.498  14.592  68.851  1.00  0.00    -0.090 C  
BRANCH  11  16
HETATM   16  C   UNL     1      -9.073  12.901  66.805  1.00  0.00    -0.211 A  
HETATM   17  C   UNL     1     -10.914  12.036  65.466  1.00  0.00    -0.345 A  
HETATM   18  C   UNL     1     -10.324  13.099  66.172  1.00  0.00    -0.284 A  
HETATM   19  C   UNL     1      -8.466  11.635  66.744  1.00  0.00    -0.177 A  
HETATM   20  C   UNL     1     -10.300  10.789  65.401  1.00  0.00    -0.315 A  
HETATM   21  C   UNL     1      -9.082  10.593  66.042  1.00  0.00    -0.180 A  
BRANCH  18  22
HETATM   22  O   UNL     1     -10.906  14.339  66.252  1.00  0.00    -0.302 OA 
BRANCH  22  23
HETATM   23  C   UNL     1     -12.232  14.413  66.778  1.00  0.00    -0.288 C  
HETATM   24  C   UNL     1     -12.206  14.058  68.252  1.00  0.00    -0.195 C  
ENDBRANCH  22  23
ENDBRANCH  18  22
BRANCH  21  25
HETATM   25  S   UNL     1      -8.425   8.949  66.147  1.00  0.00    -0.132 S  
HETATM   26  O   UNL     1      -7.372   8.850  65.162  1.00  0.00    -0.089 OA 
HETATM   27  O   UNL     1      -9.552   8.043  66.125  1.00  0.00    -0.179 OA 
BRANCH  25  28
HETATM   28  N   UNL     1      -7.706   8.909  67.697  1.00  0.00    -0.100 N  
HETATM   29  C   UNL     1      -8.606   8.611  68.858  1.00  0.00    -0.130 C  
HETATM   30  C   UNL     1      -8.921   7.099  68.990  1.00  0.00    -0.134 C  
HETATM   31  N   UNL     1      -7.744   6.199  68.965  1.00  0.00    -0.095 NA 
HETATM   32  C   UNL     1      -6.886   6.550  67.811  1.00  0.00    -0.080 C  
HETATM   33  C   UNL     1      -6.489   8.037  67.764  1.00  0.00    -0.053 C  
BRANCH  31  34
HETATM   34  C   UNL     1      -7.045   6.213  70.257  1.00  0.00    -0.074 C  
HETATM   35  C   UNL     1      -7.511   5.126  71.220  1.00  0.00    -0.090 C  
ENDBRANCH  31  34
ENDBRANCH  25  28
ENDBRANCH  21  25
ENDBRANCH  11  16
ENDBRANCH   3   4
ENDBRANCH   2   3
TORSDOF 8
ENDMDL
MODEL      160
REMARK 921   NORMALIZED FREE ENERGY PREDICTED BY IDOCK:   -3.90 KCAL/MOL
REMARK 922        TOTAL FREE ENERGY PREDICTED BY IDOCK:   -6.73 KCAL/MOL
REMARK 923 INTER-LIGAND FREE ENERGY PREDICTED BY IDOCK:   -6.89 KCAL/MOL
REMARK 924 INTRA-LIGAND FREE ENERGY PREDICTED BY IDOCK:    0.17 KCAL/MOL
REMARK 927      BINDING AFFINITY PREDICTED BY RF-SCORE:    0.00 PKD
ROOT
HETATM    1  C   UNL     1     -11.657   7.087  71.588  1.00  0.00    -0.320 C  
HETATM    2  C   UNL     1     -10.150   7.048  71.813  1.00  0.00    -0.198 C  
ENDROOT
BRANCH   2   3
HETATM    3  C   UNL     1      -9.438   8.353  71.451  1.00  0.00    -0.251 C  
BRANCH   3   4
HETATM    4  C   UNL     1      -8.419   8.186  70.373  1.00  0.00    -0.129 A  
HETATM    5  N   UNL     1      -7.766   7.068  70.114  1.00  0.00    -0.098 NA 
HETATM    6  C   UNL     1      -6.949   7.342  69.045  1.00  0.00    -0.077 A  
HETATM    7  C   UNL     1      -7.107   8.657  68.660  1.00  0.00    -0.068 A  
HETATM    8  C   UNL     1      -6.071   6.301  68.467  1.00  0.00    -0.031 C  
HETATM    9  N   UNL     1      -8.039   9.175  69.494  1.00  0.00    -0.101 NA 
HETATM   10  N   UNL     1      -8.505  10.456  69.372  1.00  0.00    -0.157 NA 
HETATM   11  C   UNL     1      -7.803  11.220  68.446  1.00  0.00    -0.136 C  
HETATM   12  N   UNL     1      -6.888  10.769  67.644  1.00  0.00    -0.072 N  
HETATM   13  O   UNL     1      -5.716   8.996  66.819  1.00  0.00    -0.046 OA 
HETATM   14  H   UNL     1      -6.433  11.418  67.003  1.00  0.00     0.000 HD 
HETATM   15  C   UNL     1      -6.512   9.448  67.630  1.00  0.00    -0.062 C  
BRANCH  11  16
HETATM   16  C   UNL     1      -8.120  12.699  68.360  1.00  0.00    -0.137 A  
HETATM   17  C   UNL     1      -7.504  15.054  68.431  1.00  0.00    -0.113 A  
HETATM   18  C   UNL     1      -7.132  13.701  68.519  1.00  0.00    -0.107 A  
HETATM   19  C   UNL     1      -9.456  13.079  68.152  1.00  0.00    -0.218 A  
HETATM   20  C   UNL     1      -8.829  15.421  68.213  1.00  0.00    -0.176 A  
HETATM   21  C   UNL     1      -9.798  14.434  68.078  1.00  0.00    -0.221 A  
BRANCH  18  22
HETATM   22  O   UNL     1      -5.834  13.309  68.732  1.00  0.00    -0.070 OA 
BRANCH  22  23
HETATM   23  C   UNL     1      -5.390  13.205  70.086  1.00  0.00    -0.107 C  
HETATM   24  C   UNL     1      -5.207  14.597  70.660  1.00  0.00    -0.124 C  
ENDBRANCH  22  23
ENDBRANCH  18  22
BRANCH  21  25
HETATM   25  S   UNL     1     -11.505  14.912  68.033  1.00  0.00    -0.344 S  
HETATM   26  O   UNL     1     -11.576  16.274  68.513  1.00  0.00    -0.346 OA 
HETATM   27  O   UNL     1     -12.256  13.857  68.675  1.00  0.00    -0.345 OA 
BRANCH  25  28
HETATM   28  N   UNL     1     -11.869  14.920  66.363  1.00  0.00    -0.209 N  
HETATM   29  C   UNL     1     -10.713  15.006  65.414  1.00  0.00    -0.374 C  
HETATM   30  C   UNL     1      -9.997  13.643  65.228  1.00  0.00    -0.204 C  
HETATM   31  N   UNL     1     -10.881  12.497  64.911  1.00  0.00    -0.283 NA 
HETATM   32  C   UNL     1     -12.011  12.473  65.867  1.00  0.00    -0.409 C  
HETATM   33  C   UNL     1     -12.782  13.805  65.949  1.00  0.00    -0.401 C  
BRANCH  31  34
HETATM   34  C   UNL     1     -11.292  12.526  63.500  1.00  0.00    -0.486 C  
HETATM   35  C   UNL     1     -12.656  11.896  63.243  1.00  0.00    -0.473 C  
ENDBRANCH  31  34
ENDBRANCH  25  28
ENDBRANCH  21  25
ENDBRANCH  11  16
ENDBRANCH   3   4
ENDBRANCH   2   3
TORSDOF 8
ENDMDL
MODEL      161
REMARK 921   NORMALIZED FREE ENERGY PREDICTED BY IDOCK:   -3.89 KCAL/MOL
REMARK 922        TOTAL FREE ENERGY PREDICTED BY IDOCK:   -6.72 KCAL/MOL
REMARK 923 INTER-LIGAND FREE ENERGY PREDICTED BY IDOCK:   -6.35 KCAL/MOL
REMARK 924 INTRA-LIGAND FREE ENERGY PREDICTED BY IDOCK:   -0.37 KCAL/MOL
REMARK 927      BINDING AFFINITY PREDICTED BY RF-SCORE:    0.00 PKD
ROOT
HETATM    1  C   UNL     1      -9.019  10.206  64.330  1.00  0.00    -0.267 C  
HETATM    2  C   UNL     1      -8.735   8.732  64.068  1.00  0.00    -0.006 C  
ENDROOT
BRANCH   2   3
HETATM    3  C   UNL     1      -7.800   8.091  65.096  1.00  0.00    -0.116 C  
BRANCH   3   4
HETATM    4  C   UNL     1      -8.500   7.152  66.021  1.00  0.00    -0.145 A  
HETATM    5  N   UNL     1      -8.432   5.835  65.958  1.00  0.00    -0.129 NA 
HETATM    6  C   UNL     1      -9.200   5.363  66.994  1.00  0.00    -0.113 A  
HETATM    7  C   UNL     1      -9.750   6.420  67.688  1.00  0.00    -0.118 A  
HETATM    8  C   UNL     1      -9.343   3.911  67.239  1.00  0.00    -0.220 C  
HETATM    9  N   UNL     1      -9.296   7.539  67.075  1.00  0.00    -0.142 NA 
HETATM   10  N   UNL     1      -9.585   8.796  67.532  1.00  0.00    -0.147 NA 
HETATM   11  C   UNL     1     -10.527   8.817  68.553  1.00  0.00    -0.175 C  
HETATM   12  N   UNL     1     -11.004   7.770  69.152  1.00  0.00    -0.427 N  
HETATM   13  O   UNL     1     -10.987   5.508  69.442  1.00  0.00    -0.271 OA 
HETATM   14  H   UNL     1     -11.697   7.898  69.891  1.00  0.00     0.000 HD 
HETATM   15  C   UNL     1     -10.610   6.495  68.826  1.00  0.00    -0.243 C  
BRANCH  11  16
HETATM   16  C   UNL     1     -11.050  10.164  69.010  1.00  0.00    -0.249 A  
HETATM   17  C   UNL     1     -12.138  11.632  70.619  1.00  0.00    -0.432 A  
HETATM   18  C   UNL     1     -11.673  10.353  70.268  1.00  0.00    -0.321 A  
HETATM   19  C   UNL     1     -10.942  11.250  68.126  1.00  0.00    -0.284 A  
HETATM   20  C   UNL     1     -12.017  12.706  69.742  1.00  0.00    -0.365 A  
HETATM   21  C   UNL     1     -11.423  12.510  68.500  1.00  0.00    -0.305 A  
BRANCH  18  22
HETATM   22  O   UNL     1     -11.778   9.276  71.112  1.00  0.00    -0.283 OA 
BRANCH  22  23
HETATM   23  C   UNL     1     -12.945   9.192  71.932  1.00  0.00    -0.404 C  
HETATM   24  C   UNL     1     -13.684   7.905  71.620  1.00  0.00    -0.422 C  
ENDBRANCH  22  23
ENDBRANCH  18  22
BRANCH  21  25
HETATM   25  S   UNL     1     -11.482  13.821  67.308  1.00  0.00    -0.361 S  
HETATM   26  O   UNL     1     -12.592  14.675  67.671  1.00  0.00     0.133 OA 
HETATM   27  O   UNL     1     -11.413  13.207  66.001  1.00  0.00    -0.314 OA 
BRANCH  25  28
HETATM   28  N   UNL     1     -10.034  14.684  67.597  1.00  0.00    -0.226 N  
HETATM   29  C   UNL     1      -9.400  14.517  68.944  1.00  0.00    -0.136 C  
HETATM   30  C   UNL     1      -8.607  13.191  69.066  1.00  0.00     0.455 C  
HETATM   31  N   UNL     1      -7.646  12.921  67.971  1.00  0.00    -0.123 NA 
HETATM   32  C   UNL     1      -8.321  13.117  66.669  1.00  0.00     0.209 C  
HETATM   33  C   UNL     1      -9.004  14.490  66.525  1.00  0.00    -0.180 C  
BRANCH  31  34
HETATM   34  C   UNL     1      -6.424  13.720  68.137  1.00  0.00    -0.124 C  
HETATM   35  C   UNL     1      -5.882  13.726  69.563  1.00  0.00    -0.101 C  
ENDBRANCH  31  34
ENDBRANCH  25  28
ENDBRANCH  21  25
ENDBRANCH  11  16
ENDBRANCH   3   4
ENDBRANCH   2   3
TORSDOF 8
ENDMDL
MODEL      162
REMARK 921   NORMALIZED FREE ENERGY PREDICTED BY IDOCK:   -3.87 KCAL/MOL
REMARK 922        TOTAL FREE ENERGY PREDICTED BY IDOCK:   -6.68 KCAL/MOL
REMARK 923 INTER-LIGAND FREE ENERGY PREDICTED BY IDOCK:   -6.63 KCAL/MOL
REMARK 924 INTRA-LIGAND FREE ENERGY PREDICTED BY IDOCK:   -0.05 KCAL/MOL
REMARK 927      BINDING AFFINITY PREDICTED BY RF-SCORE:    0.00 PKD
ROOT
HETATM    1  C   UNL     1     -12.836  15.711  70.493  1.00  0.00    -0.334 C  
HETATM    2  C   UNL     1     -11.608  14.980  71.023  1.00  0.00    -0.367 C  
ENDROOT
BRANCH   2   3
HETATM    3  C   UNL     1     -10.282  15.571  70.539  1.00  0.00     0.096 C  
BRANCH   3   4
HETATM    4  C   UNL     1     -10.355  16.122  69.153  1.00  0.00    -0.259 A  
HETATM    5  N   UNL     1     -10.471  17.402  68.853  1.00  0.00    -0.340 NA 
HETATM    6  C   UNL     1     -10.484  17.472  67.482  1.00  0.00    -0.355 A  
HETATM    7  C   UNL     1     -10.384  16.205  66.947  1.00  0.00    -0.297 A  
HETATM    8  C   UNL     1     -10.589  18.773  66.784  1.00  0.00    -0.458 C  
HETATM    9  N   UNL     1     -10.294  15.365  68.005  1.00  0.00    -0.245 NA 
HETATM   10  N   UNL     1     -10.116  14.017  67.860  1.00  0.00    -0.232 NA 
HETATM   11  C   UNL     1     -10.226  13.576  66.547  1.00  0.00    -0.283 C  
HETATM   12  N   UNL     1     -10.336  14.344  65.507  1.00  0.00    -0.341 N  
HETATM   13  O   UNL     1     -10.367  16.447  64.628  1.00  0.00    -0.383 OA 
HETATM   14  H   UNL     1     -10.412  13.915  64.585  1.00  0.00     0.000 HD 
HETATM   15  C   UNL     1     -10.353  15.714  65.606  1.00  0.00    -0.385 C  
BRANCH  11  16
HETATM   16  C   UNL     1     -10.222  12.082  66.296  1.00  0.00    -0.251 A  
HETATM   17  C   UNL     1     -11.081   9.828  66.626  1.00  0.00     0.304 A  
HETATM   18  C   UNL     1     -11.152  11.204  66.904  1.00  0.00    -0.247 A  
HETATM   19  C   UNL     1      -9.226  11.555  65.456  1.00  0.00    -0.156 A  
HETATM   20  C   UNL     1     -10.099   9.315  65.783  1.00  0.00    -0.092 A  
HETATM   21  C   UNL     1      -9.176  10.179  65.205  1.00  0.00    -0.213 A  
BRANCH  18  22
HETATM   22  O   UNL     1     -12.108  11.738  67.730  1.00  0.00    -0.595 OA 
BRANCH  22  23
HETATM   23  C   UNL     1     -12.229  11.187  69.042  1.00  0.00    -0.125 C  
HETATM   24  C   UNL     1     -10.860  11.138  69.692  1.00  0.00    -0.200 C  
ENDBRANCH  22  23
ENDBRANCH  18  22
BRANCH  21  25
HETATM   25  S   UNL     1      -7.798   9.493  64.324  1.00  0.00    -0.138 S  
HETATM   26  O   UNL     1      -7.569  10.337  63.172  1.00  0.00    -0.148 OA 
HETATM   27  O   UNL     1      -8.058   8.079  64.169  1.00  0.00    -0.144 OA 
BRANCH  25  28
HETATM   28  N   UNL     1      -6.492   9.706  65.405  1.00  0.00    -0.076 N  
HETATM   29  C   UNL     1      -6.820  10.196  66.782  1.00  0.00    -0.086 C  
HETATM   30  C   UNL     1      -7.365   9.070  67.698  1.00  0.00    -0.084 C  
HETATM   31  N   UNL     1      -6.551   7.833  67.738  1.00  0.00    -0.058 NA 
HETATM   32  C   UNL     1      -6.243   7.406  66.354  1.00  0.00    -0.041 C  
HETATM   33  C   UNL     1      -5.595   8.508  65.495  1.00  0.00    -0.043 C  
BRANCH  31  34
HETATM   34  C   UNL     1      -5.365   8.012  68.586  1.00  0.00    -0.028 C  
HETATM   35  C   UNL     1      -5.633   7.798  70.072  1.00  0.00    -0.023 C  
ENDBRANCH  31  34
ENDBRANCH  25  28
ENDBRANCH  21  25
ENDBRANCH  11  16
ENDBRANCH   3   4
ENDBRANCH   2   3
TORSDOF 8
ENDMDL
MODEL      163
REMARK 921   NORMALIZED FREE ENERGY PREDICTED BY IDOCK:   -3.84 KCAL/MOL
REMARK 922        TOTAL FREE ENERGY PREDICTED BY IDOCK:   -6.64 KCAL/MOL
REMARK 923 INTER-LIGAND FREE ENERGY PREDICTED BY IDOCK:   -6.09 KCAL/MOL
REMARK 924 INTRA-LIGAND FREE ENERGY PREDICTED BY IDOCK:   -0.55 KCAL/MOL
REMARK 927      BINDING AFFINITY PREDICTED BY RF-SCORE:    0.00 PKD
ROOT
HETATM    1  C   UNL     1     -12.648  13.862  65.221  1.00  0.00    -0.508 C  
HETATM    2  C   UNL     1     -11.710  14.803  65.966  1.00  0.00    -0.248 C  
ENDROOT
BRANCH   2   3
HETATM    3  C   UNL     1     -10.395  15.074  65.232  1.00  0.00    -0.424 C  
BRANCH   3   4
HETATM    4  C   UNL     1      -9.255  15.358  66.153  1.00  0.00    -0.327 A  
HETATM    5  N   UNL     1      -8.674  16.534  66.299  1.00  0.00    -0.315 NA 
HETATM    6  C   UNL     1      -7.696  16.360  67.247  1.00  0.00    -0.163 A  
HETATM    7  C   UNL     1      -7.682  15.048  67.672  1.00  0.00    -0.168 A  
HETATM    8  C   UNL     1      -6.841  17.488  67.679  1.00  0.00    -0.175 C  
HETATM    9  N   UNL     1      -8.672  14.429  66.986  1.00  0.00    -0.227 NA 
HETATM   10  N   UNL     1      -9.002  13.118  67.194  1.00  0.00    -0.220 NA 
HETATM   11  C   UNL     1      -8.115  12.443  68.024  1.00  0.00    -0.162 C  
HETATM   12  N   UNL     1      -7.141  12.993  68.682  1.00  0.00    -0.100 N  
HETATM   13  O   UNL     1      -6.026  14.881  69.305  1.00  0.00    -0.099 OA 
HETATM   14  H   UNL     1      -6.545  12.403  69.263  1.00  0.00     0.000 HD 
HETATM   15  C   UNL     1      -6.884  14.340  68.621  1.00  0.00    -0.098 C  
BRANCH  11  16
HETATM   16  C   UNL     1      -8.285  10.945  68.179  1.00  0.00    -0.121 A  
HETATM   17  C   UNL     1      -7.907   8.640  67.492  1.00  0.00    -0.102 A  
HETATM   18  C   UNL     1      -7.699  10.015  67.286  1.00  0.00    -0.095 A  
HETATM   19  C   UNL     1      -9.091  10.476  69.230  1.00  0.00    -0.161 A  
HETATM   20  C   UNL     1      -8.697   8.183  68.543  1.00  0.00    -0.134 A  
HETATM   21  C   UNL     1      -9.287   9.102  69.404  1.00  0.00    -0.160 A  
BRANCH  18  22
HETATM   22  O   UNL     1      -6.925  10.495  66.260  1.00  0.00    -0.113 OA 
BRANCH  22  23
HETATM   23  C   UNL     1      -6.491   9.561  65.269  1.00  0.00    -0.078 C  
HETATM   24  C   UNL     1      -7.301   9.762  64.003  1.00  0.00    -0.128 C  
ENDBRANCH  22  23
ENDBRANCH  18  22
BRANCH  21  25
HETATM   25  S   UNL     1     -10.470   8.523  70.591  1.00  0.00    -0.209 S  
HETATM   26  O   UNL     1     -10.817   7.169  70.219  1.00  0.00    -0.235 OA 
HETATM   27  O   UNL     1     -11.487   9.545  70.707  1.00  0.00    -0.270 OA 
BRANCH  25  28
HETATM   28  N   UNL     1      -9.573   8.460  72.045  1.00  0.00    -0.246 N  
HETATM   29  C   UNL     1     -10.325   8.114  73.294  1.00  0.00     0.083 C  
HETATM   30  C   UNL     1     -10.594   6.592  73.420  1.00  0.00    -0.309 C  
HETATM   31  N   UNL     1      -9.411   5.719  73.233  1.00  0.00    -0.136 NA 
HETATM   32  C   UNL     1      -8.701   6.118  71.998  1.00  0.00    -0.135 C  
HETATM   33  C   UNL     1      -8.340   7.614  71.945  1.00  0.00    -0.109 C  
BRANCH  31  34
HETATM   34  C   UNL     1      -8.566   5.716  74.435  1.00  0.00    -0.114 C  
HETATM   35  C   UNL     1      -7.077   5.566  74.140  1.00  0.00    -0.082 C  
ENDBRANCH  31  34
ENDBRANCH  25  28
ENDBRANCH  21  25
ENDBRANCH  11  16
ENDBRANCH   3   4
ENDBRANCH   2   3
TORSDOF 8
ENDMDL
MODEL      164
REMARK 921   NORMALIZED FREE ENERGY PREDICTED BY IDOCK:   -3.72 KCAL/MOL
REMARK 922        TOTAL FREE ENERGY PREDICTED BY IDOCK:   -6.47 KCAL/MOL
REMARK 923 INTER-LIGAND FREE ENERGY PREDICTED BY IDOCK:   -5.40 KCAL/MOL
REMARK 924 INTRA-LIGAND FREE ENERGY PREDICTED BY IDOCK:   -1.06 KCAL/MOL
REMARK 927      BINDING AFFINITY PREDICTED BY RF-SCORE:    0.00 PKD
ROOT
HETATM    1  C   UNL     1      -8.339  17.696  67.258  1.00  0.00    -0.225 C  
HETATM    2  C   UNL     1      -9.753  17.434  66.756  1.00  0.00    -0.293 C  
ENDROOT
BRANCH   2   3
HETATM    3  C   UNL     1     -10.057  15.954  66.510  1.00  0.00    -0.293 C  
BRANCH   3   4
HETATM    4  C   UNL     1     -10.766  15.303  67.650  1.00  0.00    -0.282 A  
HETATM    5  N   UNL     1     -11.731  15.858  68.359  1.00  0.00    -0.321 NA 
HETATM    6  C   UNL     1     -12.112  14.920  69.286  1.00  0.00    -0.251 A  
HETATM    7  C   UNL     1     -11.351  13.779  69.137  1.00  0.00    -0.281 A  
HETATM    8  C   UNL     1     -13.196  15.198  70.254  1.00  0.00    -0.051 C  
HETATM    9  N   UNL     1     -10.516  14.026  68.101  1.00  0.00    -0.237 NA 
HETATM   10  N   UNL     1      -9.647  13.086  67.617  1.00  0.00    -0.200 NA 
HETATM   11  C   UNL     1      -9.571  11.940  68.398  1.00  0.00    -0.196 C  
HETATM   12  N   UNL     1     -10.336  11.673  69.412  1.00  0.00    -0.426 N  
HETATM   13  O   UNL     1     -12.113  12.245  70.721  1.00  0.00    -0.340 OA 
HETATM   14  H   UNL     1     -10.193  10.800  69.920  1.00  0.00     0.000 HD 
HETATM   15  C   UNL     1     -11.331  12.526  69.824  1.00  0.00    -0.040 C  
BRANCH  11  16
HETATM   16  C   UNL     1      -8.512  10.913  68.052  1.00  0.00    -0.130 A  
HETATM   17  C   UNL     1      -6.238  10.043  68.107  1.00  0.00    -0.053 A  
HETATM   18  C   UNL     1      -7.165  11.035  68.472  1.00  0.00    -0.085 A  
HETATM   19  C   UNL     1      -8.886   9.822  67.250  1.00  0.00    -0.139 A  
HETATM   20  C   UNL     1      -6.619   8.959  67.321  1.00  0.00    -0.062 A  
HETATM   21  C   UNL     1      -7.939   8.855  66.894  1.00  0.00    -0.101 A  
BRANCH  18  22
HETATM   22  O   UNL     1      -6.819  12.114  69.246  1.00  0.00    -0.103 OA 
BRANCH  22  23
HETATM   23  C   UNL     1      -5.770  12.958  68.768  1.00  0.00    -0.068 C  
HETATM   24  C   UNL     1      -6.374  14.193  68.128  1.00  0.00    -0.132 C  
ENDBRANCH  22  23
ENDBRANCH  18  22
BRANCH  21  25
HETATM   25  S   UNL     1      -8.358   7.602  65.711  1.00  0.00    -0.145 S  
HETATM   26  O   UNL     1      -7.164   6.819  65.482  1.00  0.00    -0.072 OA 
HETATM   27  O   UNL     1      -9.033   8.264  64.617  1.00  0.00     0.125 OA 
BRANCH  25  28
HETATM   28  N   UNL     1      -9.480   6.625  66.551  1.00  0.00    -0.164 N  
HETATM   29  C   UNL     1      -9.852   5.319  65.919  1.00  0.00    -0.088 C  
HETATM   30  C   UNL     1      -8.773   4.227  66.137  1.00  0.00    -0.114 C  
HETATM   31  N   UNL     1      -8.321   4.048  67.537  1.00  0.00    -0.097 NA 
HETATM   32  C   UNL     1      -7.985   5.369  68.113  1.00  0.00    -0.095 C  
HETATM   33  C   UNL     1      -9.117   6.406  67.989  1.00  0.00    -0.113 C  
BRANCH  31  34
HETATM   34  C   UNL     1      -9.310   3.290  68.315  1.00  0.00    -0.184 C  
HETATM   35  C   UNL     1      -8.821   2.878  69.699  1.00  0.00    -0.147 C  
ENDBRANCH  31  34
ENDBRANCH  25  28
ENDBRANCH  21  25
ENDBRANCH  11  16
ENDBRANCH   3   4
ENDBRANCH   2   3
TORSDOF 8
ENDMDL
MODEL      165
REMARK 921   NORMALIZED FREE ENERGY PREDICTED BY IDOCK:   -3.70 KCAL/MOL
REMARK 922        TOTAL FREE ENERGY PREDICTED BY IDOCK:   -6.44 KCAL/MOL
REMARK 923 INTER-LIGAND FREE ENERGY PREDICTED BY IDOCK:   -6.64 KCAL/MOL
REMARK 924 INTRA-LIGAND FREE ENERGY PREDICTED BY IDOCK:    0.21 KCAL/MOL
REMARK 927      BINDING AFFINITY PREDICTED BY RF-SCORE:    0.00 PKD
ROOT
HETATM    1  C   UNL     1      -7.616   4.126  65.660  1.00  0.00    -0.085 C  
HETATM    2  C   UNL     1      -8.302   4.552  66.952  1.00  0.00    -0.105 C  
ENDROOT
BRANCH   2   3
HETATM    3  C   UNL     1      -8.588   6.053  67.035  1.00  0.00    -0.107 C  
BRANCH   3   4
HETATM    4  C   UNL     1      -7.893   6.721  68.175  1.00  0.00    -0.113 A  
HETATM    5  N   UNL     1      -6.947   6.171  68.913  1.00  0.00    -0.070 NA 
HETATM    6  C   UNL     1      -6.573   7.125  69.827  1.00  0.00    -0.044 A  
HETATM    7  C   UNL     1      -7.319   8.270  69.640  1.00  0.00    -0.073 A  
HETATM    8  C   UNL     1      -5.510   6.857  70.820  1.00  0.00    -0.023 C  
HETATM    9  N   UNL     1      -8.137   8.010  68.594  1.00  0.00    -0.123 NA 
HETATM   10  N   UNL     1      -8.987   8.947  68.074  1.00  0.00    -0.139 NA 
HETATM   11  C   UNL     1      -9.066  10.111  68.830  1.00  0.00    -0.153 C  
HETATM   12  N   UNL     1      -8.317  10.391  69.852  1.00  0.00    -0.369 N  
HETATM   13  O   UNL     1      -6.570   9.829  71.205  1.00  0.00    -0.301 OA 
HETATM   14  H   UNL     1      -8.460  11.276  70.339  1.00  0.00     0.000 HD 
HETATM   15  C   UNL     1      -7.339   9.537  70.300  1.00  0.00    -0.133 C  
BRANCH  11  16
HETATM   16  C   UNL     1     -10.107  11.141  68.443  1.00  0.00    -0.193 A  
HETATM   17  C   UNL     1     -12.137  12.425  68.844  1.00  0.00    -0.171 A  
HETATM   18  C   UNL     1     -11.208  11.462  69.274  1.00  0.00    -0.277 A  
HETATM   19  C   UNL     1      -9.986  11.767  67.191  1.00  0.00    -0.221 A  
HETATM   20  C   UNL     1     -12.003  13.049  67.606  1.00  0.00    -0.353 A  
HETATM   21  C   UNL     1     -10.932  12.715  66.785  1.00  0.00    -0.262 A  
BRANCH  18  22
HETATM   22  O   UNL     1     -11.314  10.831  70.488  1.00  0.00    -0.307 OA 
BRANCH  22  23
HETATM   23  C   UNL     1     -12.392   9.910  70.661  1.00  0.00    -0.214 C  
HETATM   24  C   UNL     1     -11.837   8.502  70.753  1.00  0.00    -0.184 C  
ENDBRANCH  22  23
ENDBRANCH  18  22
BRANCH  21  25
HETATM   25  S   UNL     1     -10.899  13.341  65.127  1.00  0.00    -0.325 S  
HETATM   26  O   UNL     1     -12.244  13.764  64.806  1.00  0.00    -0.382 OA 
HETATM   27  O   UNL     1     -10.217  12.355  64.317  1.00  0.00    -0.328 OA 
BRANCH  25  28
HETATM   28  N   UNL     1      -9.920  14.737  65.250  1.00  0.00    -0.345 N  
HETATM   29  C   UNL     1     -10.589  16.059  65.033  1.00  0.00    -0.316 C  
HETATM   30  C   UNL     1     -11.382  16.533  66.278  1.00  0.00     0.599 C  
HETATM   31  N   UNL     1     -10.635  16.500  67.558  1.00  0.00    -0.321 NA 
HETATM   32  C   UNL     1      -9.983  15.181  67.709  1.00  0.00    -0.225 C  
HETATM   33  C   UNL     1      -9.106  14.781  66.508  1.00  0.00    -0.260 C  
BRANCH  31  34
HETATM   34  C   UNL     1      -9.712  17.639  67.656  1.00  0.00    -0.277 C  
HETATM   35  C   UNL     1     -10.277  18.940  67.095  1.00  0.00    -0.445 C  
ENDBRANCH  31  34
ENDBRANCH  25  28
ENDBRANCH  21  25
ENDBRANCH  11  16
ENDBRANCH   3   4
ENDBRANCH   2   3
TORSDOF 8
ENDMDL
MODEL      166
REMARK 921   NORMALIZED FREE ENERGY PREDICTED BY IDOCK:   -3.69 KCAL/MOL
REMARK 922        TOTAL FREE ENERGY PREDICTED BY IDOCK:   -6.43 KCAL/MOL
REMARK 923 INTER-LIGAND FREE ENERGY PREDICTED BY IDOCK:   -5.42 KCAL/MOL
REMARK 924 INTRA-LIGAND FREE ENERGY PREDICTED BY IDOCK:   -1.01 KCAL/MOL
REMARK 927      BINDING AFFINITY PREDICTED BY RF-SCORE:    0.00 PKD
ROOT
HETATM    1  C   UNL     1      -5.756   6.667  68.199  1.00  0.00    -0.012 C  
HETATM    2  C   UNL     1      -5.949   8.178  68.192  1.00  0.00    -0.042 C  
ENDROOT
BRANCH   2   3
HETATM    3  C   UNL     1      -6.770   8.690  67.007  1.00  0.00    -0.062 C  
BRANCH   3   4
HETATM    4  C   UNL     1      -7.710   9.791  67.375  1.00  0.00    -0.095 A  
HETATM    5  N   UNL     1      -7.665  11.018  66.892  1.00  0.00    -0.133 NA 
HETATM    6  C   UNL     1      -8.709  11.695  67.474  1.00  0.00    -0.156 A  
HETATM    7  C   UNL     1      -9.388  10.858  68.333  1.00  0.00    -0.172 A  
HETATM    8  C   UNL     1      -8.975  13.114  67.149  1.00  0.00    -0.228 C  
HETATM    9  N   UNL     1      -8.759   9.662  68.256  1.00  0.00    -0.119 NA 
HETATM   10  N   UNL     1      -9.199   8.556  68.931  1.00  0.00    -0.146 NA 
HETATM   11  C   UNL     1     -10.220   8.821  69.835  1.00  0.00    -0.200 C  
HETATM   12  N   UNL     1     -10.835   9.957  69.957  1.00  0.00    -0.272 N  
HETATM   13  O   UNL     1     -11.157  12.092  69.222  1.00  0.00    -0.234 OA 
HETATM   14  H   UNL     1     -11.572  10.046  70.656  1.00  0.00     0.000 HD 
HETATM   15  C   UNL     1     -10.526  11.045  69.177  1.00  0.00    -0.210 C  
BRANCH  11  16
HETATM   16  C   UNL     1     -10.659   7.704  70.760  1.00  0.00    -0.224 A  
HETATM   17  C   UNL     1     -12.293   6.572  72.166  1.00  0.00    -0.244 A  
HETATM   18  C   UNL     1     -11.962   7.637  71.310  1.00  0.00    -0.306 A  
HETATM   19  C   UNL     1      -9.714   6.725  71.110  1.00  0.00    -0.181 A  
HETATM   20  C   UNL     1     -11.354   5.599  72.498  1.00  0.00    -0.349 A  
HETATM   21  C   UNL     1     -10.070   5.682  71.972  1.00  0.00    -0.185 A  
BRANCH  18  22
HETATM   22  O   UNL     1     -12.866   8.609  70.964  1.00  0.00    -0.151 OA 
BRANCH  22  23
HETATM   23  C   UNL     1     -13.630   9.204  72.015  1.00  0.00    -0.459 C  
HETATM   24  C   UNL     1     -13.391  10.701  72.021  1.00  0.00    -0.409 C  
ENDBRANCH  22  23
ENDBRANCH  18  22
BRANCH  21  25
HETATM   25  S   UNL     1      -8.825   4.576  72.580  1.00  0.00    -0.113 S  
HETATM   26  O   UNL     1      -9.171   4.259  73.948  1.00  0.00    -0.100 OA 
HETATM   27  O   UNL     1      -7.544   5.163  72.254  1.00  0.00    -0.091 OA 
BRANCH  25  28
HETATM   28  N   UNL     1      -9.051   3.169  71.636  1.00  0.00    -0.099 N  
HETATM   29  C   UNL     1      -9.351   3.365  70.182  1.00  0.00    -0.174 C  
HETATM   30  C   UNL     1      -8.082   3.690  69.353  1.00  0.00    -0.053 C  
HETATM   31  N   UNL     1      -6.937   2.770  69.556  1.00  0.00    -0.037 NA 
HETATM   32  C   UNL     1      -6.698   2.601  71.007  1.00  0.00    -0.031 C  
HETATM   33  C   UNL     1      -7.948   2.165  71.794  1.00  0.00    -0.045 C  
BRANCH  31  34
HETATM   34  C   UNL     1      -7.143   1.509  68.832  1.00  0.00    -0.036 C  
HETATM   35  C   UNL     1      -7.198   1.670  67.317  1.00  0.00    -0.050 C  
ENDBRANCH  31  34
ENDBRANCH  25  28
ENDBRANCH  21  25
ENDBRANCH  11  16
ENDBRANCH   3   4
ENDBRANCH   2   3
TORSDOF 8
ENDMDL
MODEL      167
REMARK 921   NORMALIZED FREE ENERGY PREDICTED BY IDOCK:   -3.65 KCAL/MOL
REMARK 922        TOTAL FREE ENERGY PREDICTED BY IDOCK:   -6.36 KCAL/MOL
REMARK 923 INTER-LIGAND FREE ENERGY PREDICTED BY IDOCK:   -6.26 KCAL/MOL
REMARK 924 INTRA-LIGAND FREE ENERGY PREDICTED BY IDOCK:   -0.10 KCAL/MOL
REMARK 927      BINDING AFFINITY PREDICTED BY RF-SCORE:    0.00 PKD
ROOT
HETATM    1  C   UNL     1     -11.811  15.459  65.023  1.00  0.00    -0.019 C  
HETATM    2  C   UNL     1     -12.540  14.240  65.576  1.00  0.00    -0.429 C  
ENDROOT
BRANCH   2   3
HETATM    3  C   UNL     1     -11.653  13.001  65.715  1.00  0.00    -0.396 C  
BRANCH   3   4
HETATM    4  C   UNL     1     -11.575  12.488  67.115  1.00  0.00    -0.368 A  
HETATM    5  N   UNL     1     -12.063  13.105  68.175  1.00  0.00    -0.269 NA 
HETATM    6  C   UNL     1     -11.794  12.289  69.247  1.00  0.00    -0.306 A  
HETATM    7  C   UNL     1     -11.122  11.163  68.821  1.00  0.00    -0.236 A  
HETATM    8  C   UNL     1     -12.217  12.662  70.615  1.00  0.00    -0.373 C  
HETATM    9  N   UNL     1     -10.998  11.293  67.480  1.00  0.00    -0.247 NA 
HETATM   10  N   UNL     1     -10.433  10.324  66.696  1.00  0.00    -0.218 NA 
HETATM   11  C   UNL     1      -9.837   9.297  67.419  1.00  0.00    -0.178 C  
HETATM   12  N   UNL     1      -9.912   9.147  68.706  1.00  0.00    -0.171 N  
HETATM   13  O   UNL     1     -10.764   9.836  70.706  1.00  0.00    -0.303 OA 
HETATM   14  H   UNL     1      -9.434   8.356  69.137  1.00  0.00     0.000 HD 
HETATM   15  C   UNL     1     -10.613  10.017  69.506  1.00  0.00    -0.244 C  
BRANCH  11  16
HETATM   16  C   UNL     1      -9.030   8.267  66.657  1.00  0.00    -0.179 A  
HETATM   17  C   UNL     1      -8.032   7.366  64.626  1.00  0.00    -0.127 A  
HETATM   18  C   UNL     1      -8.786   8.366  65.265  1.00  0.00    -0.113 A  
HETATM   19  C   UNL     1      -8.544   7.153  67.362  1.00  0.00    -0.121 A  
HETATM   20  C   UNL     1      -7.544   6.272  65.335  1.00  0.00    -0.088 A  
HETATM   21  C   UNL     1      -7.804   6.169  66.697  1.00  0.00    -0.104 A  
BRANCH  18  22
HETATM   22  O   UNL     1      -9.279   9.455  64.593  1.00  0.00    -0.220 OA 
BRANCH  22  23
HETATM   23  C   UNL     1      -8.769   9.709  63.283  1.00  0.00    -0.230 C  
HETATM   24  C   UNL     1      -9.050  11.151  62.907  1.00  0.00    -0.324 C  
ENDBRANCH  22  23
ENDBRANCH  18  22
BRANCH  21  25
HETATM   25  S   UNL     1      -7.378   4.666  67.537  1.00  0.00    -0.074 S  
HETATM   26  O   UNL     1      -6.525   5.028  68.647  1.00  0.00    -0.034 OA 
HETATM   27  O   UNL     1      -6.930   3.732  66.529  1.00  0.00    -0.056 OA 
BRANCH  25  28
HETATM   28  N   UNL     1      -8.873   4.130  68.170  1.00  0.00    -0.104 N  
HETATM   29  C   UNL     1      -9.189   2.673  68.029  1.00  0.00    -0.205 C  
HETATM   30  C   UNL     1      -8.456   1.804  69.083  1.00  0.00    -0.051 C  
HETATM   31  N   UNL     1      -8.590   2.259  70.487  1.00  0.00    -0.050 NA 
HETATM   32  C   UNL     1      -8.284   3.705  70.562  1.00  0.00    -0.053 C  
HETATM   33  C   UNL     1      -9.108   4.565  69.585  1.00  0.00    -0.109 C  
BRANCH  31  34
HETATM   34  C   UNL     1      -9.904   1.897  71.034  1.00  0.00    -0.028 C  
HETATM   35  C   UNL     1     -10.128   2.375  72.465  1.00  0.00    -0.228 C  
ENDBRANCH  31  34
ENDBRANCH  25  28
ENDBRANCH  21  25
ENDBRANCH  11  16
ENDBRANCH   3   4
ENDBRANCH   2   3
TORSDOF 8
ENDMDL
MODEL      168
REMARK 921   NORMALIZED FREE ENERGY PREDICTED BY IDOCK:   -3.65 KCAL/MOL
REMARK 922        TOTAL FREE ENERGY PREDICTED BY IDOCK:   -6.36 KCAL/MOL
REMARK 923 INTER-LIGAND FREE ENERGY PREDICTED BY IDOCK:   -5.65 KCAL/MOL
REMARK 924 INTRA-LIGAND FREE ENERGY PREDICTED BY IDOCK:   -0.71 KCAL/MOL
REMARK 927      BINDING AFFINITY PREDICTED BY RF-SCORE:    0.00 PKD
ROOT
HETATM    1  C   UNL     1     -11.762  13.051  64.466  1.00  0.00    -0.419 C  
HETATM    2  C   UNL     1     -11.893  13.050  65.984  1.00  0.00    -0.471 C  
ENDROOT
BRANCH   2   3
HETATM    3  C   UNL     1     -11.343  11.787  66.651  1.00  0.00    -0.381 C  
BRANCH   3   4
HETATM    4  C   UNL     1      -9.970  11.968  67.208  1.00  0.00    -0.194 A  
HETATM    5  N   UNL     1      -9.246  13.066  67.097  1.00  0.00    -0.218 NA 
HETATM    6  C   UNL     1      -8.070  12.816  67.759  1.00  0.00    -0.168 A  
HETATM    7  C   UNL     1      -8.083  11.535  68.271  1.00  0.00    -0.148 A  
HETATM    8  C   UNL     1      -7.011  13.846  67.852  1.00  0.00    -0.165 C  
HETATM    9  N   UNL     1      -9.285  11.015  67.928  1.00  0.00    -0.151 NA 
HETATM   10  N   UNL     1      -9.686   9.768  68.324  1.00  0.00    -0.144 NA 
HETATM   11  C   UNL     1      -8.684   9.027  68.939  1.00  0.00    -0.136 C  
HETATM   12  N   UNL     1      -7.513   9.480  69.265  1.00  0.00    -0.074 N  
HETATM   13  O   UNL     1      -6.070  11.239  69.410  1.00  0.00    -0.058 OA 
HETATM   14  H   UNL     1      -6.849   8.848  69.713  1.00  0.00     0.000 HD 
HETATM   15  C   UNL     1      -7.136  10.779  69.028  1.00  0.00    -0.091 C  
BRANCH  11  16
HETATM   16  C   UNL     1      -8.968   7.573  69.256  1.00  0.00    -0.136 A  
HETATM   17  C   UNL     1      -9.876   5.799  70.655  1.00  0.00    -0.240 A  
HETATM   18  C   UNL     1      -9.655   7.168  70.426  1.00  0.00    -0.169 A  
HETATM   19  C   UNL     1      -8.491   6.596  68.366  1.00  0.00    -0.125 A  
HETATM   20  C   UNL     1      -9.410   4.838  69.762  1.00  0.00    -0.208 A  
HETATM   21  C   UNL     1      -8.718   5.240  68.625  1.00  0.00    -0.093 A  
BRANCH  18  22
HETATM   22  O   UNL     1     -10.103   8.137  71.288  1.00  0.00    -0.188 OA 
BRANCH  22  23
HETATM   23  C   UNL     1     -11.424   7.995  71.813  1.00  0.00    -0.277 C  
HETATM   24  C   UNL     1     -11.352   7.324  73.171  1.00  0.00    -0.173 C  
ENDBRANCH  22  23
ENDBRANCH  18  22
BRANCH  21  25
HETATM   25  S   UNL     1      -7.934   4.007  67.621  1.00  0.00    -0.090 S  
HETATM   26  O   UNL     1      -7.254   3.099  68.518  1.00  0.00    -0.049 OA 
HETATM   27  O   UNL     1      -7.211   4.706  66.582  1.00  0.00    -0.077 OA 
BRANCH  25  28
HETATM   28  N   UNL     1      -9.251   3.172  66.919  1.00  0.00    -0.172 N  
HETATM   29  C   UNL     1     -10.028   3.892  65.861  1.00  0.00    -0.074 C  
HETATM   30  C   UNL     1      -9.313   3.874  64.485  1.00  0.00    -0.155 C  
HETATM   31  N   UNL     1      -8.861   2.541  64.021  1.00  0.00    -0.091 NA 
HETATM   32  C   UNL     1      -8.116   1.871  65.110  1.00  0.00    -0.079 C  
HETATM   33  C   UNL     1      -8.893   1.798  66.438  1.00  0.00    -0.116 C  
BRANCH  31  34
HETATM   34  C   UNL     1      -9.988   1.758  63.497  1.00  0.00    -0.128 C  
HETATM   35  C   UNL     1     -11.019   2.591  62.743  1.00  0.00    -0.197 C  
ENDBRANCH  31  34
ENDBRANCH  25  28
ENDBRANCH  21  25
ENDBRANCH  11  16
ENDBRANCH   3   4
ENDBRANCH   2   3
TORSDOF 8
ENDMDL
MODEL      169
REMARK 921   NORMALIZED FREE ENERGY PREDICTED BY IDOCK:   -3.64 KCAL/MOL
REMARK 922        TOTAL FREE ENERGY PREDICTED BY IDOCK:   -6.35 KCAL/MOL
REMARK 923 INTER-LIGAND FREE ENERGY PREDICTED BY IDOCK:   -5.53 KCAL/MOL
REMARK 924 INTRA-LIGAND FREE ENERGY PREDICTED BY IDOCK:   -0.82 KCAL/MOL
REMARK 927      BINDING AFFINITY PREDICTED BY RF-SCORE:    0.00 PKD
ROOT
HETATM    1  C   UNL     1      -5.717   5.103  72.322  1.00  0.00    -0.017 C  
HETATM    2  C   UNL     1      -6.202   3.658  72.325  1.00  0.00    -0.013 C  
ENDROOT
BRANCH   2   3
HETATM    3  C   UNL     1      -7.240   3.353  71.243  1.00  0.00    -0.033 C  
BRANCH   3   4
HETATM    4  C   UNL     1      -8.562   3.999  71.499  1.00  0.00    -0.104 A  
HETATM    5  N   UNL     1      -9.337   3.750  72.537  1.00  0.00    -0.116 NA 
HETATM    6  C   UNL     1     -10.435   4.562  72.396  1.00  0.00    -0.168 A  
HETATM    7  C   UNL     1     -10.321   5.307  71.241  1.00  0.00    -0.222 A  
HETATM    8  C   UNL     1     -11.522   4.559  73.400  1.00  0.00    -0.322 C  
HETATM    9  N   UNL     1      -9.136   4.954  70.691  1.00  0.00    -0.124 NA 
HETATM   10  N   UNL     1      -8.649   5.541  69.555  1.00  0.00    -0.104 NA 
HETATM   11  C   UNL     1      -9.558   6.384  68.927  1.00  0.00    -0.126 C  
HETATM   12  N   UNL     1     -10.711   6.732  69.409  1.00  0.00    -0.238 N  
HETATM   13  O   UNL     1     -12.206   6.677  71.130  1.00  0.00    -0.363 OA 
HETATM   14  H   UNL     1     -11.305   7.357  68.863  1.00  0.00     0.000 HD 
HETATM   15  C   UNL     1     -11.162   6.286  70.628  1.00  0.00    -0.337 C  
BRANCH  11  16
HETATM   16  C   UNL     1      -9.186   6.947  67.571  1.00  0.00    -0.124 A  
HETATM   17  C   UNL     1      -8.459   6.721  65.258  1.00  0.00    -0.067 A  
HETATM   18  C   UNL     1      -8.796   6.125  66.485  1.00  0.00    -0.133 A  
HETATM   19  C   UNL     1      -9.195   8.342  67.408  1.00  0.00    -0.163 A  
HETATM   20  C   UNL     1      -8.482   8.104  65.101  1.00  0.00    -0.134 A  
HETATM   21  C   UNL     1      -8.846   8.908  66.176  1.00  0.00    -0.161 A  
BRANCH  18  22
HETATM   22  O   UNL     1      -8.783   4.765  66.669  1.00  0.00    -0.112 OA 
BRANCH  22  23
HETATM   23  C   UNL     1      -7.755   4.021  66.014  1.00  0.00    -0.090 C  
HETATM   24  C   UNL     1      -6.686   3.648  67.023  1.00  0.00    -0.046 C  
ENDBRANCH  22  23
ENDBRANCH  18  22
BRANCH  21  25
HETATM   25  S   UNL     1      -8.649  10.664  66.036  1.00  0.00    -0.177 S  
HETATM   26  O   UNL     1      -8.073  10.923  64.735  1.00  0.00     0.018 OA 
HETATM   27  O   UNL     1      -7.991  11.113  67.243  1.00  0.00    -0.126 OA 
BRANCH  25  28
HETATM   28  N   UNL     1     -10.258  11.243  66.028  1.00  0.00    -0.239 N  
HETATM   29  C   UNL     1     -10.461  12.694  66.338  1.00  0.00    -0.249 C  
HETATM   30  C   UNL     1     -10.150  13.608  65.125  1.00  0.00    -0.275 C  
HETATM   31  N   UNL     1     -10.806  13.223  63.853  1.00  0.00    -0.255 NA 
HETATM   32  C   UNL     1     -10.588  11.780  63.609  1.00  0.00    -0.439 C  
HETATM   33  C   UNL     1     -11.012  10.881  64.784  1.00  0.00     0.034 C  
BRANCH  31  34
HETATM   34  C   UNL     1     -12.220  13.623  63.851  1.00  0.00    -0.374 C  
HETATM   35  C   UNL     1     -12.455  15.059  64.307  1.00  0.00    -0.130 C  
ENDBRANCH  31  34
ENDBRANCH  25  28
ENDBRANCH  21  25
ENDBRANCH  11  16
ENDBRANCH   3   4
ENDBRANCH   2   3
TORSDOF 8
ENDMDL
MODEL      170
REMARK 921   NORMALIZED FREE ENERGY PREDICTED BY IDOCK:   -3.55 KCAL/MOL
REMARK 922        TOTAL FREE ENERGY PREDICTED BY IDOCK:   -6.21 KCAL/MOL
REMARK 923 INTER-LIGAND FREE ENERGY PREDICTED BY IDOCK:   -5.24 KCAL/MOL
REMARK 924 INTRA-LIGAND FREE ENERGY PREDICTED BY IDOCK:   -0.97 KCAL/MOL
REMARK 927      BINDING AFFINITY PREDICTED BY RF-SCORE:    0.00 PKD
ROOT
HETATM    1  C   UNL     1      -6.125  16.883  67.379  1.00  0.00    -0.180 C  
HETATM    2  C   UNL     1      -6.361  16.766  68.880  1.00  0.00    -0.172 C  
ENDROOT
BRANCH   2   3
HETATM    3  C   UNL     1      -7.828  16.554  69.260  1.00  0.00    -0.121 C  
BRANCH   3   4
HETATM    4  C   UNL     1      -8.707  16.291  68.083  1.00  0.00    -0.182 A  
HETATM    5  N   UNL     1      -9.468  17.192  67.490  1.00  0.00    -0.245 NA 
HETATM    6  C   UNL     1     -10.089  16.543  66.452  1.00  0.00    -0.312 A  
HETATM    7  C   UNL     1      -9.701  15.220  66.428  1.00  0.00    -0.285 A  
HETATM    8  C   UNL     1     -11.019  17.259  65.550  1.00  0.00     0.100 C  
HETATM    9  N   UNL     1      -8.825  15.075  67.449  1.00  0.00    -0.180 NA 
HETATM   10  N   UNL     1      -8.174  13.897  67.698  1.00  0.00    -0.163 NA 
HETATM   11  C   UNL     1      -8.633  12.832  66.933  1.00  0.00    -0.137 C  
HETATM   12  N   UNL     1      -9.487  12.923  65.960  1.00  0.00    -0.438 N  
HETATM   13  O   UNL     1     -10.774  14.233  64.607  1.00  0.00    -0.412 OA 
HETATM   14  H   UNL     1      -9.759  12.075  65.462  1.00  0.00     0.000 HD 
HETATM   15  C   UNL     1     -10.037  14.122  65.577  1.00  0.00    -0.336 C  
BRANCH  11  16
HETATM   16  C   UNL     1      -8.106  11.448  67.251  1.00  0.00    -0.148 A  
HETATM   17  C   UNL     1      -7.237   9.263  66.620  1.00  0.00    -0.082 A  
HETATM   18  C   UNL     1      -7.712  10.532  66.246  1.00  0.00    -0.135 A  
HETATM   19  C   UNL     1      -8.048  11.056  68.600  1.00  0.00    -0.149 A  
HETATM   20  C   UNL     1      -7.172   8.886  67.959  1.00  0.00    -0.083 A  
HETATM   21  C   UNL     1      -7.580   9.783  68.941  1.00  0.00    -0.081 A  
BRANCH  18  22
HETATM   22  O   UNL     1      -7.787  10.930  64.935  1.00  0.00     0.070 OA 
BRANCH  22  23
HETATM   23  C   UNL     1      -8.506  10.090  64.031  1.00  0.00    -0.177 C  
HETATM   24  C   UNL     1      -9.949   9.987  64.484  1.00  0.00    -0.151 C  
ENDBRANCH  22  23
ENDBRANCH  18  22
BRANCH  21  25
HETATM   25  S   UNL     1      -7.710   9.214  70.616  1.00  0.00    -0.146 S  
HETATM   26  O   UNL     1      -9.105   9.301  70.985  1.00  0.00    -0.239 OA 
HETATM   27  O   UNL     1      -6.695   9.909  71.377  1.00  0.00    -0.323 OA 
BRANCH  25  28
HETATM   28  N   UNL     1      -7.292   7.561  70.506  1.00  0.00    -0.074 N  
HETATM   29  C   UNL     1      -5.948   7.162  71.032  1.00  0.00    -0.036 C  
HETATM   30  C   UNL     1      -5.929   7.040  72.578  1.00  0.00    -0.041 C  
HETATM   31  N   UNL     1      -7.013   6.217  73.164  1.00  0.00    -0.079 NA 
HETATM   32  C   UNL     1      -8.312   6.643  72.596  1.00  0.00    -0.108 C  
HETATM   33  C   UNL     1      -8.343   6.645  71.056  1.00  0.00    -0.125 C  
BRANCH  31  34
HETATM   34  C   UNL     1      -6.731   4.784  73.003  1.00  0.00    -0.065 C  
HETATM   35  C   UNL     1      -5.313   4.388  73.401  1.00  0.00    -0.008 C  
ENDBRANCH  31  34
ENDBRANCH  25  28
ENDBRANCH  21  25
ENDBRANCH  11  16
ENDBRANCH   3   4
ENDBRANCH   2   3
TORSDOF 8
ENDMDL
MODEL      171
REMARK 921   NORMALIZED FREE ENERGY PREDICTED BY IDOCK:   -3.51 KCAL/MOL
REMARK 922        TOTAL FREE ENERGY PREDICTED BY IDOCK:   -6.16 KCAL/MOL
REMARK 923 INTER-LIGAND FREE ENERGY PREDICTED BY IDOCK:   -6.87 KCAL/MOL
REMARK 924 INTRA-LIGAND FREE ENERGY PREDICTED BY IDOCK:    0.70 KCAL/MOL
REMARK 927      BINDING AFFINITY PREDICTED BY RF-SCORE:    0.00 PKD
ROOT
HETATM    1  C   UNL     1      -6.223  10.037  63.666  1.00  0.00    -0.131 C  
HETATM    2  C   UNL     1      -6.992  10.343  62.386  1.00  0.00    -0.155 C  
ENDROOT
BRANCH   2   3
HETATM    3  C   UNL     1      -8.426   9.809  62.384  1.00  0.00    -0.174 C  
BRANCH   3   4
HETATM    4  C   UNL     1      -9.336  10.568  63.292  1.00  0.00    -0.314 A  
HETATM    5  N   UNL     1      -9.968  11.682  62.972  1.00  0.00    -0.363 NA 
HETATM    6  C   UNL     1     -10.705  12.032  64.077  1.00  0.00    -0.375 A  
HETATM    7  C   UNL     1     -10.502  11.115  65.086  1.00  0.00    -0.277 A  
HETATM    8  C   UNL     1     -11.561  13.239  64.072  1.00  0.00    -0.458 C  
HETATM    9  N   UNL     1      -9.649  10.194  64.579  1.00  0.00    -0.303 NA 
HETATM   10  N   UNL     1      -9.265   9.084  65.281  1.00  0.00    -0.184 NA 
HETATM   11  C   UNL     1      -9.676   9.090  66.608  1.00  0.00    -0.230 C  
HETATM   12  N   UNL     1     -10.475   9.965  67.139  1.00  0.00    -0.243 N  
HETATM   13  O   UNL     1     -11.831  11.780  66.883  1.00  0.00    -0.591 OA 
HETATM   14  H   UNL     1     -10.712   9.878  68.127  1.00  0.00     0.000 HD 
HETATM   15  C   UNL     1     -11.010  11.003  66.416  1.00  0.00    -0.137 C  
BRANCH  11  16
HETATM   16  C   UNL     1      -9.157   7.997  67.519  1.00  0.00    -0.146 A  
HETATM   17  C   UNL     1      -8.588   5.683  68.021  1.00  0.00    -0.101 A  
HETATM   18  C   UNL     1      -9.077   6.642  67.116  1.00  0.00    -0.128 A  
HETATM   19  C   UNL     1      -8.779   8.349  68.826  1.00  0.00    -0.136 A  
HETATM   20  C   UNL     1      -8.205   6.042  69.310  1.00  0.00    -0.115 A  
HETATM   21  C   UNL     1      -8.305   7.371  69.707  1.00  0.00    -0.134 A  
BRANCH  18  22
HETATM   22  O   UNL     1      -9.461   6.318  65.840  1.00  0.00    -0.060 OA 
BRANCH  22  23
HETATM   23  C   UNL     1      -8.765   5.252  65.191  1.00  0.00    -0.146 C  
HETATM   24  C   UNL     1      -9.752   4.161  64.825  1.00  0.00    -0.187 C  
ENDBRANCH  22  23
ENDBRANCH  18  22
BRANCH  21  25
HETATM   25  S   UNL     1      -8.036   7.776  71.413  1.00  0.00    -0.099 S  
HETATM   26  O   UNL     1      -6.862   8.619  71.468  1.00  0.00    -0.072 OA 
HETATM   27  O   UNL     1      -8.096   6.536  72.155  1.00  0.00    -0.106 OA 
BRANCH  25  28
HETATM   28  N   UNL     1      -9.395   8.732  71.812  1.00  0.00    -0.276 N  
HETATM   29  C   UNL     1     -10.515   8.771  70.818  1.00  0.00    -0.219 C  
HETATM   30  C   UNL     1     -11.412   7.509  70.887  1.00  0.00    -0.281 C  
HETATM   31  N   UNL     1     -11.893   7.143  72.240  1.00  0.00    -0.267 NA 
HETATM   32  C   UNL     1     -10.750   7.137  73.179  1.00  0.00    -0.346 C  
HETATM   33  C   UNL     1      -9.940   8.448  73.179  1.00  0.00     0.104 C  
BRANCH  31  34
HETATM   34  C   UNL     1     -13.004   8.011  72.655  1.00  0.00     0.151 C  
HETATM   35  C   UNL     1     -13.738   8.668  71.491  1.00  0.00    -0.368 C  
ENDBRANCH  31  34
ENDBRANCH  25  28
ENDBRANCH  21  25
ENDBRANCH  11  16
ENDBRANCH   3   4
ENDBRANCH   2   3
TORSDOF 8
ENDMDL
MODEL      172
REMARK 921   NORMALIZED FREE ENERGY PREDICTED BY IDOCK:   -3.51 KCAL/MOL
REMARK 922        TOTAL FREE ENERGY PREDICTED BY IDOCK:   -6.16 KCAL/MOL
REMARK 923 INTER-LIGAND FREE ENERGY PREDICTED BY IDOCK:   -5.97 KCAL/MOL
REMARK 924 INTRA-LIGAND FREE ENERGY PREDICTED BY IDOCK:   -0.19 KCAL/MOL
REMARK 927      BINDING AFFINITY PREDICTED BY RF-SCORE:    0.00 PKD
ROOT
HETATM    1  C   UNL     1     -10.769   3.544  63.583  1.00  0.00    -0.265 C  
HETATM    2  C   UNL     1     -10.054   4.210  64.752  1.00  0.00    -0.204 C  
ENDROOT
BRANCH   2   3
HETATM    3  C   UNL     1      -8.645   3.670  65.004  1.00  0.00    -0.109 C  
BRANCH   3   4
HETATM    4  C   UNL     1      -8.354   3.438  66.450  1.00  0.00    -0.102 A  
HETATM    5  N   UNL     1      -7.892   2.311  66.958  1.00  0.00    -0.069 NA 
HETATM    6  C   UNL     1      -7.751   2.531  68.306  1.00  0.00    -0.055 A  
HETATM    7  C   UNL     1      -8.148   3.815  68.615  1.00  0.00    -0.073 A  
HETATM    8  C   UNL     1      -7.235   1.473  69.203  1.00  0.00    -0.036 C  
HETATM    9  N   UNL     1      -8.515   4.380  67.441  1.00  0.00    -0.103 NA 
HETATM   10  N   UNL     1      -8.910   5.686  67.345  1.00  0.00    -0.107 NA 
HETATM   11  C   UNL     1      -9.077   6.312  68.575  1.00  0.00    -0.125 C  
HETATM   12  N   UNL     1      -8.759   5.799  69.724  1.00  0.00    -0.125 N  
HETATM   13  O   UNL     1      -7.822   4.092  70.908  1.00  0.00    -0.054 OA 
HETATM   14  H   UNL     1      -8.926   6.346  70.569  1.00  0.00     0.000 HD 
HETATM   15  C   UNL     1      -8.206   4.548  69.841  1.00  0.00    -0.066 C  
BRANCH  11  16
HETATM   16  C   UNL     1      -9.681   7.701  68.590  1.00  0.00    -0.157 A  
HETATM   17  C   UNL     1     -11.022   9.470  69.591  1.00  0.00    -0.233 A  
HETATM   18  C   UNL     1     -10.492   8.169  69.652  1.00  0.00    -0.224 A  
HETATM   19  C   UNL     1      -9.452   8.534  67.481  1.00  0.00    -0.182 A  
HETATM   20  C   UNL     1     -10.781  10.293  68.495  1.00  0.00    -0.262 A  
HETATM   21  C   UNL     1     -10.000   9.821  67.445  1.00  0.00    -0.191 A  
BRANCH  18  22
HETATM   22  O   UNL     1     -10.712   7.336  70.719  1.00  0.00    -0.225 OA 
BRANCH  22  23
HETATM   23  C   UNL     1     -12.014   6.761  70.850  1.00  0.00    -0.383 C  
HETATM   24  C   UNL     1     -12.092   5.992  72.155  1.00  0.00    -0.201 C  
ENDBRANCH  22  23
ENDBRANCH  18  22
BRANCH  21  25
HETATM   25  S   UNL     1      -9.892  10.785  65.961  1.00  0.00    -0.246 S  
HETATM   26  O   UNL     1     -10.349   9.945  64.875  1.00  0.00    -0.058 OA 
HETATM   27  O   UNL     1      -8.572  11.377  65.938  1.00  0.00    -0.149 OA 
BRANCH  25  28
HETATM   28  N   UNL     1     -11.052  12.016  66.203  1.00  0.00    -0.309 N  
HETATM   29  C   UNL     1     -10.762  13.025  67.271  1.00  0.00    -0.250 C  
HETATM   30  C   UNL     1      -9.748  14.103  66.808  1.00  0.00    -0.277 C  
HETATM   31  N   UNL     1     -10.057  14.752  65.512  1.00  0.00    -0.360 NA 
HETATM   32  C   UNL     1     -10.352  13.710  64.503  1.00  0.00    -0.330 C  
HETATM   33  C   UNL     1     -11.446  12.717  64.938  1.00  0.00    -0.320 C  
BRANCH  31  34
HETATM   34  C   UNL     1     -11.121  15.753  65.667  1.00  0.00    -0.155 C  
HETATM   35  C   UNL     1     -11.696  16.249  64.345  1.00  0.00     0.039 C  
ENDBRANCH  31  34
ENDBRANCH  25  28
ENDBRANCH  21  25
ENDBRANCH  11  16
ENDBRANCH   3   4
ENDBRANCH   2   3
TORSDOF 8
ENDMDL
MODEL      173
REMARK 921   NORMALIZED FREE ENERGY PREDICTED BY IDOCK:   -3.50 KCAL/MOL
REMARK 922        TOTAL FREE ENERGY PREDICTED BY IDOCK:   -6.15 KCAL/MOL
REMARK 923 INTER-LIGAND FREE ENERGY PREDICTED BY IDOCK:   -6.03 KCAL/MOL
REMARK 924 INTRA-LIGAND FREE ENERGY PREDICTED BY IDOCK:   -0.12 KCAL/MOL
REMARK 927      BINDING AFFINITY PREDICTED BY RF-SCORE:    0.00 PKD
ROOT
HETATM    1  C   UNL     1      -5.138  14.843  69.241  1.00  0.00    -0.090 C  
HETATM    2  C   UNL     1      -6.066  13.963  68.412  1.00  0.00    -0.099 C  
ENDROOT
BRANCH   2   3
HETATM    3  C   UNL     1      -7.233  13.374  69.209  1.00  0.00     0.117 C  
BRANCH   3   4
HETATM    4  C   UNL     1      -8.491  13.265  68.413  1.00  0.00    -0.128 A  
HETATM    5  N   UNL     1      -9.302  14.269  68.136  1.00  0.00    -0.200 NA 
HETATM    6  C   UNL     1     -10.316  13.741  67.376  1.00  0.00    -0.252 A  
HETATM    7  C   UNL     1     -10.116  12.388  67.201  1.00  0.00    -0.213 A  
HETATM    8  C   UNL     1     -11.413  14.595  66.866  1.00  0.00    -0.372 C  
HETATM    9  N   UNL     1      -8.962  12.101  67.848  1.00  0.00    -0.176 NA 
HETATM   10  N   UNL     1      -8.405  10.851  67.838  1.00  0.00    -0.117 NA 
HETATM   11  C   UNL     1      -9.221   9.880  67.272  1.00  0.00    -0.138 C  
HETATM   12  N   UNL     1     -10.344  10.109  66.662  1.00  0.00    -0.223 N  
HETATM   13  O   UNL     1     -11.861  11.611  65.864  1.00  0.00    -0.342 OA 
HETATM   14  H   UNL     1     -10.867   9.320  66.283  1.00  0.00     0.000 HD 
HETATM   15  C   UNL     1     -10.851  11.376  66.512  1.00  0.00    -0.283 C  
BRANCH  11  16
HETATM   16  C   UNL     1      -8.779   8.434  67.369  1.00  0.00    -0.136 A  
HETATM   17  C   UNL     1      -8.049   6.322  66.401  1.00  0.00    -0.112 A  
HETATM   18  C   UNL     1      -8.446   7.660  66.230  1.00  0.00    -0.139 A  
HETATM   19  C   UNL     1      -8.740   7.838  68.641  1.00  0.00    -0.128 A  
HETATM   20  C   UNL     1      -8.002   5.743  67.666  1.00  0.00    -0.102 A  
HETATM   21  C   UNL     1      -8.350   6.501  68.778  1.00  0.00    -0.122 A  
BRANCH  18  22
HETATM   22  O   UNL     1      -8.502   8.258  64.997  1.00  0.00    -0.166 OA 
BRANCH  22  23
HETATM   23  C   UNL     1      -7.266   8.490  64.319  1.00  0.00    -0.095 C  
HETATM   24  C   UNL     1      -6.758   9.876  64.667  1.00  0.00    -0.123 C  
ENDBRANCH  22  23
ENDBRANCH  18  22
BRANCH  21  25
HETATM   25  S   UNL     1      -8.507   5.693  70.348  1.00  0.00    -0.129 S  
HETATM   26  O   UNL     1      -8.210   6.678  71.364  1.00  0.00    -0.114 OA 
HETATM   27  O   UNL     1      -7.755   4.460  70.266  1.00  0.00    -0.052 OA 
BRANCH  25  28
HETATM   28  N   UNL     1     -10.174   5.325  70.438  1.00  0.00    -0.251 N  
HETATM   29  C   UNL     1     -10.778   5.231  71.805  1.00  0.00    -0.170 C  
HETATM   30  C   UNL     1     -11.076   6.624  72.418  1.00  0.00    -0.259 C  
HETATM   31  N   UNL     1     -11.834   7.553  71.548  1.00  0.00    -0.283 NA 
HETATM   32  C   UNL     1     -11.203   7.592  70.209  1.00  0.00    -0.236 C  
HETATM   33  C   UNL     1     -11.023   6.203  69.568  1.00  0.00    -0.393 C  
BRANCH  31  34
HETATM   34  C   UNL     1     -13.261   7.207  71.527  1.00  0.00    -0.360 C  
HETATM   35  C   UNL     1     -14.117   8.069  72.448  1.00  0.00    -0.147 C  
ENDBRANCH  31  34
ENDBRANCH  25  28
ENDBRANCH  21  25
ENDBRANCH  11  16
ENDBRANCH   3   4
ENDBRANCH   2   3
TORSDOF 8
ENDMDL
MODEL      174
REMARK 921   NORMALIZED FREE ENERGY PREDICTED BY IDOCK:   -3.50 KCAL/MOL
REMARK 922        TOTAL FREE ENERGY PREDICTED BY IDOCK:   -6.14 KCAL/MOL
REMARK 923 INTER-LIGAND FREE ENERGY PREDICTED BY IDOCK:   -4.66 KCAL/MOL
REMARK 924 INTRA-LIGAND FREE ENERGY PREDICTED BY IDOCK:   -1.49 KCAL/MOL
REMARK 927      BINDING AFFINITY PREDICTED BY RF-SCORE:    0.00 PKD
ROOT
HETATM    1  C   UNL     1     -11.660   6.553  72.059  1.00  0.00    -0.354 C  
HETATM    2  C   UNL     1     -10.818   5.291  72.196  1.00  0.00    -0.252 C  
ENDROOT
BRANCH   2   3
HETATM    3  C   UNL     1      -9.526   5.318  71.376  1.00  0.00    -0.194 C  
BRANCH   3   4
HETATM    4  C   UNL     1      -8.603   6.422  71.772  1.00  0.00    -0.128 A  
HETATM    5  N   UNL     1      -8.056   6.561  72.966  1.00  0.00    -0.107 NA 
HETATM    6  C   UNL     1      -7.270   7.685  72.897  1.00  0.00    -0.077 A  
HETATM    7  C   UNL     1      -7.355   8.239  71.637  1.00  0.00    -0.091 A  
HETATM    8  C   UNL     1      -6.485   8.141  74.065  1.00  0.00    -0.136 C  
HETATM    9  N   UNL     1      -8.186   7.433  70.936  1.00  0.00    -0.113 NA 
HETATM   10  N   UNL     1      -8.461   7.635  69.611  1.00  0.00    -0.133 NA 
HETATM   11  C   UNL     1      -7.965   8.834  69.113  1.00  0.00    -0.109 C  
HETATM   12  N   UNL     1      -7.184   9.645  69.757  1.00  0.00    -0.080 N  
HETATM   13  O   UNL     1      -5.951  10.101  71.620  1.00  0.00    -0.304 OA 
HETATM   14  H   UNL     1      -6.878  10.503  69.297  1.00  0.00     0.000 HD 
HETATM   15  C   UNL     1      -6.756   9.389  71.037  1.00  0.00    -0.076 C  
BRANCH  11  16
HETATM   16  C   UNL     1      -8.362   9.239  67.708  1.00  0.00    -0.116 A  
HETATM   17  C   UNL     1      -9.674  10.533  66.116  1.00  0.00    -0.259 A  
HETATM   18  C   UNL     1      -9.356  10.214  67.448  1.00  0.00    -0.148 A  
HETATM   19  C   UNL     1      -7.741   8.586  66.630  1.00  0.00    -0.090 A  
HETATM   20  C   UNL     1      -9.045   9.889  65.054  1.00  0.00    -0.264 A  
HETATM   21  C   UNL     1      -8.085   8.918  65.315  1.00  0.00    -0.126 A  
BRANCH  18  22
HETATM   22  O   UNL     1      -9.958  10.831  68.515  1.00  0.00    -0.164 OA 
BRANCH  22  23
HETATM   23  C   UNL     1     -11.247  10.358  68.909  1.00  0.00    -0.235 C  
HETATM   24  C   UNL     1     -11.267  10.156  70.412  1.00  0.00    -0.402 C  
ENDBRANCH  22  23
ENDBRANCH  18  22
BRANCH  21  25
HETATM   25  S   UNL     1      -7.462   7.948  63.968  1.00  0.00    -0.117 S  
HETATM   26  O   UNL     1      -6.112   8.399  63.710  1.00  0.00    -0.070 OA 
HETATM   27  O   UNL     1      -8.466   7.977  62.928  1.00  0.00    -0.079 OA 
BRANCH  25  28
HETATM   28  N   UNL     1      -7.379   6.371  64.621  1.00  0.00    -0.068 N  
HETATM   29  C   UNL     1      -8.615   5.530  64.530  1.00  0.00    -0.042 C  
HETATM   30  C   UNL     1      -8.809   4.912  63.122  1.00  0.00    -0.081 C  
HETATM   31  N   UNL     1      -7.627   4.210  62.567  1.00  0.00    -0.055 NA 
HETATM   32  C   UNL     1      -6.437   5.079  62.700  1.00  0.00    -0.026 C  
HETATM   33  C   UNL     1      -6.197   5.588  64.133  1.00  0.00    -0.022 C  
BRANCH  31  34
HETATM   34  C   UNL     1      -7.471   2.883  63.179  1.00  0.00    -0.054 C  
HETATM   35  C   UNL     1      -8.723   2.017  63.099  1.00  0.00    -0.084 C  
ENDBRANCH  31  34
ENDBRANCH  25  28
ENDBRANCH  21  25
ENDBRANCH  11  16
ENDBRANCH   3   4
ENDBRANCH   2   3
TORSDOF 8
ENDMDL
MODEL      175
REMARK 921   NORMALIZED FREE ENERGY PREDICTED BY IDOCK:   -3.48 KCAL/MOL
REMARK 922        TOTAL FREE ENERGY PREDICTED BY IDOCK:   -6.12 KCAL/MOL
REMARK 923 INTER-LIGAND FREE ENERGY PREDICTED BY IDOCK:   -4.97 KCAL/MOL
REMARK 924 INTRA-LIGAND FREE ENERGY PREDICTED BY IDOCK:   -1.15 KCAL/MOL
REMARK 927      BINDING AFFINITY PREDICTED BY RF-SCORE:    0.00 PKD
ROOT
HETATM    1  C   UNL     1      -7.402  17.247  68.097  1.00  0.00    -0.199 C  
HETATM    2  C   UNL     1      -8.151  17.482  66.791  1.00  0.00    -0.275 C  
ENDROOT
BRANCH   2   3
HETATM    3  C   UNL     1      -8.821  16.226  66.228  1.00  0.00    -0.367 C  
BRANCH   3   4
HETATM    4  C   UNL     1      -9.734  15.561  67.204  1.00  0.00    -0.222 A  
HETATM    5  N   UNL     1     -10.761  16.140  67.797  1.00  0.00    -0.320 NA 
HETATM    6  C   UNL     1     -11.334  15.178  68.591  1.00  0.00    -0.310 A  
HETATM    7  C   UNL     1     -10.629  13.998  68.481  1.00  0.00    -0.254 A  
HETATM    8  C   UNL     1     -12.536  15.474  69.403  1.00  0.00    -0.030 C  
HETATM    9  N   UNL     1      -9.632  14.246  67.600  1.00  0.00    -0.215 NA 
HETATM   10  N   UNL     1      -8.757  13.278  67.188  1.00  0.00    -0.214 NA 
HETATM   11  C   UNL     1      -8.870  12.086  67.893  1.00  0.00    -0.174 C  
HETATM   12  N   UNL     1      -9.795  11.815  68.761  1.00  0.00    -0.374 N  
HETATM   13  O   UNL     1     -11.715  12.432  69.826  1.00  0.00    -0.307 OA 
HETATM   14  H   UNL     1      -9.784  10.906  69.225  1.00  0.00     0.000 HD 
HETATM   15  C   UNL     1     -10.789  12.709  69.077  1.00  0.00    -0.146 C  
BRANCH  11  16
HETATM   16  C   UNL     1      -7.833  11.010  67.641  1.00  0.00    -0.114 A  
HETATM   17  C   UNL     1      -5.745   9.857  68.128  1.00  0.00    -0.039 A  
HETATM   18  C   UNL     1      -6.664  10.878  68.428  1.00  0.00    -0.059 A  
HETATM   19  C   UNL     1      -8.033  10.140  66.556  1.00  0.00    -0.118 A  
HETATM   20  C   UNL     1      -5.956   8.992  67.058  1.00  0.00    -0.057 A  
HETATM   21  C   UNL     1      -7.096   9.139  66.276  1.00  0.00    -0.087 A  
BRANCH  18  22
HETATM   22  O   UNL     1      -6.482  11.744  69.476  1.00  0.00    -0.107 OA 
BRANCH  22  23
HETATM   23  C   UNL     1      -5.463  12.737  69.342  1.00  0.00    -0.079 C  
HETATM   24  C   UNL     1      -5.943  14.033  69.968  1.00  0.00    -0.142 C  
ENDBRANCH  22  23
ENDBRANCH  18  22
BRANCH  21  25
HETATM   25  S   UNL     1      -7.240   8.187  64.787  1.00  0.00    -0.085 S  
HETATM   26  O   UNL     1      -6.101   8.520  63.960  1.00  0.00    -0.070 OA 
HETATM   27  O   UNL     1      -8.590   8.366  64.300  1.00  0.00    -0.079 OA 
BRANCH  25  28
HETATM   28  N   UNL     1      -7.050   6.577  65.328  1.00  0.00    -0.059 N  
HETATM   29  C   UNL     1      -8.215   5.654  65.141  1.00  0.00    -0.136 C  
HETATM   30  C   UNL     1      -8.329   5.129  63.687  1.00  0.00    -0.129 C  
HETATM   31  N   UNL     1      -7.084   4.560  63.117  1.00  0.00    -0.043 NA 
HETATM   32  C   UNL     1      -5.967   5.504  63.345  1.00  0.00    -0.021 C  
HETATM   33  C   UNL     1      -5.801   5.923  64.818  1.00  0.00    -0.025 C  
BRANCH  31  34
HETATM   34  C   UNL     1      -6.840   3.208  63.635  1.00  0.00    -0.039 C  
HETATM   35  C   UNL     1      -8.049   2.284  63.539  1.00  0.00    -0.073 C  
ENDBRANCH  31  34
ENDBRANCH  25  28
ENDBRANCH  21  25
ENDBRANCH  11  16
ENDBRANCH   3   4
ENDBRANCH   2   3
TORSDOF 8
ENDMDL
MODEL      176
REMARK 921   NORMALIZED FREE ENERGY PREDICTED BY IDOCK:   -3.42 KCAL/MOL
REMARK 922        TOTAL FREE ENERGY PREDICTED BY IDOCK:   -6.03 KCAL/MOL
REMARK 923 INTER-LIGAND FREE ENERGY PREDICTED BY IDOCK:   -6.50 KCAL/MOL
REMARK 924 INTRA-LIGAND FREE ENERGY PREDICTED BY IDOCK:    0.47 KCAL/MOL
REMARK 927      BINDING AFFINITY PREDICTED BY RF-SCORE:    0.00 PKD
ROOT
HETATM    1  C   UNL     1     -11.995  15.570  72.438  1.00  0.00    -0.547 C  
HETATM    2  C   UNL     1     -13.037  15.043  71.459  1.00  0.00    -0.454 C  
ENDROOT
BRANCH   2   3
HETATM    3  C   UNL     1     -12.744  13.631  70.947  1.00  0.00    -0.382 C  
BRANCH   3   4
HETATM    4  C   UNL     1     -11.990  13.619  69.658  1.00  0.00    -0.343 A  
HETATM    5  N   UNL     1     -11.784  14.673  68.891  1.00  0.00    -0.297 NA 
HETATM    6  C   UNL     1     -11.039  14.230  67.826  1.00  0.00    -0.280 A  
HETATM    7  C   UNL     1     -10.802  12.878  67.951  1.00  0.00    -0.227 A  
HETATM    8  C   UNL     1     -10.605  15.159  66.758  1.00  0.00    -0.298 C  
HETATM    9  N   UNL     1     -11.394  12.506  69.110  1.00  0.00    -0.271 NA 
HETATM   10  N   UNL     1     -11.313  11.231  69.601  1.00  0.00    -0.278 NA 
HETATM   11  C   UNL     1     -10.735  10.327  68.718  1.00  0.00    -0.219 C  
HETATM   12  N   UNL     1     -10.177  10.638  67.589  1.00  0.00    -0.186 N  
HETATM   13  O   UNL     1      -9.496  12.248  66.124  1.00  0.00    -0.239 OA 
HETATM   14  H   UNL     1      -9.783   9.893  67.013  1.00  0.00     0.000 HD 
HETATM   15  C   UNL     1     -10.097  11.934  67.142  1.00  0.00    -0.204 C  
BRANCH  11  16
HETATM   16  C   UNL     1     -10.756   8.858  69.089  1.00  0.00    -0.162 A  
HETATM   17  C   UNL     1     -10.926   7.031  70.688  1.00  0.00    -0.292 A  
HETATM   18  C   UNL     1     -10.923   8.411  70.422  1.00  0.00    -0.239 A  
HETATM   19  C   UNL     1     -10.562   7.915  68.066  1.00  0.00    -0.194 A  
HETATM   20  C   UNL     1     -10.745   6.102  69.667  1.00  0.00    -0.385 A  
HETATM   21  C   UNL     1     -10.561   6.547  68.363  1.00  0.00    -0.246 A  
BRANCH  18  22
HETATM   22  O   UNL     1     -11.100   9.349  71.407  1.00  0.00    -0.335 OA 
BRANCH  22  23
HETATM   23  C   UNL     1     -11.985   9.021  72.480  1.00  0.00    -0.054 C  
HETATM   24  C   UNL     1     -13.228   9.883  72.384  1.00  0.00    -0.315 C  
ENDBRANCH  22  23
ENDBRANCH  18  22
BRANCH  21  25
HETATM   25  S   UNL     1     -10.103   5.374  67.115  1.00  0.00    -0.219 S  
HETATM   26  O   UNL     1     -10.449   5.957  65.838  1.00  0.00     0.148 OA 
HETATM   27  O   UNL     1     -10.645   4.095  67.520  1.00  0.00     0.516 OA 
BRANCH  25  28
HETATM   28  N   UNL     1      -8.399   5.320  67.229  1.00  0.00    -0.107 N  
HETATM   29  C   UNL     1      -7.782   5.866  68.481  1.00  0.00    -0.094 C  
HETATM   30  C   UNL     1      -7.871   4.871  69.667  1.00  0.00    -0.067 C  
HETATM   31  N   UNL     1      -7.400   3.496  69.381  1.00  0.00    -0.048 NA 
HETATM   32  C   UNL     1      -8.027   3.016  68.128  1.00  0.00    -0.062 C  
HETATM   33  C   UNL     1      -7.827   3.966  66.932  1.00  0.00    -0.088 C  
BRANCH  31  34
HETATM   34  C   UNL     1      -5.932   3.433  69.378  1.00  0.00    -0.023 C  
HETATM   35  C   UNL     1      -5.371   2.181  68.713  1.00  0.00    -0.013 C  
ENDBRANCH  31  34
ENDBRANCH  25  28
ENDBRANCH  21  25
ENDBRANCH  11  16
ENDBRANCH   3   4
ENDBRANCH   2   3
TORSDOF 8
ENDMDL
MODEL      177
REMARK 921   NORMALIZED FREE ENERGY PREDICTED BY IDOCK:   -3.37 KCAL/MOL
REMARK 922        TOTAL FREE ENERGY PREDICTED BY IDOCK:   -5.96 KCAL/MOL
REMARK 923 INTER-LIGAND FREE ENERGY PREDICTED BY IDOCK:   -5.31 KCAL/MOL
REMARK 924 INTRA-LIGAND FREE ENERGY PREDICTED BY IDOCK:   -0.65 KCAL/MOL
REMARK 927      BINDING AFFINITY PREDICTED BY RF-SCORE:    0.00 PKD
ROOT
HETATM    1  C   UNL     1     -12.346  12.410  63.183  1.00  0.00    -0.324 C  
HETATM    2  C   UNL     1     -12.922  12.819  64.533  1.00  0.00    -0.210 C  
ENDROOT
BRANCH   2   3
HETATM    3  C   UNL     1     -11.949  12.635  65.700  1.00  0.00    -0.507 C  
BRANCH   3   4
HETATM    4  C   UNL     1     -11.116  13.845  65.966  1.00  0.00    -0.289 A  
HETATM    5  N   UNL     1     -11.334  15.043  65.455  1.00  0.00    -0.338 NA 
HETATM    6  C   UNL     1     -10.356  15.859  65.967  1.00  0.00    -0.348 A  
HETATM    7  C   UNL     1      -9.525  15.133  66.794  1.00  0.00    -0.242 A  
HETATM    8  C   UNL     1     -10.299  17.296  65.616  1.00  0.00    -0.185 C  
HETATM    9  N   UNL     1     -10.017  13.872  66.795  1.00  0.00    -0.263 NA 
HETATM   10  N   UNL     1      -9.482  12.875  67.564  1.00  0.00    -0.192 NA 
HETATM   11  C   UNL     1      -8.291  13.227  68.187  1.00  0.00    -0.161 C  
HETATM   12  N   UNL     1      -7.773  14.417  68.193  1.00  0.00    -0.119 N  
HETATM   13  O   UNL     1      -7.941  16.622  67.638  1.00  0.00    -0.169 OA 
HETATM   14  H   UNL     1      -6.890  14.567  68.681  1.00  0.00     0.000 HD 
HETATM   15  C   UNL     1      -8.373  15.481  67.565  1.00  0.00    -0.173 C  
BRANCH  11  16
HETATM   16  C   UNL     1      -7.524  12.144  68.918  1.00  0.00    -0.027 A  
HETATM   17  C   UNL     1      -5.623  11.327  70.202  1.00  0.00    -0.109 A  
HETATM   18  C   UNL     1      -6.278  12.385  69.548  1.00  0.00    -0.126 A  
HETATM   19  C   UNL     1      -8.060  10.846  68.930  1.00  0.00    -0.144 A  
HETATM   20  C   UNL     1      -6.168  10.046  70.219  1.00  0.00    -0.094 A  
HETATM   21  C   UNL     1      -7.381   9.811  69.582  1.00  0.00    -0.103 A  
BRANCH  18  22
HETATM   22  O   UNL     1      -5.766  13.657  69.515  1.00  0.00    -0.087 OA 
BRANCH  22  23
HETATM   23  C   UNL     1      -5.239  14.189  70.732  1.00  0.00    -0.122 C  
HETATM   24  C   UNL     1      -5.279  15.703  70.676  1.00  0.00    -0.161 C  
ENDBRANCH  22  23
ENDBRANCH  18  22
BRANCH  21  25
HETATM   25  S   UNL     1      -7.947   8.139  69.413  1.00  0.00    -0.116 S  
HETATM   26  O   UNL     1      -9.295   8.094  69.935  1.00  0.00    -0.158 OA 
HETATM   27  O   UNL     1      -6.912   7.286  69.952  1.00  0.00    -0.054 OA 
BRANCH  25  28
HETATM   28  N   UNL     1      -8.027   7.919  67.719  1.00  0.00    -0.122 N  
HETATM   29  C   UNL     1      -6.857   8.394  66.915  1.00  0.00    -0.069 C  
HETATM   30  C   UNL     1      -5.663   7.406  66.964  1.00  0.00    -0.030 C  
HETATM   31  N   UNL     1      -5.994   5.992  66.666  1.00  0.00    -0.021 NA 
HETATM   32  C   UNL     1      -7.165   5.585  67.475  1.00  0.00    -0.075 C  
HETATM   33  C   UNL     1      -8.381   6.518  67.320  1.00  0.00    -0.113 C  
BRANCH  31  34
HETATM   34  C   UNL     1      -6.164   5.787  65.222  1.00  0.00    -0.037 C  
HETATM   35  C   UNL     1      -5.152   6.545  64.369  1.00  0.00    -0.021 C  
ENDBRANCH  31  34
ENDBRANCH  25  28
ENDBRANCH  21  25
ENDBRANCH  11  16
ENDBRANCH   3   4
ENDBRANCH   2   3
TORSDOF 8
ENDMDL
MODEL      178
REMARK 921   NORMALIZED FREE ENERGY PREDICTED BY IDOCK:   -3.37 KCAL/MOL
REMARK 922        TOTAL FREE ENERGY PREDICTED BY IDOCK:   -5.95 KCAL/MOL
REMARK 923 INTER-LIGAND FREE ENERGY PREDICTED BY IDOCK:   -5.77 KCAL/MOL
REMARK 924 INTRA-LIGAND FREE ENERGY PREDICTED BY IDOCK:   -0.18 KCAL/MOL
REMARK 927      BINDING AFFINITY PREDICTED BY RF-SCORE:    0.00 PKD
ROOT
HETATM    1  C   UNL     1     -12.400  14.924  64.533  1.00  0.00    -0.330 C  
HETATM    2  C   UNL     1     -11.658  14.465  65.782  1.00  0.00    -0.353 C  
ENDROOT
BRANCH   2   3
HETATM    3  C   UNL     1     -11.128  15.614  66.643  1.00  0.00    -0.147 C  
BRANCH   3   4
HETATM    4  C   UNL     1      -9.650  15.562  66.847  1.00  0.00    -0.228 A  
HETATM    5  N   UNL     1      -8.838  16.599  66.770  1.00  0.00    -0.214 NA 
HETATM    6  C   UNL     1      -7.580  16.119  67.040  1.00  0.00    -0.225 A  
HETATM    7  C   UNL     1      -7.637  14.761  67.275  1.00  0.00    -0.165 A  
HETATM    8  C   UNL     1      -6.406  17.019  67.055  1.00  0.00    -0.231 C  
HETATM    9  N   UNL     1      -8.943  14.423  67.161  1.00  0.00    -0.220 NA 
HETATM   10  N   UNL     1      -9.396  13.153  67.394  1.00  0.00    -0.205 NA 
HETATM   11  C   UNL     1      -8.381  12.220  67.568  1.00  0.00    -0.170 C  
HETATM   12  N   UNL     1      -7.117  12.498  67.660  1.00  0.00    -0.125 N  
HETATM   13  O   UNL     1      -5.466  14.067  67.768  1.00  0.00    -0.242 OA 
HETATM   14  H   UNL     1      -6.453  11.734  67.785  1.00  0.00     0.000 HD 
HETATM   15  C   UNL     1      -6.643  13.786  67.594  1.00  0.00    -0.168 C  
BRANCH  11  16
HETATM   16  C   UNL     1      -8.767  10.757  67.654  1.00  0.00    -0.126 A  
HETATM   17  C   UNL     1     -10.100   8.917  68.529  1.00  0.00    -0.209 A  
HETATM   18  C   UNL     1      -9.804  10.291  68.498  1.00  0.00    -0.164 A  
HETATM   19  C   UNL     1      -8.033   9.833  66.892  1.00  0.00    -0.105 A  
HETATM   20  C   UNL     1      -9.376   8.009  67.762  1.00  0.00    -0.151 A  
HETATM   21  C   UNL     1      -8.345   8.470  66.950  1.00  0.00    -0.109 A  
BRANCH  18  22
HETATM   22  O   UNL     1     -10.501  11.209  69.243  1.00  0.00    -0.214 OA 
BRANCH  22  23
HETATM   23  C   UNL     1     -11.858  10.901  69.568  1.00  0.00    -0.332 C  
HETATM   24  C   UNL     1     -12.361  11.892  70.600  1.00  0.00    -0.405 C  
ENDBRANCH  22  23
ENDBRANCH  18  22
BRANCH  21  25
HETATM   25  S   UNL     1      -7.286   7.288  66.160  1.00  0.00    -0.076 S  
HETATM   26  O   UNL     1      -5.966   7.455  66.728  1.00  0.00    -0.036 OA 
HETATM   27  O   UNL     1      -7.504   7.412  64.736  1.00  0.00    -0.076 OA 
BRANCH  25  28
HETATM   28  N   UNL     1      -7.905   5.786  66.691  1.00  0.00    -0.100 N  
HETATM   29  C   UNL     1      -9.057   5.214  65.923  1.00  0.00    -0.153 C  
HETATM   30  C   UNL     1      -8.610   4.537  64.602  1.00  0.00    -0.139 C  
HETATM   31  N   UNL     1      -7.500   3.563  64.729  1.00  0.00    -0.071 NA 
HETATM   32  C   UNL     1      -6.401   4.175  65.509  1.00  0.00    -0.032 C  
HETATM   33  C   UNL     1      -6.847   4.739  66.871  1.00  0.00    -0.056 C  
BRANCH  31  34
HETATM   34  C   UNL     1      -7.982   2.287  65.273  1.00  0.00    -0.078 C  
HETATM   35  C   UNL     1      -9.287   1.805  64.650  1.00  0.00    -0.117 C  
ENDBRANCH  31  34
ENDBRANCH  25  28
ENDBRANCH  21  25
ENDBRANCH  11  16
ENDBRANCH   3   4
ENDBRANCH   2   3
TORSDOF 8
ENDMDL
MODEL      179
REMARK 921   NORMALIZED FREE ENERGY PREDICTED BY IDOCK:   -3.36 KCAL/MOL
REMARK 922        TOTAL FREE ENERGY PREDICTED BY IDOCK:   -5.93 KCAL/MOL
REMARK 923 INTER-LIGAND FREE ENERGY PREDICTED BY IDOCK:   -5.01 KCAL/MOL
REMARK 924 INTRA-LIGAND FREE ENERGY PREDICTED BY IDOCK:   -0.93 KCAL/MOL
REMARK 927      BINDING AFFINITY PREDICTED BY RF-SCORE:    0.00 PKD
ROOT
HETATM    1  C   UNL     1      -9.009   8.308  72.173  1.00  0.00    -0.274 C  
HETATM    2  C   UNL     1      -7.486   8.293  72.123  1.00  0.00    -0.146 C  
ENDROOT
BRANCH   2   3
HETATM    3  C   UNL     1      -6.913   8.420  70.710  1.00  0.00    -0.045 C  
BRANCH   3   4
HETATM    4  C   UNL     1      -6.542   9.821  70.351  1.00  0.00    -0.114 A  
HETATM    5  N   UNL     1      -6.039  10.710  71.188  1.00  0.00    -0.339 NA 
HETATM    6  C   UNL     1      -5.827  11.849  70.451  1.00  0.00    -0.155 A  
HETATM    7  C   UNL     1      -6.221  11.643  69.146  1.00  0.00    -0.077 A  
HETATM    8  C   UNL     1      -5.251  13.063  71.071  1.00  0.00    -0.169 C  
HETATM    9  N   UNL     1      -6.659  10.363  69.091  1.00  0.00    -0.050 NA 
HETATM   10  N   UNL     1      -7.073   9.778  67.926  1.00  0.00    -0.082 NA 
HETATM   11  C   UNL     1      -7.180  10.664  66.861  1.00  0.00    -0.110 C  
HETATM   12  N   UNL     1      -6.794  11.903  66.878  1.00  0.00    -0.311 N  
HETATM   13  O   UNL     1      -5.773  13.616  67.985  1.00  0.00    -0.108 OA 
HETATM   14  H   UNL     1      -6.920  12.469  66.039  1.00  0.00     0.000 HD 
HETATM   15  C   UNL     1      -6.221  12.478  67.986  1.00  0.00    -0.088 C  
BRANCH  11  16
HETATM   16  C   UNL     1      -7.798  10.158  65.574  1.00  0.00    -0.147 A  
HETATM   17  C   UNL     1      -9.493  10.190  63.826  1.00  0.00    -0.330 A  
HETATM   18  C   UNL     1      -8.976  10.718  65.022  1.00  0.00    -0.194 A  
HETATM   19  C   UNL     1      -7.190   9.066  64.933  1.00  0.00    -0.095 A  
HETATM   20  C   UNL     1      -8.879   9.114  63.191  1.00  0.00    -0.102 A  
HETATM   21  C   UNL     1      -7.733   8.556  63.748  1.00  0.00    -0.142 A  
BRANCH  18  22
HETATM   22  O   UNL     1      -9.560  11.777  65.670  1.00  0.00    -0.231 OA 
BRANCH  22  23
HETATM   23  C   UNL     1     -10.859  11.574  66.230  1.00  0.00    -0.282 C  
HETATM   24  C   UNL     1     -11.723  12.785  65.940  1.00  0.00    -0.464 C  
ENDBRANCH  22  23
ENDBRANCH  18  22
BRANCH  21  25
HETATM   25  S   UNL     1      -7.096   7.051  63.061  1.00  0.00    -0.065 S  
HETATM   26  O   UNL     1      -5.849   7.379  62.406  1.00  0.00    -0.049 OA 
HETATM   27  O   UNL     1      -8.178   6.428  62.332  1.00  0.00    -0.104 OA 
BRANCH  25  28
HETATM   28  N   UNL     1      -6.736   6.108  64.441  1.00  0.00    -0.041 N  
HETATM   29  C   UNL     1      -7.793   6.019  65.499  1.00  0.00    -0.105 C  
HETATM   30  C   UNL     1      -8.916   5.014  65.133  1.00  0.00    -0.143 C  
HETATM   31  N   UNL     1      -8.454   3.672  64.707  1.00  0.00    -0.100 NA 
HETATM   32  C   UNL     1      -7.402   3.822  63.676  1.00  0.00    -0.051 C  
HETATM   33  C   UNL     1      -6.238   4.734  64.107  1.00  0.00    -0.022 C  
BRANCH  31  34
HETATM   34  C   UNL     1      -8.047   2.865  65.864  1.00  0.00    -0.087 C  
HETATM   35  C   UNL     1      -9.105   2.781  66.959  1.00  0.00    -0.184 C  
ENDBRANCH  31  34
ENDBRANCH  25  28
ENDBRANCH  21  25
ENDBRANCH  11  16
ENDBRANCH   3   4
ENDBRANCH   2   3
TORSDOF 8
ENDMDL
MODEL      180
REMARK 921   NORMALIZED FREE ENERGY PREDICTED BY IDOCK:   -3.31 KCAL/MOL
REMARK 922        TOTAL FREE ENERGY PREDICTED BY IDOCK:   -5.87 KCAL/MOL
REMARK 923 INTER-LIGAND FREE ENERGY PREDICTED BY IDOCK:   -7.24 KCAL/MOL
REMARK 924 INTRA-LIGAND FREE ENERGY PREDICTED BY IDOCK:    1.37 KCAL/MOL
REMARK 927      BINDING AFFINITY PREDICTED BY RF-SCORE:    0.00 PKD
ROOT
HETATM    1  C   UNL     1     -13.375  15.410  70.301  1.00  0.00     0.106 C  
HETATM    2  C   UNL     1     -12.382  14.469  70.972  1.00  0.00    -0.417 C  
ENDROOT
BRANCH   2   3
HETATM    3  C   UNL     1     -10.954  15.017  71.027  1.00  0.00    -0.139 C  
BRANCH   3   4
HETATM    4  C   UNL     1     -10.564  15.767  69.796  1.00  0.00    -0.312 A  
HETATM    5  N   UNL     1     -10.546  17.082  69.685  1.00  0.00    -0.211 NA 
HETATM    6  C   UNL     1     -10.115  17.350  68.409  1.00  0.00    -0.347 A  
HETATM    7  C   UNL     1      -9.880  16.169  67.736  1.00  0.00    -0.232 A  
HETATM    8  C   UNL     1      -9.959  18.742  67.932  1.00  0.00    -0.400 C  
HETATM    9  N   UNL     1     -10.155  15.181  68.620  1.00  0.00    -0.216 NA 
HETATM   10  N   UNL     1      -9.972  13.858  68.323  1.00  0.00    -0.233 NA 
HETATM   11  C   UNL     1      -9.664  13.621  66.989  1.00  0.00    -0.251 C  
HETATM   12  N   UNL     1      -9.415  14.537  66.105  1.00  0.00    -0.432 N  
HETATM   13  O   UNL     1      -9.111  16.742  65.610  1.00  0.00    -0.489 OA 
HETATM   14  H   UNL     1      -9.201  14.253  65.149  1.00  0.00     0.000 HD 
HETATM   15  C   UNL     1      -9.430  15.876  66.412  1.00  0.00    -0.295 C  
BRANCH  11  16
HETATM   16  C   UNL     1      -9.616  12.183  66.515  1.00  0.00    -0.235 A  
HETATM   17  C   UNL     1     -10.659  10.094  65.822  1.00  0.00    -0.017 A  
HETATM   18  C   UNL     1     -10.784  11.426  66.254  1.00  0.00    -0.270 A  
HETATM   19  C   UNL     1      -8.357  11.575  66.371  1.00  0.00    -0.118 A  
HETATM   20  C   UNL     1      -9.407   9.504  65.670  1.00  0.00    -0.302 A  
HETATM   21  C   UNL     1      -8.264  10.245  65.948  1.00  0.00    -0.148 A  
BRANCH  18  22
HETATM   22  O   UNL     1     -12.004  12.035  66.411  1.00  0.00    -0.611 OA 
BRANCH  22  23
HETATM   23  C   UNL     1     -12.456  12.890  65.360  1.00  0.00    -0.454 C  
HETATM   24  C   UNL     1     -12.514  12.102  64.065  1.00  0.00    -0.541 C  
ENDBRANCH  22  23
ENDBRANCH  18  22
BRANCH  21  25
HETATM   25  S   UNL     1      -6.695   9.418  65.975  1.00  0.00    -0.082 S  
HETATM   26  O   UNL     1      -5.957   9.946  67.101  1.00  0.00    -0.051 OA 
HETATM   27  O   UNL     1      -6.157   9.490  64.634  1.00  0.00    -0.073 OA 
BRANCH  25  28
HETATM   28  N   UNL     1      -7.109   7.797  66.324  1.00  0.00    -0.069 N  
HETATM   29  C   UNL     1      -8.378   7.274  65.726  1.00  0.00    -0.139 C  
HETATM   30  C   UNL     1      -8.213   6.886  64.234  1.00  0.00     0.040 C  
HETATM   31  N   UNL     1      -7.061   6.006  63.928  1.00  0.00    -0.050 NA 
HETATM   32  C   UNL     1      -5.842   6.562  64.557  1.00  0.00    -0.030 C  
HETATM   33  C   UNL     1      -5.992   6.831  66.067  1.00  0.00    -0.034 C  
BRANCH  31  34
HETATM   34  C   UNL     1      -7.348   4.616  64.305  1.00  0.00    -0.062 C  
HETATM   35  C   UNL     1      -8.796   4.201  64.070  1.00  0.00    -0.126 C  
ENDBRANCH  31  34
ENDBRANCH  25  28
ENDBRANCH  21  25
ENDBRANCH  11  16
ENDBRANCH   3   4
ENDBRANCH   2   3
TORSDOF 8
ENDMDL
MODEL      181
REMARK 921   NORMALIZED FREE ENERGY PREDICTED BY IDOCK:   -3.30 KCAL/MOL
REMARK 922        TOTAL FREE ENERGY PREDICTED BY IDOCK:   -5.85 KCAL/MOL
REMARK 923 INTER-LIGAND FREE ENERGY PREDICTED BY IDOCK:   -6.91 KCAL/MOL
REMARK 924 INTRA-LIGAND FREE ENERGY PREDICTED BY IDOCK:    1.06 KCAL/MOL
REMARK 927      BINDING AFFINITY PREDICTED BY RF-SCORE:    0.00 PKD
ROOT
HETATM    1  C   UNL     1     -10.522   5.674  66.691  1.00  0.00    -0.340 C  
HETATM    2  C   UNL     1      -9.012   5.721  66.890  1.00  0.00    -0.114 C  
ENDROOT
BRANCH   2   3
HETATM    3  C   UNL     1      -8.537   6.911  67.726  1.00  0.00    -0.122 C  
BRANCH   3   4
HETATM    4  C   UNL     1      -9.218   7.007  69.051  1.00  0.00    -0.137 A  
HETATM    5  N   UNL     1      -9.207   6.068  69.979  1.00  0.00    -0.148 NA 
HETATM    6  C   UNL     1      -9.931   6.566  71.034  1.00  0.00    -0.183 A  
HETATM    7  C   UNL     1     -10.396   7.828  70.729  1.00  0.00    -0.203 A  
HETATM    8  C   UNL     1     -10.118   5.777  72.272  1.00  0.00    -0.216 C  
HETATM    9  N   UNL     1      -9.934   8.100  69.486  1.00  0.00    -0.183 NA 
HETATM   10  N   UNL     1     -10.145   9.304  68.871  1.00  0.00    -0.189 NA 
HETATM   11  C   UNL     1     -11.024  10.135  69.554  1.00  0.00    -0.256 C  
HETATM   12  N   UNL     1     -11.507   9.903  70.736  1.00  0.00    -0.326 N  
HETATM   13  O   UNL     1     -11.563   8.590  72.599  1.00  0.00    -0.357 OA 
HETATM   14  H   UNL     1     -12.148  10.581  71.147  1.00  0.00     0.000 HD 
HETATM   15  C   UNL     1     -11.184   8.776  71.451  1.00  0.00    -0.292 C  
BRANCH  11  16
HETATM   16  C   UNL     1     -11.464  11.416  68.875  1.00  0.00    -0.363 A  
HETATM   17  C   UNL     1     -11.980  12.760  66.912  1.00  0.00    -0.380 A  
HETATM   18  C   UNL     1     -11.570  11.536  67.468  1.00  0.00    -0.246 A  
HETATM   19  C   UNL     1     -11.737  12.533  69.683  1.00  0.00    -0.372 A  
HETATM   20  C   UNL     1     -12.260  13.859  67.720  1.00  0.00    -0.217 A  
HETATM   21  C   UNL     1     -12.134  13.741  69.099  1.00  0.00    -0.333 A  
BRANCH  18  22
HETATM   22  O   UNL     1     -11.288  10.437  66.697  1.00  0.00    -0.024 OA 
BRANCH  22  23
HETATM   23  C   UNL     1     -10.517  10.643  65.512  1.00  0.00    -0.176 C  
HETATM   24  C   UNL     1      -9.091  10.986  65.895  1.00  0.00    -0.214 C  
ENDBRANCH  22  23
ENDBRANCH  18  22
BRANCH  21  25
HETATM   25  S   UNL     1     -12.268  15.201  70.097  1.00  0.00    -0.353 S  
HETATM   26  O   UNL     1     -12.640  14.773  71.427  1.00  0.00    -0.290 OA 
HETATM   27  O   UNL     1     -13.086  16.140  69.363  1.00  0.00     0.618 OA 
BRANCH  25  28
HETATM   28  N   UNL     1     -10.663  15.787  70.158  1.00  0.00    -0.331 N  
HETATM   29  C   UNL     1      -9.581  14.853  69.712  1.00  0.00     0.139 C  
HETATM   30  C   UNL     1      -9.468  14.772  68.168  1.00  0.00    -0.208 C  
HETATM   31  N   UNL     1      -9.391  16.074  67.466  1.00  0.00    -0.216 NA 
HETATM   32  C   UNL     1     -10.471  16.959  67.958  1.00  0.00    -0.347 C  
HETATM   33  C   UNL     1     -10.492  17.117  69.490  1.00  0.00    -0.122 C  
BRANCH  31  34
HETATM   34  C   UNL     1      -8.045  16.653  67.579  1.00  0.00    -0.168 C  
HETATM   35  C   UNL     1      -8.041  18.158  67.824  1.00  0.00    -0.240 C  
ENDBRANCH  31  34
ENDBRANCH  25  28
ENDBRANCH  21  25
ENDBRANCH  11  16
ENDBRANCH   3   4
ENDBRANCH   2   3
TORSDOF 8
ENDMDL
MODEL      182
REMARK 921   NORMALIZED FREE ENERGY PREDICTED BY IDOCK:   -3.17 KCAL/MOL
REMARK 922        TOTAL FREE ENERGY PREDICTED BY IDOCK:   -5.67 KCAL/MOL
REMARK 923 INTER-LIGAND FREE ENERGY PREDICTED BY IDOCK:   -4.96 KCAL/MOL
REMARK 924 INTRA-LIGAND FREE ENERGY PREDICTED BY IDOCK:   -0.71 KCAL/MOL
REMARK 927      BINDING AFFINITY PREDICTED BY RF-SCORE:    0.00 PKD
ROOT
HETATM    1  C   UNL     1     -10.292  16.774  65.517  1.00  0.00    -0.236 C  
HETATM    2  C   UNL     1     -10.571  15.294  65.747  1.00  0.00    -0.359 C  
ENDROOT
BRANCH   2   3
HETATM    3  C   UNL     1     -10.634  14.899  67.224  1.00  0.00    -0.272 C  
BRANCH   3   4
HETATM    4  C   UNL     1      -9.288  14.684  67.832  1.00  0.00    -0.198 A  
HETATM    5  N   UNL     1      -8.678  15.530  68.641  1.00  0.00    -0.176 NA 
HETATM    6  C   UNL     1      -7.485  14.941  68.979  1.00  0.00    -0.144 A  
HETATM    7  C   UNL     1      -7.371  13.719  68.351  1.00  0.00    -0.117 A  
HETATM    8  C   UNL     1      -6.535  15.610  69.897  1.00  0.00    -0.137 C  
HETATM    9  N   UNL     1      -8.513  13.562  67.641  1.00  0.00    -0.170 NA 
HETATM   10  N   UNL     1      -8.788  12.425  66.932  1.00  0.00    -0.206 NA 
HETATM   11  C   UNL     1      -7.718  11.540  66.857  1.00  0.00    -0.157 C  
HETATM   12  N   UNL     1      -6.599  11.664  67.502  1.00  0.00    -0.083 N  
HETATM   13  O   UNL     1      -5.341  12.793  69.032  1.00  0.00    -0.067 OA 
HETATM   14  H   UNL     1      -5.876  10.956  67.373  1.00  0.00     0.000 HD 
HETATM   15  C   UNL     1      -6.355  12.714  68.353  1.00  0.00    -0.069 C  
BRANCH  11  16
HETATM   16  C   UNL     1      -7.855  10.335  65.950  1.00  0.00    -0.139 A  
HETATM   17  C   UNL     1      -8.646   9.218  63.936  1.00  0.00    -0.208 A  
HETATM   18  C   UNL     1      -8.557  10.380  64.721  1.00  0.00    -0.182 A  
HETATM   19  C   UNL     1      -7.292   9.119  66.375  1.00  0.00    -0.092 A  
HETATM   20  C   UNL     1      -8.075   8.020  64.359  1.00  0.00    -0.123 A  
HETATM   21  C   UNL     1      -7.405   7.976  65.576  1.00  0.00    -0.075 A  
BRANCH  18  22
HETATM   22  O   UNL     1      -9.109  11.574  64.329  1.00  0.00     0.010 OA 
BRANCH  22  23
HETATM   23  C   UNL     1     -10.259  11.524  63.483  1.00  0.00    -0.420 C  
HETATM   24  C   UNL     1     -11.510  11.593  64.335  1.00  0.00    -0.302 C  
ENDBRANCH  22  23
ENDBRANCH  18  22
BRANCH  21  25
HETATM   25  S   UNL     1      -6.886   6.403  66.209  1.00  0.00    -0.059 S  
HETATM   26  O   UNL     1      -6.137   6.659  67.419  1.00  0.00    -0.025 OA 
HETATM   27  O   UNL     1      -6.292   5.680  65.107  1.00  0.00    -0.036 OA 
BRANCH  25  28
HETATM   28  N   UNL     1      -8.356   5.648  66.645  1.00  0.00    -0.112 N  
HETATM   29  C   UNL     1      -8.780   4.464  65.833  1.00  0.00    -0.118 C  
HETATM   30  C   UNL     1      -8.024   3.170  66.230  1.00  0.00    -0.081 C  
HETATM   31  N   UNL     1      -8.010   2.862  67.680  1.00  0.00    -0.074 NA 
HETATM   32  C   UNL     1      -7.601   4.070  68.431  1.00  0.00    -0.066 C  
HETATM   33  C   UNL     1      -8.443   5.317  68.105  1.00  0.00    -0.096 C  
BRANCH  31  34
HETATM   34  C   UNL     1      -9.296   2.297  68.109  1.00  0.00    -0.210 C  
HETATM   35  C   UNL     1      -9.410   2.102  69.617  1.00  0.00    -0.158 C  
ENDBRANCH  31  34
ENDBRANCH  25  28
ENDBRANCH  21  25
ENDBRANCH  11  16
ENDBRANCH   3   4
ENDBRANCH   2   3
TORSDOF 8
ENDMDL
MODEL      183
REMARK 921   NORMALIZED FREE ENERGY PREDICTED BY IDOCK:   -3.15 KCAL/MOL
REMARK 922        TOTAL FREE ENERGY PREDICTED BY IDOCK:   -5.63 KCAL/MOL
REMARK 923 INTER-LIGAND FREE ENERGY PREDICTED BY IDOCK:   -6.68 KCAL/MOL
REMARK 924 INTRA-LIGAND FREE ENERGY PREDICTED BY IDOCK:    1.04 KCAL/MOL
REMARK 927      BINDING AFFINITY PREDICTED BY RF-SCORE:    0.00 PKD
ROOT
HETATM    1  C   UNL     1      -9.416   4.138  71.689  1.00  0.00    -0.216 C  
HETATM    2  C   UNL     1      -9.024   5.011  70.504  1.00  0.00    -0.160 C  
ENDROOT
BRANCH   2   3
HETATM    3  C   UNL     1     -10.204   5.418  69.619  1.00  0.00    -0.345 C  
BRANCH   3   4
HETATM    4  C   UNL     1     -10.944   6.607  70.138  1.00  0.00    -0.305 A  
HETATM    5  N   UNL     1     -12.018   6.555  70.903  1.00  0.00    -0.348 NA 
HETATM    6  C   UNL     1     -12.363   7.859  71.163  1.00  0.00    -0.230 A  
HETATM    7  C   UNL     1     -11.483   8.711  70.531  1.00  0.00    -0.188 A  
HETATM    8  C   UNL     1     -13.529   8.185  72.014  1.00  0.00    -0.312 C  
HETATM    9  N   UNL     1     -10.590   7.915  69.898  1.00  0.00    -0.240 NA 
HETATM   10  N   UNL     1      -9.517   8.415  69.211  1.00  0.00    -0.154 NA 
HETATM   11  C   UNL     1      -9.540   9.797  69.068  1.00  0.00    -0.177 C  
HETATM   12  N   UNL     1     -10.390  10.595  69.638  1.00  0.00    -0.385 N  
HETATM   13  O   UNL     1     -12.133  10.883  71.079  1.00  0.00    -0.338 OA 
HETATM   14  H   UNL     1     -10.319  11.597  69.462  1.00  0.00     0.000 HD 
HETATM   15  C   UNL     1     -11.383  10.135  70.468  1.00  0.00    -0.338 C  
BRANCH  11  16
HETATM   16  C   UNL     1      -8.496  10.437  68.174  1.00  0.00    -0.121 A  
HETATM   17  C   UNL     1      -6.944  10.414  66.298  1.00  0.00    -0.118 A  
HETATM   18  C   UNL     1      -7.911   9.757  67.079  1.00  0.00    -0.102 A  
HETATM   19  C   UNL     1      -8.073  11.741  68.479  1.00  0.00    -0.140 A  
HETATM   20  C   UNL     1      -6.539  11.712  66.601  1.00  0.00    -0.040 A  
HETATM   21  C   UNL     1      -7.103  12.367  67.690  1.00  0.00    -0.133 A  
BRANCH  18  22
HETATM   22  O   UNL     1      -8.330   8.479  66.805  1.00  0.00    -0.106 OA 
BRANCH  22  23
HETATM   23  C   UNL     1      -8.796   8.207  65.482  1.00  0.00    -0.089 C  
HETATM   24  C   UNL     1      -7.773   7.355  64.756  1.00  0.00    -0.114 C  
ENDBRANCH  22  23
ENDBRANCH  18  22
BRANCH  21  25
HETATM   25  S   UNL     1      -6.417  13.921  68.200  1.00  0.00    -0.143 S  
HETATM   26  O   UNL     1      -5.289  14.191  67.336  1.00  0.00    -0.335 OA 
HETATM   27  O   UNL     1      -6.256  13.859  69.636  1.00  0.00    -0.112 OA 
BRANCH  25  28
HETATM   28  N   UNL     1      -7.653  15.041  67.824  1.00  0.00    -0.143 N  
HETATM   29  C   UNL     1      -8.710  14.591  66.863  1.00  0.00    -0.211 C  
HETATM   30  C   UNL     1      -9.771  13.680  67.533  1.00  0.00    -0.227 C  
HETATM   31  N   UNL     1     -10.360  14.205  68.787  1.00  0.00    -0.238 NA 
HETATM   32  C   UNL     1      -9.272  14.648  69.688  1.00  0.00     0.332 C  
HETATM   33  C   UNL     1      -8.295  15.645  69.037  1.00  0.00    -0.235 C  
BRANCH  31  34
HETATM   34  C   UNL     1     -11.362  15.241  68.504  1.00  0.00    -0.327 C  
HETATM   35  C   UNL     1     -12.028  15.811  69.751  1.00  0.00    -0.337 C  
ENDBRANCH  31  34
ENDBRANCH  25  28
ENDBRANCH  21  25
ENDBRANCH  11  16
ENDBRANCH   3   4
ENDBRANCH   2   3
TORSDOF 8
ENDMDL
MODEL      184
REMARK 921   NORMALIZED FREE ENERGY PREDICTED BY IDOCK:   -3.13 KCAL/MOL
REMARK 922        TOTAL FREE ENERGY PREDICTED BY IDOCK:   -5.60 KCAL/MOL
REMARK 923 INTER-LIGAND FREE ENERGY PREDICTED BY IDOCK:   -5.53 KCAL/MOL
REMARK 924 INTRA-LIGAND FREE ENERGY PREDICTED BY IDOCK:   -0.06 KCAL/MOL
REMARK 927      BINDING AFFINITY PREDICTED BY RF-SCORE:    0.00 PKD
ROOT
HETATM    1  C   UNL     1      -7.108  14.637  69.703  1.00  0.00    -0.125 C  
HETATM    2  C   UNL     1      -7.945  14.752  68.435  1.00  0.00    -0.138 C  
ENDROOT
BRANCH   2   3
HETATM    3  C   UNL     1      -9.358  14.181  68.573  1.00  0.00    -0.191 C  
BRANCH   3   4
HETATM    4  C   UNL     1      -9.946  13.747  67.272  1.00  0.00    -0.239 A  
HETATM    5  N   UNL     1     -10.621  14.526  66.448  1.00  0.00    -0.296 NA 
HETATM    6  C   UNL     1     -10.962  13.742  65.374  1.00  0.00    -0.309 A  
HETATM    7  C   UNL     1     -10.490  12.460  65.562  1.00  0.00    -0.275 A  
HETATM    8  C   UNL     1     -11.723  14.297  64.233  1.00  0.00    -0.348 C  
HETATM    9  N   UNL     1      -9.845  12.476  66.752  1.00  0.00    -0.224 NA 
HETATM   10  N   UNL     1      -9.185  11.384  67.245  1.00  0.00    -0.163 NA 
HETATM   11  C   UNL     1      -9.398  10.223  66.511  1.00  0.00    -0.166 C  
HETATM   12  N   UNL     1     -10.028  10.159  65.379  1.00  0.00    -0.307 N  
HETATM   13  O   UNL     1     -11.080  11.236  63.666  1.00  0.00    -0.376 OA 
HETATM   14  H   UNL     1     -10.130   9.253  64.922  1.00  0.00     0.000 HD 
HETATM   15  C   UNL     1     -10.563  11.271  64.774  1.00  0.00    -0.312 C  
BRANCH  11  16
HETATM   16  C   UNL     1      -8.859   8.921  67.068  1.00  0.00    -0.138 A  
HETATM   17  C   UNL     1      -8.284   7.421  68.897  1.00  0.00    -0.129 A  
HETATM   18  C   UNL     1      -8.803   8.651  68.456  1.00  0.00    -0.142 A  
HETATM   19  C   UNL     1      -8.362   7.969  66.161  1.00  0.00    -0.125 A  
HETATM   20  C   UNL     1      -7.805   6.478  67.992  1.00  0.00    -0.105 A  
HETATM   21  C   UNL     1      -7.843   6.757  66.630  1.00  0.00    -0.107 A  
BRANCH  18  22
HETATM   22  O   UNL     1      -9.283   9.598  69.325  1.00  0.00    -0.163 OA 
BRANCH  22  23
HETATM   23  C   UNL     1      -9.331   9.259  70.712  1.00  0.00    -0.258 C  
HETATM   24  C   UNL     1     -10.531   8.369  70.968  1.00  0.00    -0.251 C  
ENDBRANCH  22  23
ENDBRANCH  18  22
BRANCH  21  25
HETATM   25  S   UNL     1      -7.024   5.655  65.509  1.00  0.00    -0.066 S  
HETATM   26  O   UNL     1      -5.719   5.376  66.066  1.00  0.00    -0.016 OA 
HETATM   27  O   UNL     1      -7.162   6.221  64.185  1.00  0.00    -0.054 OA 
BRANCH  25  28
HETATM   28  N   UNL     1      -7.958   4.226  65.605  1.00  0.00    -0.094 N  
HETATM   29  C   UNL     1      -9.433   4.390  65.808  1.00  0.00    -0.174 C  
HETATM   30  C   UNL     1     -10.174   4.759  64.498  1.00  0.00     0.386 C  
HETATM   31  N   UNL     1      -9.875   3.894  63.332  1.00  0.00    -0.152 NA 
HETATM   32  C   UNL     1      -8.408   3.755  63.192  1.00  0.00    -0.089 C  
HETATM   33  C   UNL     1      -7.705   3.275  64.475  1.00  0.00    -0.077 C  
BRANCH  31  34
HETATM   34  C   UNL     1     -10.590   2.614  63.431  1.00  0.00    -0.217 C  
HETATM   35  C   UNL     1     -10.065   1.541  62.483  1.00  0.00    -0.094 C  
ENDBRANCH  31  34
ENDBRANCH  25  28
ENDBRANCH  21  25
ENDBRANCH  11  16
ENDBRANCH   3   4
ENDBRANCH   2   3
TORSDOF 8
ENDMDL
MODEL      185
REMARK 921   NORMALIZED FREE ENERGY PREDICTED BY IDOCK:   -3.08 KCAL/MOL
REMARK 922        TOTAL FREE ENERGY PREDICTED BY IDOCK:   -5.54 KCAL/MOL
REMARK 923 INTER-LIGAND FREE ENERGY PREDICTED BY IDOCK:   -6.51 KCAL/MOL
REMARK 924 INTRA-LIGAND FREE ENERGY PREDICTED BY IDOCK:    0.97 KCAL/MOL
REMARK 927      BINDING AFFINITY PREDICTED BY RF-SCORE:    0.00 PKD
ROOT
HETATM    1  C   UNL     1      -6.212   4.711  72.327  1.00  0.00    -0.018 C  
HETATM    2  C   UNL     1      -7.668   4.492  71.935  1.00  0.00    -0.092 C  
ENDROOT
BRANCH   2   3
HETATM    3  C   UNL     1      -8.128   5.358  70.759  1.00  0.00    -0.111 C  
BRANCH   3   4
HETATM    4  C   UNL     1      -8.594   4.558  69.588  1.00  0.00    -0.076 A  
HETATM    5  N   UNL     1      -8.761   3.248  69.583  1.00  0.00    -0.066 NA 
HETATM    6  C   UNL     1      -9.212   2.927  68.326  1.00  0.00    -0.193 A  
HETATM    7  C   UNL     1      -9.309   4.067  67.557  1.00  0.00    -0.183 A  
HETATM    8  C   UNL     1      -9.523   1.527  67.961  1.00  0.00    -0.190 C  
HETATM    9  N   UNL     1      -8.928   5.087  68.362  1.00  0.00    -0.105 NA 
HETATM   10  N   UNL     1      -8.958   6.394  67.957  1.00  0.00    -0.116 NA 
HETATM   11  C   UNL     1      -9.230   6.553  66.603  1.00  0.00    -0.153 C  
HETATM   12  N   UNL     1      -9.576   5.601  65.793  1.00  0.00    -0.354 N  
HETATM   13  O   UNL     1     -10.126   3.412  65.473  1.00  0.00     0.047 OA 
HETATM   14  H   UNL     1      -9.752   5.828  64.814  1.00  0.00     0.000 HD 
HETATM   15  C   UNL     1      -9.715   4.299  66.207  1.00  0.00    -0.213 C  
BRANCH  11  16
HETATM   16  C   UNL     1      -9.112   7.944  66.014  1.00  0.00    -0.181 A  
HETATM   17  C   UNL     1      -8.258   9.542  64.387  1.00  0.00    -0.148 A  
HETATM   18  C   UNL     1      -8.322   8.224  64.872  1.00  0.00    -0.135 A  
HETATM   19  C   UNL     1      -9.786   8.995  66.658  1.00  0.00    -0.316 A  
HETATM   20  C   UNL     1      -8.939  10.576  65.024  1.00  0.00    -0.223 A  
HETATM   21  C   UNL     1      -9.696  10.299  66.157  1.00  0.00    -0.211 A  
BRANCH  18  22
HETATM   22  O   UNL     1      -7.663   7.186  64.265  1.00  0.00    -0.106 OA 
BRANCH  22  23
HETATM   23  C   UNL     1      -8.011   6.883  62.912  1.00  0.00    -0.083 C  
HETATM   24  C   UNL     1      -8.117   5.380  62.747  1.00  0.00    -0.099 C  
ENDBRANCH  22  23
ENDBRANCH  18  22
BRANCH  21  25
HETATM   25  S   UNL     1     -10.366  11.650  67.088  1.00  0.00    -0.224 S  
HETATM   26  O   UNL     1      -9.477  11.877  68.206  1.00  0.00    -0.189 OA 
HETATM   27  O   UNL     1     -11.768  11.363  67.300  1.00  0.00    -0.577 OA 
BRANCH  25  28
HETATM   28  N   UNL     1     -10.223  12.977  66.019  1.00  0.00    -0.282 N  
HETATM   29  C   UNL     1     -10.448  12.705  64.564  1.00  0.00    -0.355 C  
HETATM   30  C   UNL     1     -11.953  12.608  64.205  1.00  0.00    -0.408 C  
HETATM   31  N   UNL     1     -12.797  13.726  64.690  1.00  0.00    -0.667 NA 
HETATM   32  C   UNL     1     -12.520  13.959  66.125  1.00  0.00    -0.436 C  
HETATM   33  C   UNL     1     -11.027  14.169  66.442  1.00  0.00    -0.311 C  
BRANCH  31  34
HETATM   34  C   UNL     1     -12.626  14.916  63.846  1.00  0.00     0.395 C  
HETATM   35  C   UNL     1     -11.731  15.985  64.465  1.00  0.00    -0.127 C  
ENDBRANCH  31  34
ENDBRANCH  25  28
ENDBRANCH  21  25
ENDBRANCH  11  16
ENDBRANCH   3   4
ENDBRANCH   2   3
TORSDOF 8
ENDMDL
MODEL      186
REMARK 921   NORMALIZED FREE ENERGY PREDICTED BY IDOCK:   -2.96 KCAL/MOL
REMARK 922        TOTAL FREE ENERGY PREDICTED BY IDOCK:   -5.35 KCAL/MOL
REMARK 923 INTER-LIGAND FREE ENERGY PREDICTED BY IDOCK:   -4.54 KCAL/MOL
REMARK 924 INTRA-LIGAND FREE ENERGY PREDICTED BY IDOCK:   -0.82 KCAL/MOL
REMARK 927      BINDING AFFINITY PREDICTED BY RF-SCORE:    0.00 PKD
ROOT
HETATM    1  C   UNL     1      -7.394   7.022  73.380  1.00  0.00    -0.076 C  
HETATM    2  C   UNL     1      -6.554   8.292  73.433  1.00  0.00    -0.130 C  
ENDROOT
BRANCH   2   3
HETATM    3  C   UNL     1      -5.607   8.457  72.242  1.00  0.00    -0.045 C  
BRANCH   3   4
HETATM    4  C   UNL     1      -5.913   9.659  71.411  1.00  0.00    -0.025 A  
HETATM    5  N   UNL     1      -5.438  10.871  71.630  1.00  0.00    -0.329 NA 
HETATM    6  C   UNL     1      -5.949  11.666  70.633  1.00  0.00    -0.005 A  
HETATM    7  C   UNL     1      -6.756  10.916  69.804  1.00  0.00    -0.144 A  
HETATM    8  C   UNL     1      -5.610  13.104  70.554  1.00  0.00    -0.175 C  
HETATM    9  N   UNL     1      -6.719   9.655  70.295  1.00  0.00    -0.084 NA 
HETATM   10  N   UNL     1      -7.358   8.610  69.686  1.00  0.00    -0.055 NA 
HETATM   11  C   UNL     1      -8.190   8.995  68.642  1.00  0.00    -0.118 C  
HETATM   12  N   UNL     1      -8.272  10.195  68.155  1.00  0.00    -0.112 N  
HETATM   13  O   UNL     1      -7.524  12.348  68.131  1.00  0.00    -0.099 OA 
HETATM   14  H   UNL     1      -8.919  10.370  67.385  1.00  0.00     0.000 HD 
HETATM   15  C   UNL     1      -7.519  11.236  68.639  1.00  0.00    -0.118 C  
BRANCH  11  16
HETATM   16  C   UNL     1      -9.079   7.940  68.015  1.00  0.00    -0.132 A  
HETATM   17  C   UNL     1     -11.151   6.672  67.852  1.00  0.00    -0.310 A  
HETATM   18  C   UNL     1     -10.388   7.670  68.482  1.00  0.00    -0.198 A  
HETATM   19  C   UNL     1      -8.557   7.180  66.955  1.00  0.00    -0.124 A  
HETATM   20  C   UNL     1     -10.630   5.930  66.795  1.00  0.00    -0.368 A  
HETATM   21  C   UNL     1      -9.337   6.186  66.354  1.00  0.00    -0.152 A  
BRANCH  18  22
HETATM   22  O   UNL     1     -10.874   8.417  69.526  1.00  0.00    -0.210 OA 
BRANCH  22  23
HETATM   23  C   UNL     1     -11.212   7.726  70.730  1.00  0.00    -0.271 C  
HETATM   24  C   UNL     1     -10.539   8.409  71.904  1.00  0.00    -0.370 C  
ENDBRANCH  22  23
ENDBRANCH  18  22
BRANCH  21  25
HETATM   25  S   UNL     1      -8.607   5.088  65.168  1.00  0.00    -0.150 S  
HETATM   26  O   UNL     1      -8.128   5.903  64.074  1.00  0.00    -0.119 OA 
HETATM   27  O   UNL     1      -9.556   4.021  64.940  1.00  0.00    -0.157 OA 
BRANCH  25  28
HETATM   28  N   UNL     1      -7.248   4.460  65.994  1.00  0.00    -0.074 N  
HETATM   29  C   UNL     1      -7.264   4.540  67.490  1.00  0.00    -0.069 C  
HETATM   30  C   UNL     1      -8.139   3.433  68.133  1.00  0.00    -0.074 C  
HETATM   31  N   UNL     1      -7.868   2.055  67.662  1.00  0.00    -0.059 NA 
HETATM   32  C   UNL     1      -7.847   2.040  66.182  1.00  0.00    -0.076 C  
HETATM   33  C   UNL     1      -6.883   3.071  65.566  1.00  0.00    -0.048 C  
BRANCH  31  34
HETATM   34  C   UNL     1      -6.650   1.517  68.283  1.00  0.00    -0.029 C  
HETATM   35  C   UNL     1      -6.676   1.538  69.808  1.00  0.00    -0.029 C  
ENDBRANCH  31  34
ENDBRANCH  25  28
ENDBRANCH  21  25
ENDBRANCH  11  16
ENDBRANCH   3   4
ENDBRANCH   2   3
TORSDOF 8
ENDMDL
MODEL      187
REMARK 921   NORMALIZED FREE ENERGY PREDICTED BY IDOCK:   -2.88 KCAL/MOL
REMARK 922        TOTAL FREE ENERGY PREDICTED BY IDOCK:   -5.23 KCAL/MOL
REMARK 923 INTER-LIGAND FREE ENERGY PREDICTED BY IDOCK:   -5.96 KCAL/MOL
REMARK 924 INTRA-LIGAND FREE ENERGY PREDICTED BY IDOCK:    0.73 KCAL/MOL
REMARK 927      BINDING AFFINITY PREDICTED BY RF-SCORE:    0.00 PKD
ROOT
HETATM    1  C   UNL     1      -6.640  10.747  63.253  1.00  0.00     0.205 C  
HETATM    2  C   UNL     1      -7.688  10.091  62.362  1.00  0.00    -0.140 C  
ENDROOT
BRANCH   2   3
HETATM    3  C   UNL     1      -8.646   9.166  63.115  1.00  0.00    -0.186 C  
BRANCH   3   4
HETATM    4  C   UNL     1      -9.534   9.892  64.071  1.00  0.00    -0.167 A  
HETATM    5  N   UNL     1     -10.377  10.853  63.741  1.00  0.00    -0.354 NA 
HETATM    6  C   UNL     1     -11.001  11.228  64.905  1.00  0.00    -0.173 A  
HETATM    7  C   UNL     1     -10.514  10.484  65.959  1.00  0.00    -0.156 A  
HETATM    8  C   UNL     1     -12.035  12.287  64.910  1.00  0.00    -0.420 C  
HETATM    9  N   UNL     1      -9.601   9.641  65.423  1.00  0.00    -0.285 NA 
HETATM   10  N   UNL     1      -8.948   8.695  66.165  1.00  0.00    -0.168 NA 
HETATM   11  C   UNL     1      -9.168   8.808  67.533  1.00  0.00    -0.136 C  
HETATM   12  N   UNL     1     -10.017   9.617  68.089  1.00  0.00    -0.154 N  
HETATM   13  O   UNL     1     -11.673  11.168  67.864  1.00  0.00    -0.542 OA 
HETATM   14  H   UNL     1     -10.099   9.621  69.106  1.00  0.00     0.000 HD 
HETATM   15  C   UNL     1     -10.809  10.467  67.357  1.00  0.00    -0.291 C  
BRANCH  11  16
HETATM   16  C   UNL     1      -8.357   7.926  68.459  1.00  0.00    -0.128 A  
HETATM   17  C   UNL     1      -7.428   5.783  69.146  1.00  0.00    -0.084 A  
HETATM   18  C   UNL     1      -8.191   6.537  68.238  1.00  0.00    -0.114 A  
HETATM   19  C   UNL     1      -7.784   8.514  69.600  1.00  0.00    -0.093 A  
HETATM   20  C   UNL     1      -6.854   6.375  70.268  1.00  0.00    -0.054 A  
HETATM   21  C   UNL     1      -7.037   7.735  70.491  1.00  0.00    -0.047 A  
BRANCH  18  22
HETATM   22  O   UNL     1      -8.768   5.981  67.124  1.00  0.00    -0.111 OA 
BRANCH  22  23
HETATM   23  C   UNL     1      -9.980   5.248  67.306  1.00  0.00    -0.177 C  
HETATM   24  C   UNL     1     -11.142   6.218  67.399  1.00  0.00    -0.384 C  
ENDBRANCH  22  23
ENDBRANCH  18  22
BRANCH  21  25
HETATM   25  S   UNL     1      -6.500   8.428  72.032  1.00  0.00    -0.072 S  
HETATM   26  O   UNL     1      -6.223   9.827  71.794  1.00  0.00    -0.300 OA 
HETATM   27  O   UNL     1      -5.481   7.547  72.559  1.00  0.00    -0.037 OA 
BRANCH  25  28
HETATM   28  N   UNL     1      -7.893   8.324  73.018  1.00  0.00    -0.151 N  
HETATM   29  C   UNL     1      -9.186   7.994  72.338  1.00  0.00    -0.202 C  
HETATM   30  C   UNL     1      -9.322   6.482  72.025  1.00  0.00    -0.147 C  
HETATM   31  N   UNL     1      -9.054   5.570  73.162  1.00  0.00    -0.127 NA 
HETATM   32  C   UNL     1      -7.777   5.953  73.804  1.00  0.00    -0.096 C  
HETATM   33  C   UNL     1      -7.709   7.437  74.213  1.00  0.00    -0.137 C  
BRANCH  31  34
HETATM   34  C   UNL     1     -10.198   5.529  74.083  1.00  0.00    -0.265 C  
HETATM   35  C   UNL     1     -10.653   4.118  74.437  1.00  0.00    -0.262 C  
ENDBRANCH  31  34
ENDBRANCH  25  28
ENDBRANCH  21  25
ENDBRANCH  11  16
ENDBRANCH   3   4
ENDBRANCH   2   3
TORSDOF 8
ENDMDL
MODEL      188
REMARK 921   NORMALIZED FREE ENERGY PREDICTED BY IDOCK:   -2.84 KCAL/MOL
REMARK 922        TOTAL FREE ENERGY PREDICTED BY IDOCK:   -5.18 KCAL/MOL
REMARK 923 INTER-LIGAND FREE ENERGY PREDICTED BY IDOCK:   -5.97 KCAL/MOL
REMARK 924 INTRA-LIGAND FREE ENERGY PREDICTED BY IDOCK:    0.78 KCAL/MOL
REMARK 927      BINDING AFFINITY PREDICTED BY RF-SCORE:    0.00 PKD
ROOT
HETATM    1  C   UNL     1      -7.349   3.071  64.677  1.00  0.00    -0.070 C  
HETATM    2  C   UNL     1      -5.997   3.730  64.922  1.00  0.00    -0.023 C  
ENDROOT
BRANCH   2   3
HETATM    3  C   UNL     1      -6.041   5.259  64.895  1.00  0.00    -0.026 C  
BRANCH   3   4
HETATM    4  C   UNL     1      -6.438   5.858  66.203  1.00  0.00    -0.046 A  
HETATM    5  N   UNL     1      -6.211   5.316  67.385  1.00  0.00    -0.033 NA 
HETATM    6  C   UNL     1      -6.716   6.195  68.311  1.00  0.00    -0.068 A  
HETATM    7  C   UNL     1      -7.268   7.284  67.671  1.00  0.00    -0.091 A  
HETATM    8  C   UNL     1      -6.623   5.913  69.761  1.00  0.00    -0.047 C  
HETATM    9  N   UNL     1      -7.079   7.068  66.348  1.00  0.00    -0.072 NA 
HETATM   10  N   UNL     1      -7.444   7.979  65.395  1.00  0.00    -0.076 NA 
HETATM   11  C   UNL     1      -8.187   9.043  65.894  1.00  0.00    -0.117 C  
HETATM   12  N   UNL     1      -8.410   9.275  67.151  1.00  0.00    -0.123 N  
HETATM   13  O   UNL     1      -8.046   8.724  69.333  1.00  0.00    -0.102 OA 
HETATM   14  H   UNL     1      -8.972  10.087  67.409  1.00  0.00     0.000 HD 
HETATM   15  C   UNL     1      -7.917   8.466  68.145  1.00  0.00    -0.119 C  
BRANCH  11  16
HETATM   16  C   UNL     1      -8.792  10.015  64.901  1.00  0.00    -0.219 A  
HETATM   17  C   UNL     1      -8.752  11.313  62.842  1.00  0.00    -0.115 A  
HETATM   18  C   UNL     1      -8.129  10.402  63.711  1.00  0.00    -0.104 A  
HETATM   19  C   UNL     1     -10.043  10.578  65.205  1.00  0.00    -0.383 A  
HETATM   20  C   UNL     1      -9.998  11.857  63.144  1.00  0.00    -0.327 A  
HETATM   21  C   UNL     1     -10.635  11.490  64.324  1.00  0.00    -0.347 A  
BRANCH  18  22
HETATM   22  O   UNL     1      -6.903   9.849  63.439  1.00  0.00    -0.116 OA 
BRANCH  22  23
HETATM   23  C   UNL     1      -6.830   8.893  62.380  1.00  0.00    -0.093 C  
HETATM   24  C   UNL     1      -5.854   7.797  62.763  1.00  0.00    -0.063 C  
ENDBRANCH  22  23
ENDBRANCH  18  22
BRANCH  21  25
HETATM   25  S   UNL     1     -12.103  12.358  64.808  1.00  0.00    -0.395 S  
HETATM   26  O   UNL     1     -12.308  12.092  66.215  1.00  0.00    -0.507 OA 
HETATM   27  O   UNL     1     -13.124  12.037  63.835  1.00  0.00    -0.695 OA 
BRANCH  25  28
HETATM   28  N   UNL     1     -11.666  14.001  64.637  1.00  0.00    -0.385 N  
HETATM   29  C   UNL     1     -12.394  14.992  65.492  1.00  0.00     0.219 C  
HETATM   30  C   UNL     1     -11.860  15.025  66.947  1.00  0.00    -0.098 C  
HETATM   31  N   UNL     1     -10.390  15.161  67.083  1.00  0.00    -0.259 NA 
HETATM   32  C   UNL     1      -9.726  14.172  66.205  1.00  0.00    -0.297 C  
HETATM   33  C   UNL     1     -10.188  14.235  64.737  1.00  0.00    -0.250 C  
BRANCH  31  34
HETATM   34  C   UNL     1      -9.968  16.548  66.848  1.00  0.00    -0.271 C  
HETATM   35  C   UNL     1      -9.183  17.157  68.005  1.00  0.00    -0.250 C  
ENDBRANCH  31  34
ENDBRANCH  25  28
ENDBRANCH  21  25
ENDBRANCH  11  16
ENDBRANCH   3   4
ENDBRANCH   2   3
TORSDOF 8
ENDMDL
MODEL      189
REMARK 921   NORMALIZED FREE ENERGY PREDICTED BY IDOCK:   -2.84 KCAL/MOL
REMARK 922        TOTAL FREE ENERGY PREDICTED BY IDOCK:   -5.18 KCAL/MOL
REMARK 923 INTER-LIGAND FREE ENERGY PREDICTED BY IDOCK:   -4.79 KCAL/MOL
REMARK 924 INTRA-LIGAND FREE ENERGY PREDICTED BY IDOCK:   -0.39 KCAL/MOL
REMARK 927      BINDING AFFINITY PREDICTED BY RF-SCORE:    0.00 PKD
ROOT
HETATM    1  C   UNL     1      -7.738   2.772  66.170  1.00  0.00    -0.077 C  
HETATM    2  C   UNL     1      -7.103   4.115  66.508  1.00  0.00    -0.064 C  
ENDROOT
BRANCH   2   3
HETATM    3  C   UNL     1      -5.962   4.020  67.524  1.00  0.00    -0.024 C  
BRANCH   3   4
HETATM    4  C   UNL     1      -6.368   4.423  68.903  1.00  0.00    -0.032 A  
HETATM    5  N   UNL     1      -6.085   3.751  70.003  1.00  0.00    -0.022 NA 
HETATM    6  C   UNL     1      -6.624   4.472  71.040  1.00  0.00    -0.030 A  
HETATM    7  C   UNL     1      -7.255   5.596  70.550  1.00  0.00    -0.074 A  
HETATM    8  C   UNL     1      -6.484   4.017  72.441  1.00  0.00    -0.021 C  
HETATM    9  N   UNL     1      -7.080   5.561  69.208  1.00  0.00    -0.062 NA 
HETATM   10  N   UNL     1      -7.520   6.560  68.384  1.00  0.00    -0.087 NA 
HETATM   11  C   UNL     1      -8.316   7.503  69.022  1.00  0.00    -0.129 C  
HETATM   12  N   UNL     1      -8.528   7.560  70.301  1.00  0.00    -0.137 N  
HETATM   13  O   UNL     1      -8.087   6.762  72.391  1.00  0.00    -0.102 OA 
HETATM   14  H   UNL     1      -9.133   8.295  70.668  1.00  0.00     0.000 HD 
HETATM   15  C   UNL     1      -7.965   6.665  71.178  1.00  0.00    -0.107 C  
BRANCH  11  16
HETATM   16  C   UNL     1      -9.000   8.552  68.169  1.00  0.00    -0.142 A  
HETATM   17  C   UNL     1     -10.151   9.292  66.155  1.00  0.00    -0.304 A  
HETATM   18  C   UNL     1      -9.535   8.264  66.890  1.00  0.00    -0.186 A  
HETATM   19  C   UNL     1      -9.064   9.866  68.661  1.00  0.00    -0.132 A  
HETATM   20  C   UNL     1     -10.220  10.589  66.655  1.00  0.00    -0.289 A  
HETATM   21  C   UNL     1      -9.675  10.871  67.902  1.00  0.00    -0.165 A  
BRANCH  18  22
HETATM   22  O   UNL     1      -9.452   6.976  66.424  1.00  0.00    -0.175 OA 
BRANCH  22  23
HETATM   23  C   UNL     1     -10.645   6.190  66.441  1.00  0.00    -0.037 C  
HETATM   24  C   UNL     1     -10.599   5.237  67.619  1.00  0.00    -0.126 C  
ENDBRANCH  22  23
ENDBRANCH  18  22
BRANCH  21  25
HETATM   25  S   UNL     1      -9.565  12.562  68.425  1.00  0.00    -0.129 S  
HETATM   26  O   UNL     1      -8.217  12.769  68.907  1.00  0.00     0.061 OA 
HETATM   27  O   UNL     1     -10.706  12.816  69.276  1.00  0.00    -0.079 OA 
BRANCH  25  28
HETATM   28  N   UNL     1      -9.747  13.438  66.968  1.00  0.00    -0.233 N  
HETATM   29  C   UNL     1     -11.118  13.949  66.649  1.00  0.00    -0.306 C  
HETATM   30  C   UNL     1     -11.470  15.235  67.440  1.00  0.00    -0.241 C  
HETATM   31  N   UNL     1     -10.457  16.315  67.384  1.00  0.00    -0.301 NA 
HETATM   32  C   UNL     1      -9.124  15.749  67.690  1.00  0.00    -0.192 C  
HETATM   33  C   UNL     1      -8.746  14.542  66.811  1.00  0.00    -0.185 C  
BRANCH  31  34
HETATM   34  C   UNL     1     -10.523  17.030  66.102  1.00  0.00    -0.271 C  
HETATM   35  C   UNL     1     -10.090  18.490  66.189  1.00  0.00    -0.391 C  
ENDBRANCH  31  34
ENDBRANCH  25  28
ENDBRANCH  21  25
ENDBRANCH  11  16
ENDBRANCH   3   4
ENDBRANCH   2   3
TORSDOF 8
ENDMDL
MODEL      190
REMARK 921   NORMALIZED FREE ENERGY PREDICTED BY IDOCK:   -2.83 KCAL/MOL
REMARK 922        TOTAL FREE ENERGY PREDICTED BY IDOCK:   -5.17 KCAL/MOL
REMARK 923 INTER-LIGAND FREE ENERGY PREDICTED BY IDOCK:   -6.39 KCAL/MOL
REMARK 924 INTRA-LIGAND FREE ENERGY PREDICTED BY IDOCK:    1.22 KCAL/MOL
REMARK 927      BINDING AFFINITY PREDICTED BY RF-SCORE:    0.00 PKD
ROOT
HETATM    1  C   UNL     1     -10.087   4.786  65.399  1.00  0.00    -0.107 C  
HETATM    2  C   UNL     1      -8.564   4.736  65.386  1.00  0.00    -0.134 C  
ENDROOT
BRANCH   2   3
HETATM    3  C   UNL     1      -7.901   5.895  66.133  1.00  0.00    -0.104 C  
BRANCH   3   4
HETATM    4  C   UNL     1      -8.439   6.088  67.513  1.00  0.00    -0.107 A  
HETATM    5  N   UNL     1      -8.576   5.132  68.413  1.00  0.00    -0.098 NA 
HETATM    6  C   UNL     1      -9.082   5.737  69.537  1.00  0.00    -0.130 A  
HETATM    7  C   UNL     1      -9.263   7.084  69.303  1.00  0.00    -0.139 A  
HETATM    8  C   UNL     1      -9.353   4.960  70.767  1.00  0.00    -0.211 C  
HETATM    9  N   UNL     1      -8.846   7.296  68.032  1.00  0.00    -0.130 NA 
HETATM   10  N   UNL     1      -8.817   8.541  67.466  1.00  0.00    -0.135 NA 
HETATM   11  C   UNL     1      -9.424   9.522  68.241  1.00  0.00    -0.133 C  
HETATM   12  N   UNL     1      -9.857   9.356  69.453  1.00  0.00    -0.170 N  
HETATM   13  O   UNL     1     -10.075   8.012  71.282  1.00  0.00    -0.182 OA 
HETATM   14  H   UNL     1     -10.290  10.145  69.933  1.00  0.00     0.000 HD 
HETATM   15  C   UNL     1      -9.752   8.155  70.111  1.00  0.00    -0.175 C  
BRANCH  11  16
HETATM   16  C   UNL     1      -9.605  10.898  67.633  1.00  0.00    -0.177 A  
HETATM   17  C   UNL     1     -10.222  12.400  65.819  1.00  0.00    -0.283 A  
HETATM   18  C   UNL     1     -10.087  11.092  66.316  1.00  0.00    -0.232 A  
HETATM   19  C   UNL     1      -9.238  12.015  68.402  1.00  0.00    -0.160 A  
HETATM   20  C   UNL     1      -9.868  13.502  66.592  1.00  0.00    -0.279 A  
HETATM   21  C   UNL     1      -9.375  13.305  67.877  1.00  0.00    -0.214 A  
BRANCH  18  22
HETATM   22  O   UNL     1     -10.429   9.988  65.577  1.00  0.00    -0.167 OA 
BRANCH  22  23
HETATM   23  C   UNL     1      -9.570   9.626  64.494  1.00  0.00    -0.024 C  
HETATM   24  C   UNL     1      -9.503  10.774  63.505  1.00  0.00    -0.331 C  
ENDBRANCH  22  23
ENDBRANCH  18  22
BRANCH  21  25
HETATM   25  S   UNL     1      -8.714  14.692  68.762  1.00  0.00    -0.137 S  
HETATM   26  O   UNL     1      -7.385  14.324  69.196  1.00  0.00    -0.126 OA 
HETATM   27  O   UNL     1      -9.721  15.103  69.716  1.00  0.00    -0.187 OA 
BRANCH  25  28
HETATM   28  N   UNL     1      -8.564  15.894  67.556  1.00  0.00    -0.164 N  
HETATM   29  C   UNL     1      -9.818  16.315  66.854  1.00  0.00    -0.247 C  
HETATM   30  C   UNL     1     -10.667  17.300  67.698  1.00  0.00    -0.307 C  
HETATM   31  N   UNL     1      -9.932  18.463  68.250  1.00  0.00    -0.349 NA 
HETATM   32  C   UNL     1      -8.697  17.989  68.914  1.00  0.00    -0.110 C  
HETATM   33  C   UNL     1      -7.811  17.106  68.017  1.00  0.00    -0.195 C  
BRANCH  31  34
HETATM   34  C   UNL     1      -9.702  19.478  67.213  1.00  0.00    -0.343 C  
HETATM   35  C   UNL     1      -8.395  20.246  67.382  1.00  0.00    -0.396 C  
ENDBRANCH  31  34
ENDBRANCH  25  28
ENDBRANCH  21  25
ENDBRANCH  11  16
ENDBRANCH   3   4
ENDBRANCH   2   3
TORSDOF 8
ENDMDL
MODEL      191
REMARK 921   NORMALIZED FREE ENERGY PREDICTED BY IDOCK:   -2.77 KCAL/MOL
REMARK 922        TOTAL FREE ENERGY PREDICTED BY IDOCK:   -5.07 KCAL/MOL
REMARK 923 INTER-LIGAND FREE ENERGY PREDICTED BY IDOCK:   -4.78 KCAL/MOL
REMARK 924 INTRA-LIGAND FREE ENERGY PREDICTED BY IDOCK:   -0.30 KCAL/MOL
REMARK 927      BINDING AFFINITY PREDICTED BY RF-SCORE:    0.00 PKD
ROOT
HETATM    1  C   UNL     1      -8.579  17.654  66.235  1.00  0.00    -0.224 C  
HETATM    2  C   UNL     1      -8.587  16.137  66.374  1.00  0.00    -0.365 C  
ENDROOT
BRANCH   2   3
HETATM    3  C   UNL     1      -9.090  15.644  67.732  1.00  0.00    -0.181 C  
BRANCH   3   4
HETATM    4  C   UNL     1      -7.990  15.205  68.641  1.00  0.00    -0.151 A  
HETATM    5  N   UNL     1      -7.077  16.001  69.165  1.00  0.00    -0.185 NA 
HETATM    6  C   UNL     1      -6.277  15.202  69.945  1.00  0.00    -0.154 A  
HETATM    7  C   UNL     1      -6.714  13.896  69.880  1.00  0.00     0.038 A  
HETATM    8  C   UNL     1      -5.141  15.769  70.705  1.00  0.00    -0.178 C  
HETATM    9  N   UNL     1      -7.796  13.910  69.067  1.00  0.00    -0.009 NA 
HETATM   10  N   UNL     1      -8.541  12.790  68.816  1.00  0.00     0.081 NA 
HETATM   11  C   UNL     1      -7.979  11.621  69.314  1.00  0.00     0.275 C  
HETATM   12  N   UNL     1      -6.932  11.561  70.077  1.00  0.00    -0.303 N  
HETATM   13  O   UNL     1      -5.321  12.646  71.272  1.00  0.00    -0.237 OA 
HETATM   14  H   UNL     1      -6.600  10.647  70.386  1.00  0.00     0.000 HD 
HETATM   15  C   UNL     1      -6.255  12.685  70.483  1.00  0.00     0.217 C  
BRANCH  11  16
HETATM   16  C   UNL     1      -8.629  10.304  68.940  1.00  0.00    -0.150 A  
HETATM   17  C   UNL     1      -9.090   8.477  67.399  1.00  0.00    -0.148 A  
HETATM   18  C   UNL     1      -8.449   9.697  67.674  1.00  0.00    -0.125 A  
HETATM   19  C   UNL     1      -9.473   9.692  69.882  1.00  0.00    -0.260 A  
HETATM   20  C   UNL     1      -9.915   7.871  68.342  1.00  0.00    -0.198 A  
HETATM   21  C   UNL     1     -10.105   8.482  69.576  1.00  0.00    -0.200 A  
BRANCH  18  22
HETATM   22  O   UNL     1      -7.630  10.317  66.764  1.00  0.00    -0.102 OA 
BRANCH  22  23
HETATM   23  C   UNL     1      -6.450   9.622  66.357  1.00  0.00    -0.070 C  
HETATM   24  C   UNL     1      -5.697  10.465  65.346  1.00  0.00    -0.123 C  
ENDBRANCH  22  23
ENDBRANCH  18  22
BRANCH  21  25
HETATM   25  S   UNL     1     -11.331   7.824  70.676  1.00  0.00    -0.235 S  
HETATM   26  O   UNL     1     -11.877   6.643  70.044  1.00  0.00    -0.372 OA 
HETATM   27  O   UNL     1     -12.188   8.925  71.059  1.00  0.00    -0.282 OA 
BRANCH  25  28
HETATM   28  N   UNL     1     -10.419   7.327  72.033  1.00  0.00    -0.199 N  
HETATM   29  C   UNL     1     -10.863   6.077  72.730  1.00  0.00    -0.249 C  
HETATM   30  C   UNL     1     -10.414   4.793  71.986  1.00  0.00    -0.155 C  
HETATM   31  N   UNL     1      -8.978   4.737  71.623  1.00  0.00    -0.132 NA 
HETATM   32  C   UNL     1      -8.594   6.001  70.955  1.00  0.00    -0.131 C  
HETATM   33  C   UNL     1      -8.946   7.262  71.767  1.00  0.00    -0.127 C  
BRANCH  31  34
HETATM   34  C   UNL     1      -8.153   4.403  72.792  1.00  0.00    -0.094 C  
HETATM   35  C   UNL     1      -7.444   3.058  72.681  1.00  0.00    -0.049 C  
ENDBRANCH  31  34
ENDBRANCH  25  28
ENDBRANCH  21  25
ENDBRANCH  11  16
ENDBRANCH   3   4
ENDBRANCH   2   3
TORSDOF 8
ENDMDL
MODEL      192
REMARK 921   NORMALIZED FREE ENERGY PREDICTED BY IDOCK:   -2.76 KCAL/MOL
REMARK 922        TOTAL FREE ENERGY PREDICTED BY IDOCK:   -5.06 KCAL/MOL
REMARK 923 INTER-LIGAND FREE ENERGY PREDICTED BY IDOCK:   -5.41 KCAL/MOL
REMARK 924 INTRA-LIGAND FREE ENERGY PREDICTED BY IDOCK:    0.35 KCAL/MOL
REMARK 927      BINDING AFFINITY PREDICTED BY RF-SCORE:    0.00 PKD
ROOT
HETATM    1  C   UNL     1     -11.724  16.022  71.498  1.00  0.00    -0.554 C  
HETATM    2  C   UNL     1     -11.246  15.171  70.328  1.00  0.00    -0.306 C  
ENDROOT
BRANCH   2   3
HETATM    3  C   UNL     1     -10.620  15.980  69.190  1.00  0.00    -0.260 C  
BRANCH   3   4
HETATM    4  C   UNL     1     -10.843  15.371  67.845  1.00  0.00    -0.300 A  
HETATM    5  N   UNL     1     -11.066  16.049  66.735  1.00  0.00    -0.113 NA 
HETATM    6  C   UNL     1     -11.196  15.114  65.737  1.00  0.00    -0.287 A  
HETATM    7  C   UNL     1     -11.059  13.846  66.263  1.00  0.00    -0.304 A  
HETATM    8  C   UNL     1     -11.443  15.521  64.336  1.00  0.00    -0.264 C  
HETATM    9  N   UNL     1     -10.827  14.019  67.585  1.00  0.00    -0.259 NA 
HETATM   10  N   UNL     1     -10.574  12.973  68.430  1.00  0.00    -0.246 NA 
HETATM   11  C   UNL     1     -10.763  11.726  67.848  1.00  0.00    -0.204 C  
HETATM   12  N   UNL     1     -11.008  11.516  66.591  1.00  0.00    -0.288 N  
HETATM   13  O   UNL     1     -11.248  12.351  64.483  1.00  0.00    -0.298 OA 
HETATM   14  H   UNL     1     -11.132  10.557  66.267  1.00  0.00     0.000 HD 
HETATM   15  C   UNL     1     -11.106  12.542  65.682  1.00  0.00    -0.303 C  
BRANCH  11  16
HETATM   16  C   UNL     1     -10.682  10.505  68.741  1.00  0.00    -0.249 A  
HETATM   17  C   UNL     1     -11.520   9.057  70.511  1.00  0.00    -0.248 A  
HETATM   18  C   UNL     1     -11.667  10.206  69.715  1.00  0.00    -0.139 A  
HETATM   19  C   UNL     1      -9.562   9.666  68.616  1.00  0.00    -0.154 A  
HETATM   20  C   UNL     1     -10.412   8.224  70.372  1.00  0.00    -0.223 A  
HETATM   21  C   UNL     1      -9.439   8.533  69.429  1.00  0.00    -0.161 A  
BRANCH  18  22
HETATM   22  O   UNL     1     -12.747  11.044  69.828  1.00  0.00    -0.187 OA 
BRANCH  22  23
HETATM   23  C   UNL     1     -13.459  11.039  71.067  1.00  0.00     0.383 C  
HETATM   24  C   UNL     1     -13.309  12.391  71.736  1.00  0.00    -0.368 C  
ENDBRANCH  22  23
ENDBRANCH  18  22
BRANCH  21  25
HETATM   25  S   UNL     1      -7.930   7.601  69.421  1.00  0.00    -0.127 S  
HETATM   26  O   UNL     1      -7.264   7.885  68.169  1.00  0.00    -0.085 OA 
HETATM   27  O   UNL     1      -8.270   6.245  69.791  1.00  0.00    -0.120 OA 
BRANCH  25  28
HETATM   28  N   UNL     1      -7.019   8.313  70.679  1.00  0.00    -0.037 N  
HETATM   29  C   UNL     1      -5.546   8.462  70.452  1.00  0.00    -0.025 C  
HETATM   30  C   UNL     1      -5.206   9.676  69.550  1.00  0.00    -0.035 C  
HETATM   31  N   UNL     1      -5.831  10.960  69.948  1.00  0.00    -0.065 NA 
HETATM   32  C   UNL     1      -7.278  10.748  70.174  1.00  0.00     0.189 C  
HETATM   33  C   UNL     1      -7.590   9.611  71.165  1.00  0.00     0.365 C  
BRANCH  31  34
HETATM   34  C   UNL     1      -5.127  11.554  71.092  1.00  0.00    -0.114 C  
HETATM   35  C   UNL     1      -5.584  12.969  71.428  1.00  0.00    -0.021 C  
ENDBRANCH  31  34
ENDBRANCH  25  28
ENDBRANCH  21  25
ENDBRANCH  11  16
ENDBRANCH   3   4
ENDBRANCH   2   3
TORSDOF 8
ENDMDL
MODEL      193
REMARK 921   NORMALIZED FREE ENERGY PREDICTED BY IDOCK:   -2.76 KCAL/MOL
REMARK 922        TOTAL FREE ENERGY PREDICTED BY IDOCK:   -5.05 KCAL/MOL
REMARK 923 INTER-LIGAND FREE ENERGY PREDICTED BY IDOCK:   -4.36 KCAL/MOL
REMARK 924 INTRA-LIGAND FREE ENERGY PREDICTED BY IDOCK:   -0.69 KCAL/MOL
REMARK 927      BINDING AFFINITY PREDICTED BY RF-SCORE:    0.00 PKD
ROOT
HETATM    1  C   UNL     1      -5.615  16.974  70.323  1.00  0.00    -0.212 C  
HETATM    2  C   UNL     1      -5.148  17.293  68.908  1.00  0.00    -0.150 C  
ENDROOT
BRANCH   2   3
HETATM    3  C   UNL     1      -5.308  16.129  67.928  1.00  0.00    -0.136 C  
BRANCH   3   4
HETATM    4  C   UNL     1      -6.734  15.824  67.607  1.00  0.00    -0.172 A  
HETATM    5  N   UNL     1      -7.715  16.707  67.602  1.00  0.00    -0.162 NA 
HETATM    6  C   UNL     1      -8.846  16.018  67.240  1.00  0.00    -0.190 A  
HETATM    7  C   UNL     1      -8.539  14.690  67.033  1.00  0.00    -0.224 A  
HETATM    8  C   UNL     1     -10.151  16.704  67.116  1.00  0.00    -0.276 C  
HETATM    9  N   UNL     1      -7.209  14.580  67.257  1.00  0.00    -0.149 NA 
HETATM   10  N   UNL     1      -6.528  13.406  67.082  1.00  0.00    -0.126 NA 
HETATM   11  C   UNL     1      -7.352  12.313  66.843  1.00  0.00     0.033 C  
HETATM   12  N   UNL     1      -8.633  12.370  66.645  1.00  0.00    -0.373 N  
HETATM   13  O   UNL     1     -10.513  13.633  66.379  1.00  0.00    -0.280 OA 
HETATM   14  H   UNL     1      -9.145  11.504  66.480  1.00  0.00     0.000 HD 
HETATM   15  C   UNL     1      -9.323  13.558  66.652  1.00  0.00    -0.245 C  
BRANCH  11  16
HETATM   16  C   UNL     1      -6.716  10.938  66.812  1.00  0.00    -0.120 A  
HETATM   17  C   UNL     1      -5.503   9.088  67.830  1.00  0.00    -0.035 A  
HETATM   18  C   UNL     1      -6.075  10.368  67.938  1.00  0.00    -0.048 A  
HETATM   19  C   UNL     1      -6.737  10.227  65.600  1.00  0.00    -0.122 A  
HETATM   20  C   UNL     1      -5.538   8.386  66.629  1.00  0.00    -0.032 A  
HETATM   21  C   UNL     1      -6.151   8.958  65.520  1.00  0.00    -0.055 A  
BRANCH  18  22
HETATM   22  O   UNL     1      -6.057  11.083  69.109  1.00  0.00    -0.041 OA 
BRANCH  22  23
HETATM   23  C   UNL     1      -6.568  10.445  70.280  1.00  0.00    -0.141 C  
HETATM   24  C   UNL     1      -8.029  10.100  70.065  1.00  0.00    -0.108 C  
ENDBRANCH  22  23
ENDBRANCH  18  22
BRANCH  21  25
HETATM   25  S   UNL     1      -5.988   8.160  63.945  1.00  0.00    -0.067 S  
HETATM   26  O   UNL     1      -5.125   7.015  64.138  1.00  0.00    -0.027 OA 
HETATM   27  O   UNL     1      -5.655   9.187  62.983  1.00  0.00    -0.079 OA 
BRANCH  25  28
HETATM   28  N   UNL     1      -7.566   7.586  63.627  1.00  0.00    -0.112 N  
HETATM   29  C   UNL     1      -7.718   6.591  62.518  1.00  0.00    -0.098 C  
HETATM   30  C   UNL     1      -7.309   5.158  62.948  1.00  0.00    -0.044 C  
HETATM   31  N   UNL     1      -7.921   4.672  64.207  1.00  0.00    -0.094 NA 
HETATM   32  C   UNL     1      -7.755   5.701  65.258  1.00  0.00    -0.088 C  
HETATM   33  C   UNL     1      -8.276   7.092  64.852  1.00  0.00    -0.071 C  
BRANCH  31  34
HETATM   34  C   UNL     1      -9.313   4.258  63.988  1.00  0.00    -0.141 C  
HETATM   35  C   UNL     1     -10.085   3.990  65.276  1.00  0.00    -0.174 C  
ENDBRANCH  31  34
ENDBRANCH  25  28
ENDBRANCH  21  25
ENDBRANCH  11  16
ENDBRANCH   3   4
ENDBRANCH   2   3
TORSDOF 8
ENDMDL
MODEL      194
REMARK 921   NORMALIZED FREE ENERGY PREDICTED BY IDOCK:   -2.73 KCAL/MOL
REMARK 922        TOTAL FREE ENERGY PREDICTED BY IDOCK:   -5.02 KCAL/MOL
REMARK 923 INTER-LIGAND FREE ENERGY PREDICTED BY IDOCK:   -5.53 KCAL/MOL
REMARK 924 INTRA-LIGAND FREE ENERGY PREDICTED BY IDOCK:    0.51 KCAL/MOL
REMARK 927      BINDING AFFINITY PREDICTED BY RF-SCORE:    0.00 PKD
ROOT
HETATM    1  C   UNL     1      -6.116  15.543  68.592  1.00  0.00    -0.097 C  
HETATM    2  C   UNL     1      -7.173  15.629  67.497  1.00  0.00    -0.219 C  
ENDROOT
BRANCH   2   3
HETATM    3  C   UNL     1      -8.584  15.277  67.972  1.00  0.00    -0.152 C  
BRANCH   3   4
HETATM    4  C   UNL     1      -9.498  14.885  66.858  1.00  0.00    -0.237 A  
HETATM    5  N   UNL     1     -10.347  15.695  66.254  1.00  0.00    -0.293 NA 
HETATM    6  C   UNL     1     -10.970  14.944  65.288  1.00  0.00    -0.380 A  
HETATM    7  C   UNL     1     -10.491  13.651  65.320  1.00  0.00    -0.351 A  
HETATM    8  C   UNL     1     -11.989  15.539  64.396  1.00  0.00    -0.187 C  
HETATM    9  N   UNL     1      -9.560  13.627  66.302  1.00  0.00    -0.267 NA 
HETATM   10  N   UNL     1      -8.816  12.514  66.583  1.00  0.00    -0.183 NA 
HETATM   11  C   UNL     1      -9.235  11.375  65.904  1.00  0.00    -0.216 C  
HETATM   12  N   UNL     1     -10.138  11.350  64.973  1.00  0.00    -0.259 N  
HETATM   13  O   UNL     1     -11.576  12.485  63.616  1.00  0.00    -0.425 OA 
HETATM   14  H   UNL     1     -10.372  10.457  64.539  1.00  0.00     0.000 HD 
HETATM   15  C   UNL     1     -10.789  12.484  64.551  1.00  0.00    -0.328 C  
BRANCH  11  16
HETATM   16  C   UNL     1      -8.597  10.052  66.274  1.00  0.00    -0.137 A  
HETATM   17  C   UNL     1      -7.526   8.526  67.840  1.00  0.00    -0.097 A  
HETATM   18  C   UNL     1      -8.111   9.777  67.575  1.00  0.00    -0.114 A  
HETATM   19  C   UNL     1      -8.451   9.083  65.266  1.00  0.00    -0.181 A  
HETATM   20  C   UNL     1      -7.396   7.567  66.839  1.00  0.00    -0.093 A  
HETATM   21  C   UNL     1      -7.856   7.851  65.558  1.00  0.00    -0.112 A  
BRANCH  18  22
HETATM   22  O   UNL     1      -8.252  10.740  68.541  1.00  0.00    -0.121 OA 
BRANCH  22  23
HETATM   23  C   UNL     1      -7.566  10.540  69.778  1.00  0.00    -0.092 C  
HETATM   24  C   UNL     1      -6.399  11.504  69.864  1.00  0.00    -0.136 C  
ENDBRANCH  22  23
ENDBRANCH  18  22
BRANCH  21  25
HETATM   25  S   UNL     1      -7.480   6.720  64.245  1.00  0.00    -0.107 S  
HETATM   26  O   UNL     1      -6.047   6.521  64.255  1.00  0.00    -0.032 OA 
HETATM   27  O   UNL     1      -8.154   7.207  63.062  1.00  0.00    -0.112 OA 
BRANCH  25  28
HETATM   28  N   UNL     1      -8.220   5.265  64.752  1.00  0.00    -0.124 N  
HETATM   29  C   UNL     1      -9.074   4.551  63.749  1.00  0.00    -0.113 C  
HETATM   30  C   UNL     1      -8.236   3.742  62.727  1.00  0.00    -0.076 C  
HETATM   31  N   UNL     1      -7.212   2.844  63.312  1.00  0.00    -0.047 NA 
HETATM   32  C   UNL     1      -6.413   3.597  64.304  1.00  0.00    -0.037 C  
HETATM   33  C   UNL     1      -7.262   4.299  65.380  1.00  0.00    -0.071 C  
BRANCH  31  34
HETATM   34  C   UNL     1      -7.828   1.621  63.844  1.00  0.00    -0.061 C  
HETATM   35  C   UNL     1      -7.953   1.606  65.364  1.00  0.00    -0.073 C  
ENDBRANCH  31  34
ENDBRANCH  25  28
ENDBRANCH  21  25
ENDBRANCH  11  16
ENDBRANCH   3   4
ENDBRANCH   2   3
TORSDOF 8
ENDMDL
MODEL      195
REMARK 921   NORMALIZED FREE ENERGY PREDICTED BY IDOCK:   -2.72 KCAL/MOL
REMARK 922        TOTAL FREE ENERGY PREDICTED BY IDOCK:   -5.00 KCAL/MOL
REMARK 923 INTER-LIGAND FREE ENERGY PREDICTED BY IDOCK:   -4.22 KCAL/MOL
REMARK 924 INTRA-LIGAND FREE ENERGY PREDICTED BY IDOCK:   -0.78 KCAL/MOL
REMARK 927      BINDING AFFINITY PREDICTED BY RF-SCORE:    0.00 PKD
ROOT
HETATM    1  C   UNL     1      -6.930   6.892  73.617  1.00  0.00    -0.074 C  
HETATM    2  C   UNL     1      -6.727   8.389  73.424  1.00  0.00    -0.124 C  
ENDROOT
BRANCH   2   3
HETATM    3  C   UNL     1      -5.481   8.744  72.608  1.00  0.00    -0.061 C  
BRANCH   3   4
HETATM    4  C   UNL     1      -5.669   9.946  71.743  1.00  0.00     0.086 A  
HETATM    5  N   UNL     1      -5.152  11.137  71.980  1.00  0.00    -0.321 NA 
HETATM    6  C   UNL     1      -5.551  11.939  70.939  1.00  0.00    -0.071 A  
HETATM    7  C   UNL     1      -6.334  11.216  70.064  1.00  0.00    -0.147 A  
HETATM    8  C   UNL     1      -5.139  13.359  70.867  1.00  0.00    -0.126 C  
HETATM    9  N   UNL     1      -6.393   9.963  70.573  1.00  0.00    -0.097 NA 
HETATM   10  N   UNL     1      -7.037   8.939  69.933  1.00  0.00    -0.052 NA 
HETATM   11  C   UNL     1      -7.773   9.347  68.826  1.00  0.00    -0.080 C  
HETATM   12  N   UNL     1      -7.762  10.541  68.320  1.00  0.00    -0.098 N  
HETATM   13  O   UNL     1      -6.910  12.656  68.322  1.00  0.00    -0.070 OA 
HETATM   14  H   UNL     1      -8.344  10.735  67.504  1.00  0.00     0.000 HD 
HETATM   15  C   UNL     1      -6.996  11.553  68.844  1.00  0.00    -0.100 C  
BRANCH  11  16
HETATM   16  C   UNL     1      -8.665   8.325  68.151  1.00  0.00    -0.136 A  
HETATM   17  C   UNL     1     -10.764   7.613  67.143  1.00  0.00    -0.361 A  
HETATM   18  C   UNL     1      -9.995   8.615  67.760  1.00  0.00    -0.190 A  
HETATM   19  C   UNL     1      -8.155   7.032  67.946  1.00  0.00    -0.115 A  
HETATM   20  C   UNL     1     -10.247   6.337  66.933  1.00  0.00    -0.268 A  
HETATM   21  C   UNL     1      -8.947   6.053  67.338  1.00  0.00    -0.108 A  
BRANCH  18  22
HETATM   22  O   UNL     1     -10.478   9.880  67.979  1.00  0.00    -0.194 OA 
BRANCH  22  23
HETATM   23  C   UNL     1     -10.775  10.681  66.833  1.00  0.00    -0.237 C  
HETATM   24  C   UNL     1     -10.357  12.113  67.103  1.00  0.00    -0.233 C  
ENDBRANCH  22  23
ENDBRANCH  18  22
BRANCH  21  25
HETATM   25  S   UNL     1      -8.382   4.373  67.277  1.00  0.00    -0.100 S  
HETATM   26  O   UNL     1      -7.284   4.330  66.337  1.00  0.00    -0.072 OA 
HETATM   27  O   UNL     1      -9.550   3.541  67.094  1.00  0.00    -0.207 OA 
BRANCH  25  28
HETATM   28  N   UNL     1      -7.749   4.112  68.843  1.00  0.00    -0.055 N  
HETATM   29  C   UNL     1      -8.570   4.596  69.999  1.00  0.00    -0.077 C  
HETATM   30  C   UNL     1      -9.741   3.637  70.336  1.00  0.00    -0.131 C  
HETATM   31  N   UNL     1      -9.371   2.210  70.487  1.00  0.00    -0.120 NA 
HETATM   32  C   UNL     1      -8.549   1.793  69.329  1.00  0.00    -0.059 C  
HETATM   33  C   UNL     1      -7.324   2.694  69.082  1.00  0.00    -0.044 C  
BRANCH  31  34
HETATM   34  C   UNL     1      -8.736   1.967  71.790  1.00  0.00    -0.060 C  
HETATM   35  C   UNL     1      -9.191   2.927  72.884  1.00  0.00    -0.120 C  
ENDBRANCH  31  34
ENDBRANCH  25  28
ENDBRANCH  21  25
ENDBRANCH  11  16
ENDBRANCH   3   4
ENDBRANCH   2   3
TORSDOF 8
ENDMDL
MODEL      196
REMARK 921   NORMALIZED FREE ENERGY PREDICTED BY IDOCK:   -2.66 KCAL/MOL
REMARK 922        TOTAL FREE ENERGY PREDICTED BY IDOCK:   -4.91 KCAL/MOL
REMARK 923 INTER-LIGAND FREE ENERGY PREDICTED BY IDOCK:   -5.39 KCAL/MOL
REMARK 924 INTRA-LIGAND FREE ENERGY PREDICTED BY IDOCK:    0.49 KCAL/MOL
REMARK 927      BINDING AFFINITY PREDICTED BY RF-SCORE:    0.00 PKD
ROOT
HETATM    1  C   UNL     1      -5.926  17.310  69.161  1.00  0.00    -0.205 C  
HETATM    2  C   UNL     1      -5.953  17.562  67.658  1.00  0.00    -0.157 C  
ENDROOT
BRANCH   2   3
HETATM    3  C   UNL     1      -6.649  16.458  66.859  1.00  0.00    -0.170 C  
BRANCH   3   4
HETATM    4  C   UNL     1      -8.038  16.180  67.330  1.00  0.00    -0.159 A  
HETATM    5  N   UNL     1      -9.002  17.077  67.419  1.00  0.00    -0.210 NA 
HETATM    6  C   UNL     1     -10.109  16.404  67.873  1.00  0.00    -0.250 A  
HETATM    7  C   UNL     1      -9.801  15.075  68.071  1.00  0.00    -0.218 A  
HETATM    8  C   UNL     1     -11.397  17.103  68.080  1.00  0.00     0.217 C  
HETATM    9  N   UNL     1      -8.501  14.942  67.717  1.00  0.00    -0.147 NA 
HETATM   10  N   UNL     1      -7.857  13.735  67.721  1.00  0.00    -0.155 NA 
HETATM   11  C   UNL     1      -8.598  12.708  68.294  1.00  0.00    -0.167 C  
HETATM   12  N   UNL     1      -9.837  12.798  68.667  1.00  0.00    -0.398 N  
HETATM   13  O   UNL     1     -11.755  14.025  68.790  1.00  0.00    -0.308 OA 
HETATM   14  H   UNL     1     -10.288  11.981  69.079  1.00  0.00     0.000 HD 
HETATM   15  C   UNL     1     -10.564  13.955  68.524  1.00  0.00    -0.252 C  
BRANCH  11  16
HETATM   16  C   UNL     1      -7.914  11.373  68.510  1.00  0.00    -0.143 A  
HETATM   17  C   UNL     1      -6.055   9.987  69.252  1.00  0.00    -0.040 A  
HETATM   18  C   UNL     1      -6.626  11.261  69.089  1.00  0.00    -0.088 A  
HETATM   19  C   UNL     1      -8.578  10.212  68.080  1.00  0.00    -0.118 A  
HETATM   20  C   UNL     1      -6.725   8.840  68.833  1.00  0.00    -0.053 A  
HETATM   21  C   UNL     1      -7.980   8.958  68.247  1.00  0.00    -0.105 A  
BRANCH  18  22
HETATM   22  O   UNL     1      -5.990  12.408  69.492  1.00  0.00    -0.090 OA 
BRANCH  22  23
HETATM   23  C   UNL     1      -5.603  12.500  70.864  1.00  0.00    -0.124 C  
HETATM   24  C   UNL     1      -5.338  13.951  71.212  1.00  0.00    -0.184 C  
ENDBRANCH  22  23
ENDBRANCH  18  22
BRANCH  21  25
HETATM   25  S   UNL     1      -8.719   7.524  67.512  1.00  0.00    -0.125 S  
HETATM   26  O   UNL     1      -7.756   6.449  67.621  1.00  0.00    -0.099 OA 
HETATM   27  O   UNL     1      -9.239   7.929  66.225  1.00  0.00    -0.181 OA 
BRANCH  25  28
HETATM   28  N   UNL     1     -10.025   7.172  68.557  1.00  0.00    -0.154 N  
HETATM   29  C   UNL     1     -10.052   5.810  69.180  1.00  0.00    -0.197 C  
HETATM   30  C   UNL     1      -9.085   5.691  70.386  1.00  0.00    -0.144 C  
HETATM   31  N   UNL     1      -9.203   6.760  71.405  1.00  0.00    -0.154 NA 
HETATM   32  C   UNL     1      -9.188   8.079  70.732  1.00  0.00    -0.157 C  
HETATM   33  C   UNL     1     -10.238   8.215  69.613  1.00  0.00    -0.205 C  
BRANCH  31  34
HETATM   34  C   UNL     1     -10.374   6.540  72.263  1.00  0.00    -0.191 C  
HETATM   35  C   UNL     1     -10.486   5.116  72.798  1.00  0.00    -0.261 C  
ENDBRANCH  31  34
ENDBRANCH  25  28
ENDBRANCH  21  25
ENDBRANCH  11  16
ENDBRANCH   3   4
ENDBRANCH   2   3
TORSDOF 8
ENDMDL
MODEL      197
REMARK 921   NORMALIZED FREE ENERGY PREDICTED BY IDOCK:   -2.50 KCAL/MOL
REMARK 922        TOTAL FREE ENERGY PREDICTED BY IDOCK:   -4.68 KCAL/MOL
REMARK 923 INTER-LIGAND FREE ENERGY PREDICTED BY IDOCK:   -4.35 KCAL/MOL
REMARK 924 INTRA-LIGAND FREE ENERGY PREDICTED BY IDOCK:   -0.33 KCAL/MOL
REMARK 927      BINDING AFFINITY PREDICTED BY RF-SCORE:    0.00 PKD
ROOT
HETATM    1  C   UNL     1     -11.207  10.694  66.663  1.00  0.00     0.073 C  
HETATM    2  C   UNL     1     -11.378  12.069  66.029  1.00  0.00    -0.398 C  
ENDROOT
BRANCH   2   3
HETATM    3  C   UNL     1     -12.023  13.101  66.956  1.00  0.00    -0.412 C  
BRANCH   3   4
HETATM    4  C   UNL     1     -11.193  14.329  67.135  1.00  0.00    -0.322 A  
HETATM    5  N   UNL     1     -11.530  15.537  66.723  1.00  0.00    -0.057 NA 
HETATM    6  C   UNL     1     -10.505  16.368  67.102  1.00  0.00    -0.297 A  
HETATM    7  C   UNL     1      -9.526  15.641  67.745  1.00  0.00    -0.208 A  
HETATM    8  C   UNL     1     -10.551  17.819  66.812  1.00  0.00    -0.235 C  
HETATM    9  N   UNL     1      -9.972  14.364  67.770  1.00  0.00    -0.224 NA 
HETATM   10  N   UNL     1      -9.287  13.357  68.393  1.00  0.00    -0.195 NA 
HETATM   11  C   UNL     1      -8.019  13.728  68.825  1.00  0.00    -0.041 C  
HETATM   12  N   UNL     1      -7.544  14.935  68.800  1.00  0.00    -0.127 N  
HETATM   13  O   UNL     1      -7.868  17.153  68.382  1.00  0.00    -0.223 OA 
HETATM   14  H   UNL     1      -6.596  15.098  69.141  1.00  0.00     0.000 HD 
HETATM   15  C   UNL     1      -8.272  16.000  68.329  1.00  0.00    -0.159 C  
BRANCH  11  16
HETATM   16  C   UNL     1      -7.108  12.646  69.368  1.00  0.00     0.183 A  
HETATM   17  C   UNL     1      -5.276  11.856  70.764  1.00  0.00    -0.140 A  
HETATM   18  C   UNL     1      -6.086  12.912  70.311  1.00  0.00    -0.068 A  
HETATM   19  C   UNL     1      -7.269  11.338  68.879  1.00  0.00    -0.112 A  
HETATM   20  C   UNL     1      -5.450  10.560  70.283  1.00  0.00    -0.063 A  
HETATM   21  C   UNL     1      -6.442  10.309  69.343  1.00  0.00    -0.053 A  
BRANCH  18  22
HETATM   22  O   UNL     1      -5.938  14.197  70.767  1.00  0.00    -0.188 OA 
BRANCH  22  23
HETATM   23  C   UNL     1      -5.218  14.386  71.987  1.00  0.00    -0.170 C  
HETATM   24  C   UNL     1      -5.970  13.717  73.120  1.00  0.00     0.605 C  
ENDBRANCH  22  23
ENDBRANCH  18  22
BRANCH  21  25
HETATM   25  S   UNL     1      -6.503   8.714  68.571  1.00  0.00    -0.056 S  
HETATM   26  O   UNL     1      -5.201   8.109  68.745  1.00  0.00    -0.026 OA 
HETATM   27  O   UNL     1      -7.063   8.904  67.251  1.00  0.00    -0.080 OA 
BRANCH  25  28
HETATM   28  N   UNL     1      -7.621   7.850  69.533  1.00  0.00    -0.096 N  
HETATM   29  C   UNL     1      -9.054   8.279  69.462  1.00  0.00    -0.154 C  
HETATM   30  C   UNL     1      -9.769   7.746  68.194  1.00  0.00    -0.155 C  
HETATM   31  N   UNL     1      -9.620   6.294  67.942  1.00  0.00    -0.118 NA 
HETATM   32  C   UNL     1      -8.190   5.926  68.042  1.00  0.00    -0.105 C  
HETATM   33  C   UNL     1      -7.528   6.364  69.362  1.00  0.00    -0.094 C  
BRANCH  31  34
HETATM   34  C   UNL     1     -10.501   5.515  68.822  1.00  0.00    -0.191 C  
HETATM   35  C   UNL     1     -11.458   6.369  69.647  1.00  0.00    -0.446 C  
ENDBRANCH  31  34
ENDBRANCH  25  28
ENDBRANCH  21  25
ENDBRANCH  11  16
ENDBRANCH   3   4
ENDBRANCH   2   3
TORSDOF 8
ENDMDL
MODEL      198
REMARK 921   NORMALIZED FREE ENERGY PREDICTED BY IDOCK:   -2.48 KCAL/MOL
REMARK 922        TOTAL FREE ENERGY PREDICTED BY IDOCK:   -4.65 KCAL/MOL
REMARK 923 INTER-LIGAND FREE ENERGY PREDICTED BY IDOCK:   -3.55 KCAL/MOL
REMARK 924 INTRA-LIGAND FREE ENERGY PREDICTED BY IDOCK:   -1.10 KCAL/MOL
REMARK 927      BINDING AFFINITY PREDICTED BY RF-SCORE:    0.00 PKD
ROOT
HETATM    1  C   UNL     1      -7.885   7.757  72.737  1.00  0.00    -0.143 C  
HETATM    2  C   UNL     1      -6.664   8.655  72.891  1.00  0.00    -0.023 C  
ENDROOT
BRANCH   2   3
HETATM    3  C   UNL     1      -5.747   8.667  71.666  1.00  0.00    -0.047 C  
BRANCH   3   4
HETATM    4  C   UNL     1      -5.921   9.881  70.815  1.00  0.00    -0.092 A  
HETATM    5  N   UNL     1      -5.741  11.124  71.222  1.00  0.00    -0.357 NA 
HETATM    6  C   UNL     1      -5.984  11.921  70.131  1.00  0.00    -0.159 A  
HETATM    7  C   UNL     1      -6.329  11.141  69.048  1.00  0.00    -0.054 A  
HETATM    8  C   UNL     1      -5.861  13.394  70.218  1.00  0.00    -0.157 C  
HETATM    9  N   UNL     1      -6.276   9.861  69.485  1.00  0.00    -0.044 NA 
HETATM   10  N   UNL     1      -6.497   8.792  68.659  1.00  0.00    -0.053 NA 
HETATM   11  C   UNL     1      -6.959   9.147  67.398  1.00  0.00    -0.078 C  
HETATM   12  N   UNL     1      -7.046  10.360  66.946  1.00  0.00    -0.091 N  
HETATM   13  O   UNL     1      -6.670  12.588  67.251  1.00  0.00    -0.156 OA 
HETATM   14  H   UNL     1      -7.402  10.510  66.002  1.00  0.00     0.000 HD 
HETATM   15  C   UNL     1      -6.676  11.449  67.696  1.00  0.00    -0.075 C  
BRANCH  11  16
HETATM   16  C   UNL     1      -7.403   8.037  66.466  1.00  0.00    -0.084 A  
HETATM   17  C   UNL     1      -7.616   7.009  64.269  1.00  0.00    -0.112 A  
HETATM   18  C   UNL     1      -7.168   8.074  65.070  1.00  0.00    -0.069 A  
HETATM   19  C   UNL     1      -8.111   6.955  67.016  1.00  0.00    -0.117 A  
HETATM   20  C   UNL     1      -8.306   5.934  64.823  1.00  0.00    -0.103 A  
HETATM   21  C   UNL     1      -8.552   5.914  66.192  1.00  0.00    -0.137 A  
BRANCH  18  22
HETATM   22  O   UNL     1      -6.486   9.146  64.552  1.00  0.00    -0.074 OA 
BRANCH  22  23
HETATM   23  C   UNL     1      -6.863   9.601  63.251  1.00  0.00    -0.110 C  
HETATM   24  C   UNL     1      -8.105  10.463  63.364  1.00  0.00    -0.128 C  
ENDBRANCH  22  23
ENDBRANCH  18  22
BRANCH  21  25
HETATM   25  S   UNL     1      -9.625   4.663  66.848  1.00  0.00    -0.197 S  
HETATM   26  O   UNL     1     -10.441   4.188  65.753  1.00  0.00    -0.150 OA 
HETATM   27  O   UNL     1     -10.229   5.210  68.043  1.00  0.00    -0.164 OA 
BRANCH  25  28
HETATM   28  N   UNL     1      -8.548   3.411  67.289  1.00  0.00    -0.102 N  
HETATM   29  C   UNL     1      -7.310   3.808  68.032  1.00  0.00    -0.062 C  
HETATM   30  C   UNL     1      -7.581   4.074  69.536  1.00  0.00    -0.053 C  
HETATM   31  N   UNL     1      -8.327   3.009  70.246  1.00  0.00    -0.047 NA 
HETATM   32  C   UNL     1      -9.527   2.646  69.459  1.00  0.00    -0.064 C  
HETATM   33  C   UNL     1      -9.220   2.273  67.997  1.00  0.00    -0.201 C  
BRANCH  31  34
HETATM   34  C   UNL     1      -7.451   1.872  70.558  1.00  0.00    -0.032 C  
HETATM   35  C   UNL     1      -6.015   2.272  70.880  1.00  0.00    -0.018 C  
ENDBRANCH  31  34
ENDBRANCH  25  28
ENDBRANCH  21  25
ENDBRANCH  11  16
ENDBRANCH   3   4
ENDBRANCH   2   3
TORSDOF 8
ENDMDL
MODEL      199
REMARK 921   NORMALIZED FREE ENERGY PREDICTED BY IDOCK:   -2.31 KCAL/MOL
REMARK 922        TOTAL FREE ENERGY PREDICTED BY IDOCK:   -4.40 KCAL/MOL
REMARK 923 INTER-LIGAND FREE ENERGY PREDICTED BY IDOCK:   -5.72 KCAL/MOL
REMARK 924 INTRA-LIGAND FREE ENERGY PREDICTED BY IDOCK:    1.32 KCAL/MOL
REMARK 927      BINDING AFFINITY PREDICTED BY RF-SCORE:    0.00 PKD
ROOT
HETATM    1  C   UNL     1      -8.090  20.620  64.742  1.00  0.00     1.386 C  
HETATM    2  C   UNL     1      -8.724  19.734  65.808  1.00  0.00     0.003 C  
ENDROOT
BRANCH   2   3
HETATM    3  C   UNL     1      -8.488  20.224  67.238  1.00  0.00    -0.415 C  
BRANCH   3   4
HETATM    4  C   UNL     1      -7.741  19.242  68.079  1.00  0.00    -0.288 A  
HETATM    5  N   UNL     1      -6.653  19.514  68.775  1.00  0.00    -0.281 NA 
HETATM    6  C   UNL     1      -6.305  18.348  69.411  1.00  0.00    -0.250 A  
HETATM    7  C   UNL     1      -7.199  17.351  69.081  1.00  0.00    -0.175 A  
HETATM    8  C   UNL     1      -5.125  18.285  70.302  1.00  0.00    -0.232 C  
HETATM    9  N   UNL     1      -8.102  17.925  68.253  1.00  0.00    -0.283 NA 
HETATM   10  N   UNL     1      -9.188  17.249  67.767  1.00  0.00    -0.236 NA 
HETATM   11  C   UNL     1      -9.171  15.888  68.047  1.00  0.00    -0.192 C  
HETATM   12  N   UNL     1      -8.312  15.294  68.817  1.00  0.00    -0.165 N  
HETATM   13  O   UNL     1      -6.544  15.441  70.249  1.00  0.00    -0.088 OA 
HETATM   14  H   UNL     1      -8.389  14.286  68.954  1.00  0.00     0.000 HD 
HETATM   15  C   UNL     1      -7.303  15.975  69.453  1.00  0.00    -0.212 C  
BRANCH  11  16
HETATM   16  C   UNL     1     -10.232  15.017  67.406  1.00  0.00    -0.234 A  
HETATM   17  C   UNL     1     -12.501  14.157  67.211  1.00  0.00     0.002 A  
HETATM   18  C   UNL     1     -11.575  14.997  67.854  1.00  0.00    -0.333 A  
HETATM   19  C   UNL     1      -9.845  14.170  66.353  1.00  0.00    -0.308 A  
HETATM   20  C   UNL     1     -12.113  13.330  66.161  1.00  0.00    -0.477 A  
HETATM   21  C   UNL     1     -10.788  13.338  65.739  1.00  0.00    -0.274 A  
BRANCH  18  22
HETATM   22  O   UNL     1     -11.929  15.823  68.891  1.00  0.00    -0.382 OA 
BRANCH  22  23
HETATM   23  C   UNL     1     -12.608  15.234  70.001  1.00  0.00    -0.242 C  
HETATM   24  C   UNL     1     -11.605  14.501  70.870  1.00  0.00    -0.243 C  
ENDBRANCH  22  23
ENDBRANCH  18  22
BRANCH  21  25
HETATM   25  S   UNL     1     -10.258  12.122  64.563  1.00  0.00    -0.284 S  
HETATM   26  O   UNL     1      -9.407  12.797  63.608  1.00  0.00     0.314 OA 
HETATM   27  O   UNL     1     -11.440  11.409  64.132  1.00  0.00    -0.288 OA 
BRANCH  25  28
HETATM   28  N   UNL     1      -9.281  11.072  65.494  1.00  0.00    -0.209 N  
HETATM   29  C   UNL     1      -8.489  11.687  66.606  1.00  0.00    -0.165 C  
HETATM   30  C   UNL     1      -9.350  11.963  67.865  1.00  0.00    -0.187 C  
HETATM   31  N   UNL     1     -10.167  10.822  68.340  1.00  0.00    -0.168 NA 
HETATM   32  C   UNL     1     -10.912  10.245  67.199  1.00  0.00    -0.165 C  
HETATM   33  C   UNL     1     -10.018   9.870  66.002  1.00  0.00    -0.268 C  
BRANCH  31  34
HETATM   34  C   UNL     1      -9.337   9.850  69.066  1.00  0.00    -0.174 C  
HETATM   35  C   UNL     1     -10.127   8.950  70.010  1.00  0.00    -0.207 C  
ENDBRANCH  31  34
ENDBRANCH  25  28
ENDBRANCH  21  25
ENDBRANCH  11  16
ENDBRANCH   3   4
ENDBRANCH   2   3
TORSDOF 8
ENDMDL
MODEL      200
REMARK 921   NORMALIZED FREE ENERGY PREDICTED BY IDOCK:   -2.28 KCAL/MOL
REMARK 922        TOTAL FREE ENERGY PREDICTED BY IDOCK:   -4.35 KCAL/MOL
REMARK 923 INTER-LIGAND FREE ENERGY PREDICTED BY IDOCK:   -4.44 KCAL/MOL
REMARK 924 INTRA-LIGAND FREE ENERGY PREDICTED BY IDOCK:    0.09 KCAL/MOL
REMARK 927      BINDING AFFINITY PREDICTED BY RF-SCORE:    0.00 PKD
ROOT
HETATM    1  C   UNL     1     -13.654   8.623  73.256  1.00  0.00     0.856 C  
HETATM    2  C   UNL     1     -12.535   9.217  72.410  1.00  0.00    -0.350 C  
ENDROOT
BRANCH   2   3
HETATM    3  C   UNL     1     -12.931   9.475  70.955  1.00  0.00    -0.187 C  
BRANCH   3   4
HETATM    4  C   UNL     1     -12.276  10.684  70.374  1.00  0.00    -0.345 A  
HETATM    5  N   UNL     1     -12.654  11.929  70.594  1.00  0.00    -0.232 NA 
HETATM    6  C   UNL     1     -11.780  12.722  69.891  1.00  0.00    -0.251 A  
HETATM    7  C   UNL     1     -10.865  11.935  69.225  1.00  0.00    -0.104 A  
HETATM    8  C   UNL     1     -11.896  14.197  69.919  1.00  0.00    -0.387 C  
HETATM    9  N   UNL     1     -11.178  10.657  69.543  1.00  0.00    -0.251 NA 
HETATM   10  N   UNL     1     -10.438   9.590  69.113  1.00  0.00    -0.205 NA 
HETATM   11  C   UNL     1      -9.465   9.924  68.179  1.00  0.00    -0.138 C  
HETATM   12  N   UNL     1      -9.147  11.133  67.830  1.00  0.00    -0.146 N  
HETATM   13  O   UNL     1      -9.411  13.380  68.112  1.00  0.00    -0.208 OA 
HETATM   14  H   UNL     1      -8.416  11.267  67.132  1.00  0.00     0.000 HD 
HETATM   15  C   UNL     1      -9.763  12.237  68.368  1.00  0.00    -0.191 C  
BRANCH  11  16
HETATM   16  C   UNL     1      -8.708   8.797  67.506  1.00  0.00    -0.135 A  
HETATM   17  C   UNL     1      -8.030   7.505  65.557  1.00  0.00    -0.121 A  
HETATM   18  C   UNL     1      -8.755   8.576  66.108  1.00  0.00    -0.152 A  
HETATM   19  C   UNL     1      -7.967   7.921  68.316  1.00  0.00    -0.122 A  
HETATM   20  C   UNL     1      -7.289   6.648  66.366  1.00  0.00    -0.073 A  
HETATM   21  C   UNL     1      -7.263   6.858  67.740  1.00  0.00    -0.091 A  
BRANCH  18  22
HETATM   22  O   UNL     1      -9.493   9.437  65.336  1.00  0.00    -0.261 OA 
BRANCH  22  23
HETATM   23  C   UNL     1      -8.881  10.670  64.953  1.00  0.00    -0.190 C  
HETATM   24  C   UNL     1      -9.913  11.551  64.275  1.00  0.00    -0.312 C  
ENDBRANCH  22  23
ENDBRANCH  18  22
BRANCH  21  25
HETATM   25  S   UNL     1      -6.510   5.632  68.777  1.00  0.00    -0.044 S  
HETATM   26  O   UNL     1      -5.821   6.338  69.835  1.00  0.00    -0.017 OA 
HETATM   27  O   UNL     1      -5.801   4.721  67.907  1.00  0.00    -0.020 OA 
BRANCH  25  28
HETATM   28  N   UNL     1      -7.848   4.821  69.466  1.00  0.00    -0.066 N  
HETATM   29  C   UNL     1      -7.579   3.503  70.124  1.00  0.00    -0.044 C  
HETATM   30  C   UNL     1      -6.974   3.661  71.543  1.00  0.00    -0.031 C  
HETATM   31  N   UNL     1      -7.701   4.585  72.445  1.00  0.00    -0.083 NA 
HETATM   32  C   UNL     1      -7.953   5.860  71.737  1.00  0.00    -0.111 C  
HETATM   33  C   UNL     1      -8.661   5.687  70.380  1.00  0.00    -0.132 C  
BRANCH  31  34
HETATM   34  C   UNL     1      -8.912   3.950  72.982  1.00  0.00    -0.100 C  
HETATM   35  C   UNL     1     -10.109   4.890  73.081  1.00  0.00    -0.194 C  
ENDBRANCH  31  34
ENDBRANCH  25  28
ENDBRANCH  21  25
ENDBRANCH  11  16
ENDBRANCH   3   4
ENDBRANCH   2   3
TORSDOF 8
ENDMDL
MODEL      201
REMARK 921   NORMALIZED FREE ENERGY PREDICTED BY IDOCK:   -2.26 KCAL/MOL
REMARK 922        TOTAL FREE ENERGY PREDICTED BY IDOCK:   -4.32 KCAL/MOL
REMARK 923 INTER-LIGAND FREE ENERGY PREDICTED BY IDOCK:   -4.12 KCAL/MOL
REMARK 924 INTRA-LIGAND FREE ENERGY PREDICTED BY IDOCK:   -0.21 KCAL/MOL
REMARK 927      BINDING AFFINITY PREDICTED BY RF-SCORE:    0.00 PKD
ROOT
HETATM    1  C   UNL     1      -7.390   7.056  73.295  1.00  0.00    -0.075 C  
HETATM    2  C   UNL     1      -6.527   8.311  73.235  1.00  0.00    -0.116 C  
ENDROOT
BRANCH   2   3
HETATM    3  C   UNL     1      -5.627   8.383  72.000  1.00  0.00    -0.042 C  
BRANCH   3   4
HETATM    4  C   UNL     1      -5.915   9.562  71.130  1.00  0.00    -0.078 A  
HETATM    5  N   UNL     1      -5.431  10.776  71.315  1.00  0.00    -0.275 NA 
HETATM    6  C   UNL     1      -5.927  11.543  70.290  1.00  0.00    -0.160 A  
HETATM    7  C   UNL     1      -6.736  10.776  69.479  1.00  0.00    -0.108 A  
HETATM    8  C   UNL     1      -5.575  12.976  70.169  1.00  0.00    -0.134 C  
HETATM    9  N   UNL     1      -6.713   9.531  70.009  1.00  0.00    -0.060 NA 
HETATM   10  N   UNL     1      -7.358   8.473  69.428  1.00  0.00    -0.068 NA 
HETATM   11  C   UNL     1      -8.178   8.832  68.366  1.00  0.00    -0.118 C  
HETATM   12  N   UNL     1      -8.246  10.017  67.841  1.00  0.00    -0.113 N  
HETATM   13  O   UNL     1      -7.478  12.162  67.756  1.00  0.00    -0.102 OA 
HETATM   14  H   UNL     1      -8.886  10.175  67.062  1.00  0.00     0.000 HD 
HETATM   15  C   UNL     1      -7.487  11.067  68.299  1.00  0.00    -0.092 C  
BRANCH  11  16
HETATM   16  C   UNL     1      -9.072   7.767  67.765  1.00  0.00    -0.136 A  
HETATM   17  C   UNL     1     -11.168   6.538  67.601  1.00  0.00    -0.274 A  
HETATM   18  C   UNL     1     -10.402   7.551  68.203  1.00  0.00    -0.200 A  
HETATM   19  C   UNL     1      -8.536   6.941  66.763  1.00  0.00    -0.120 A  
HETATM   20  C   UNL     1     -10.633   5.732  66.600  1.00  0.00    -0.347 A  
HETATM   21  C   UNL     1      -9.321   5.935  66.188  1.00  0.00    -0.132 A  
BRANCH  18  22
HETATM   22  O   UNL     1     -10.902   8.361  69.191  1.00  0.00    -0.155 OA 
BRANCH  22  23
HETATM   23  C   UNL     1     -11.329   7.737  70.403  1.00  0.00    -0.207 C  
HETATM   24  C   UNL     1     -10.122   7.180  71.131  1.00  0.00    -0.193 C  
ENDBRANCH  22  23
ENDBRANCH  18  22
BRANCH  21  25
HETATM   25  S   UNL     1      -8.581   4.761  65.085  1.00  0.00    -0.145 S  
HETATM   26  O   UNL     1      -9.606   3.802  64.736  1.00  0.00    -0.153 OA 
HETATM   27  O   UNL     1      -7.339   4.335  65.692  1.00  0.00    -0.074 OA 
BRANCH  25  28
HETATM   28  N   UNL     1      -8.232   5.692  63.694  1.00  0.00    -0.114 N  
HETATM   29  C   UNL     1      -8.031   7.163  63.892  1.00  0.00    -0.076 C  
HETATM   30  C   UNL     1      -6.622   7.499  64.443  1.00  0.00    -0.048 C  
HETATM   31  N   UNL     1      -5.489   6.887  63.711  1.00  0.00    -0.028 NA 
HETATM   32  C   UNL     1      -5.749   5.441  63.530  1.00  0.00    -0.014 C  
HETATM   33  C   UNL     1      -7.108   5.133  62.873  1.00  0.00    -0.042 C  
BRANCH  31  34
HETATM   34  C   UNL     1      -5.221   7.607  62.459  1.00  0.00    -0.046 C  
HETATM   35  C   UNL     1      -5.175   9.123  62.619  1.00  0.00    -0.073 C  
ENDBRANCH  31  34
ENDBRANCH  25  28
ENDBRANCH  21  25
ENDBRANCH  11  16
ENDBRANCH   3   4
ENDBRANCH   2   3
TORSDOF 8
ENDMDL
MODEL      202
REMARK 921   NORMALIZED FREE ENERGY PREDICTED BY IDOCK:   -2.24 KCAL/MOL
REMARK 922        TOTAL FREE ENERGY PREDICTED BY IDOCK:   -4.29 KCAL/MOL
REMARK 923 INTER-LIGAND FREE ENERGY PREDICTED BY IDOCK:   -5.28 KCAL/MOL
REMARK 924 INTRA-LIGAND FREE ENERGY PREDICTED BY IDOCK:    0.99 KCAL/MOL
REMARK 927      BINDING AFFINITY PREDICTED BY RF-SCORE:    0.00 PKD
ROOT
HETATM    1  C   UNL     1      -9.656  19.866  69.426  1.00  0.00    -0.016 C  
HETATM    2  C   UNL     1     -10.952  19.595  68.671  1.00  0.00     0.744 C  
ENDROOT
BRANCH   2   3
HETATM    3  C   UNL     1     -10.772  18.714  67.433  1.00  0.00    -0.456 C  
BRANCH   3   4
HETATM    4  C   UNL     1      -9.357  18.642  66.963  1.00  0.00    -0.294 A  
HETATM    5  N   UNL     1      -8.698  19.633  66.392  1.00  0.00    -0.357 NA 
HETATM    6  C   UNL     1      -7.436  19.154  66.137  1.00  0.00    -0.274 A  
HETATM    7  C   UNL     1      -7.339  17.844  66.556  1.00  0.00    -0.244 A  
HETATM    8  C   UNL     1      -6.407  20.010  65.505  1.00  0.00    -0.267 C  
HETATM    9  N   UNL     1      -8.547  17.535  67.082  1.00  0.00    -0.220 NA 
HETATM   10  N   UNL     1      -8.808  16.324  67.663  1.00  0.00    -0.189 NA 
HETATM   11  C   UNL     1      -7.792  15.392  67.493  1.00  0.00    -0.170 C  
HETATM   12  N   UNL     1      -6.629  15.640  66.974  1.00  0.00     0.021 N  
HETATM   13  O   UNL     1      -5.154  17.155  66.121  1.00  0.00    -0.335 OA 
HETATM   14  H   UNL     1      -5.954  14.879  66.894  1.00  0.00     0.000 HD 
HETATM   15  C   UNL     1      -6.276  16.890  66.529  1.00  0.00    -0.092 C  
BRANCH  11  16
HETATM   16  C   UNL     1      -8.051  13.968  67.941  1.00  0.00    -0.156 A  
HETATM   17  C   UNL     1      -7.343  11.813  68.825  1.00  0.00    -0.114 A  
HETATM   18  C   UNL     1      -7.026  13.125  68.433  1.00  0.00    -0.104 A  
HETATM   19  C   UNL     1      -9.357  13.464  67.821  1.00  0.00    -0.211 A  
HETATM   20  C   UNL     1      -8.642  11.324  68.714  1.00  0.00    -0.109 A  
HETATM   21  C   UNL     1      -9.641  12.150  68.210  1.00  0.00    -0.210 A  
BRANCH  18  22
HETATM   22  O   UNL     1      -5.755  13.633  68.532  1.00  0.00    -0.079 OA 
BRANCH  22  23
HETATM   23  C   UNL     1      -5.200  13.773  69.841  1.00  0.00    -0.094 C  
HETATM   24  C   UNL     1      -5.512  15.159  70.371  1.00  0.00    -0.134 C  
ENDBRANCH  22  23
ENDBRANCH  18  22
BRANCH  21  25
HETATM   25  S   UNL     1     -11.232  11.450  67.858  1.00  0.00    -0.306 S  
HETATM   26  O   UNL     1     -12.147  12.553  67.662  1.00  0.00    -0.436 OA 
HETATM   27  O   UNL     1     -11.484  10.446  68.868  1.00  0.00    -0.244 OA 
BRANCH  25  28
HETATM   28  N   UNL     1     -11.000  10.679  66.350  1.00  0.00    -0.064 N  
HETATM   29  C   UNL     1      -9.981  11.277  65.430  1.00  0.00    -0.250 C  
HETATM   30  C   UNL     1      -8.531  10.894  65.823  1.00  0.00    -0.155 C  
HETATM   31  N   UNL     1      -8.291   9.448  66.039  1.00  0.00    -0.117 NA 
HETATM   32  C   UNL     1      -9.336   8.909  66.939  1.00  0.00    -0.168 C  
HETATM   33  C   UNL     1     -10.772   9.202  66.467  1.00  0.00     0.111 C  
BRANCH  31  34
HETATM   34  C   UNL     1      -8.181   8.737  64.758  1.00  0.00    -0.162 C  
HETATM   35  C   UNL     1      -7.967   7.234  64.905  1.00  0.00    -0.127 C  
ENDBRANCH  31  34
ENDBRANCH  25  28
ENDBRANCH  21  25
ENDBRANCH  11  16
ENDBRANCH   3   4
ENDBRANCH   2   3
TORSDOF 8
ENDMDL
MODEL      203
REMARK 921   NORMALIZED FREE ENERGY PREDICTED BY IDOCK:   -2.09 KCAL/MOL
REMARK 922        TOTAL FREE ENERGY PREDICTED BY IDOCK:   -4.08 KCAL/MOL
REMARK 923 INTER-LIGAND FREE ENERGY PREDICTED BY IDOCK:   -5.83 KCAL/MOL
REMARK 924 INTRA-LIGAND FREE ENERGY PREDICTED BY IDOCK:    1.76 KCAL/MOL
REMARK 927      BINDING AFFINITY PREDICTED BY RF-SCORE:    0.00 PKD
ROOT
HETATM    1  C   UNL     1     -11.322   7.826  71.375  1.00  0.00    -0.281 C  
HETATM    2  C   UNL     1      -9.890   7.636  70.892  1.00  0.00    -0.179 C  
ENDROOT
BRANCH   2   3
HETATM    3  C   UNL     1      -9.261   8.904  70.309  1.00  0.00    -0.207 C  
BRANCH   3   4
HETATM    4  C   UNL     1      -8.589   8.676  68.996  1.00  0.00    -0.129 A  
HETATM    5  N   UNL     1      -8.337   7.492  68.469  1.00  0.00    -0.125 NA 
HETATM    6  C   UNL     1      -7.733   7.734  67.260  1.00  0.00    -0.113 A  
HETATM    7  C   UNL     1      -7.610   9.093  67.061  1.00  0.00    -0.091 A  
HETATM    8  C   UNL     1      -7.318   6.622  66.377  1.00  0.00    -0.073 C  
HETATM    9  N   UNL     1      -8.160   9.676  68.152  1.00  0.00    -0.105 NA 
HETATM   10  N   UNL     1      -8.278  11.033  68.280  1.00  0.00    -0.124 NA 
HETATM   11  C   UNL     1      -7.618  11.748  67.288  1.00  0.00    -0.150 C  
HETATM   12  N   UNL     1      -7.059  11.228  66.238  1.00  0.00    -0.336 N  
HETATM   13  O   UNL     1      -6.621   9.385  64.969  1.00  0.00    -0.079 OA 
HETATM   14  H   UNL     1      -6.598  11.846  65.570  1.00  0.00     0.000 HD 
HETATM   15  C   UNL     1      -7.067   9.876  65.997  1.00  0.00    -0.105 C  
BRANCH  11  16
HETATM   16  C   UNL     1      -7.535  13.254  67.432  1.00  0.00    -0.134 A  
HETATM   17  C   UNL     1      -6.430  15.303  68.144  1.00  0.00    -0.133 A  
HETATM   18  C   UNL     1      -6.433  13.901  68.041  1.00  0.00    -0.145 A  
HETATM   19  C   UNL     1      -8.617  14.023  66.975  1.00  0.00    -0.193 A  
HETATM   20  C   UNL     1      -7.502  16.060  67.678  1.00  0.00    -0.171 A  
HETATM   21  C   UNL     1      -8.590  15.417  67.099  1.00  0.00    -0.210 A  
BRANCH  18  22
HETATM   22  O   UNL     1      -5.391  13.130  68.492  1.00  0.00    -0.062 OA 
BRANCH  22  23
HETATM   23  C   UNL     1      -5.505  12.565  69.798  1.00  0.00    -0.092 C  
HETATM   24  C   UNL     1      -5.323  13.657  70.834  1.00  0.00    -0.160 C  
ENDBRANCH  22  23
ENDBRANCH  18  22
BRANCH  21  25
HETATM   25  S   UNL     1     -10.040  16.365  66.721  1.00  0.00    -0.294 S  
HETATM   26  O   UNL     1     -10.070  16.540  65.286  1.00  0.00    -0.564 OA 
HETATM   27  O   UNL     1     -10.042  17.506  67.610  1.00  0.00    -0.301 OA 
BRANCH  25  28
HETATM   28  N   UNL     1     -11.321  15.318  67.154  1.00  0.00    -0.294 N  
HETATM   29  C   UNL     1     -10.951  13.931  67.581  1.00  0.00    -0.264 C  
HETATM   30  C   UNL     1     -10.443  13.877  69.044  1.00  0.00    -0.131 C  
HETATM   31  N   UNL     1     -11.309  14.544  70.044  1.00  0.00    -0.250 NA 
HETATM   32  C   UNL     1     -11.655  15.900  69.562  1.00  0.00    -0.335 C  
HETATM   33  C   UNL     1     -12.267  15.918  68.149  1.00  0.00     0.619 C  
BRANCH  31  34
HETATM   34  C   UNL     1     -12.474  13.710  70.370  1.00  0.00    -0.294 C  
HETATM   35  C   UNL     1     -12.124  12.257  70.674  1.00  0.00    -0.330 C  
ENDBRANCH  31  34
ENDBRANCH  25  28
ENDBRANCH  21  25
ENDBRANCH  11  16
ENDBRANCH   3   4
ENDBRANCH   2   3
TORSDOF 8
ENDMDL
MODEL      204
REMARK 921   NORMALIZED FREE ENERGY PREDICTED BY IDOCK:   -1.99 KCAL/MOL
REMARK 922        TOTAL FREE ENERGY PREDICTED BY IDOCK:   -3.93 KCAL/MOL
REMARK 923 INTER-LIGAND FREE ENERGY PREDICTED BY IDOCK:   -3.42 KCAL/MOL
REMARK 924 INTRA-LIGAND FREE ENERGY PREDICTED BY IDOCK:   -0.51 KCAL/MOL
REMARK 927      BINDING AFFINITY PREDICTED BY RF-SCORE:    0.00 PKD
ROOT
HETATM    1  C   UNL     1      -5.186  14.749  69.246  1.00  0.00    -0.089 C  
HETATM    2  C   UNL     1      -5.991  13.824  68.342  1.00  0.00    -0.099 C  
ENDROOT
BRANCH   2   3
HETATM    3  C   UNL     1      -7.112  13.074  69.066  1.00  0.00    -0.026 C  
BRANCH   3   4
HETATM    4  C   UNL     1      -8.344  12.918  68.238  1.00  0.00    -0.157 A  
HETATM    5  N   UNL     1      -9.257  13.853  68.054  1.00  0.00    -0.187 NA 
HETATM    6  C   UNL     1     -10.202  13.305  67.222  1.00  0.00    -0.240 A  
HETATM    7  C   UNL     1      -9.854  12.009  66.908  1.00  0.00    -0.204 A  
HETATM    8  C   UNL     1     -11.380  14.087  66.785  1.00  0.00    -0.346 C  
HETATM    9  N   UNL     1      -8.681  11.778  67.543  1.00  0.00    -0.153 NA 
HETATM   10  N   UNL     1      -7.991  10.604  67.410  1.00  0.00    -0.110 NA 
HETATM   11  C   UNL     1      -8.692   9.618  66.726  1.00  0.00    -0.134 C  
HETATM   12  N   UNL     1      -9.828   9.790  66.123  1.00  0.00    -0.244 N  
HETATM   13  O   UNL     1     -11.493  11.199  65.460  1.00  0.00     0.070 OA 
HETATM   14  H   UNL     1     -10.259   8.995  65.650  1.00  0.00     0.000 HD 
HETATM   15  C   UNL     1     -10.469  11.005  66.099  1.00  0.00    -0.244 C  
BRANCH  11  16
HETATM   16  C   UNL     1      -8.096   8.226  66.677  1.00  0.00    -0.102 A  
HETATM   17  C   UNL     1      -7.293   6.254  65.495  1.00  0.00    -0.080 A  
HETATM   18  C   UNL     1      -7.843   7.548  65.460  1.00  0.00    -0.114 A  
HETATM   19  C   UNL     1      -7.825   7.579  67.894  1.00  0.00    -0.117 A  
HETATM   20  C   UNL     1      -7.016   5.624  66.706  1.00  0.00    -0.065 A  
HETATM   21  C   UNL     1      -7.286   6.287  67.898  1.00  0.00    -0.087 A  
BRANCH  18  22
HETATM   22  O   UNL     1      -8.126   8.193  64.283  1.00  0.00    -0.149 OA 
BRANCH  22  23
HETATM   23  C   UNL     1      -7.054   8.877  63.631  1.00  0.00    -0.088 C  
HETATM   24  C   UNL     1      -6.473   9.912  64.575  1.00  0.00    -0.120 C  
ENDBRANCH  22  23
ENDBRANCH  18  22
BRANCH  21  25
HETATM   25  S   UNL     1      -7.147   5.394  69.423  1.00  0.00    -0.065 S  
HETATM   26  O   UNL     1      -6.164   6.083  70.230  1.00  0.00    -0.029 OA 
HETATM   27  O   UNL     1      -6.981   3.998  69.081  1.00  0.00    -0.045 OA 
BRANCH  25  28
HETATM   28  N   UNL     1      -8.678   5.613  70.151  1.00  0.00    -0.135 N  
HETATM   29  C   UNL     1      -9.821   4.832  69.579  1.00  0.00    -0.222 C  
HETATM   30  C   UNL     1      -9.830   3.357  70.057  1.00  0.00     0.119 C  
HETATM   31  N   UNL     1      -9.713   3.163  71.521  1.00  0.00    -0.157 NA 
HETATM   32  C   UNL     1      -8.581   3.968  72.032  1.00  0.00    -0.104 C  
HETATM   33  C   UNL     1      -8.654   5.457  71.641  1.00  0.00    -0.131 C  
BRANCH  31  34
HETATM   34  C   UNL     1     -10.992   3.436  72.191  1.00  0.00     0.737 C  
HETATM   35  C   UNL     1     -10.915   3.373  73.713  1.00  0.00    -0.307 C  
ENDBRANCH  31  34
ENDBRANCH  25  28
ENDBRANCH  21  25
ENDBRANCH  11  16
ENDBRANCH   3   4
ENDBRANCH   2   3
TORSDOF 8
ENDMDL
MODEL      205
REMARK 921   NORMALIZED FREE ENERGY PREDICTED BY IDOCK:   -1.84 KCAL/MOL
REMARK 922        TOTAL FREE ENERGY PREDICTED BY IDOCK:   -3.70 KCAL/MOL
REMARK 923 INTER-LIGAND FREE ENERGY PREDICTED BY IDOCK:   -4.30 KCAL/MOL
REMARK 924 INTRA-LIGAND FREE ENERGY PREDICTED BY IDOCK:    0.60 KCAL/MOL
REMARK 927      BINDING AFFINITY PREDICTED BY RF-SCORE:    0.00 PKD
ROOT
HETATM    1  C   UNL     1      -6.515   3.728  66.967  1.00  0.00    -0.041 C  
HETATM    2  C   UNL     1      -6.607   4.529  68.260  1.00  0.00    -0.046 C  
ENDROOT
BRANCH   2   3
HETATM    3  C   UNL     1      -6.667   3.663  69.520  1.00  0.00    -0.037 C  
BRANCH   3   4
HETATM    4  C   UNL     1      -7.949   3.807  70.272  1.00  0.00    -0.047 A  
HETATM    5  N   UNL     1      -8.470   2.888  71.064  1.00  0.00    -0.061 NA 
HETATM    6  C   UNL     1      -9.629   3.429  71.563  1.00  0.00    -0.163 A  
HETATM    7  C   UNL     1      -9.813   4.696  71.051  1.00  0.00    -0.198 A  
HETATM    8  C   UNL     1     -10.478   2.673  72.510  1.00  0.00    -0.156 C  
HETATM    9  N   UNL     1      -8.748   4.928  70.250  1.00  0.00    -0.097 NA 
HETATM   10  N   UNL     1      -8.553   6.123  69.613  1.00  0.00    -0.127 NA 
HETATM   11  C   UNL     1      -9.632   6.993  69.714  1.00  0.00    -0.151 C  
HETATM   12  N   UNL     1     -10.681   6.800  70.453  1.00  0.00    -0.230 N  
HETATM   13  O   UNL     1     -11.774   5.531  71.999  1.00  0.00    -0.103 OA 
HETATM   14  H   UNL     1     -11.419   7.505  70.453  1.00  0.00     0.000 HD 
HETATM   15  C   UNL     1     -10.832   5.681  71.234  1.00  0.00    -0.219 C  
BRANCH  11  16
HETATM   16  C   UNL     1      -9.594   8.271  68.900  1.00  0.00    -0.153 A  
HETATM   17  C   UNL     1      -8.517   9.840  67.382  1.00  0.00    -0.121 A  
HETATM   18  C   UNL     1      -8.480   8.636  68.105  1.00  0.00    -0.131 A  
HETATM   19  C   UNL     1     -10.697   9.137  68.977  1.00  0.00    -0.176 A  
HETATM   20  C   UNL     1      -9.619  10.688  67.455  1.00  0.00    -0.180 A  
HETATM   21  C   UNL     1     -10.702  10.334  68.253  1.00  0.00    -0.237 A  
BRANCH  18  22
HETATM   22  O   UNL     1      -7.409   7.781  68.053  1.00  0.00    -0.096 OA 
BRANCH  22  23
HETATM   23  C   UNL     1      -6.341   8.115  67.165  1.00  0.00    -0.056 C  
HETATM   24  C   UNL     1      -5.175   8.660  67.967  1.00  0.00    -0.035 C  
ENDBRANCH  22  23
ENDBRANCH  18  22
BRANCH  21  25
HETATM   25  S   UNL     1     -11.992  11.521  68.518  1.00  0.00    -0.108 S  
HETATM   26  O   UNL     1     -13.105  10.813  69.110  1.00  0.00     0.237 OA 
HETATM   27  O   UNL     1     -12.150  12.255  67.282  1.00  0.00    -0.548 OA 
BRANCH  25  28
HETATM   28  N   UNL     1     -11.335  12.561  69.705  1.00  0.00    -0.170 N  
HETATM   29  C   UNL     1     -11.066  13.977  69.296  1.00  0.00    -0.232 C  
HETATM   30  C   UNL     1     -12.352  14.843  69.282  1.00  0.00    -0.103 C  
HETATM   31  N   UNL     1     -13.179  14.776  70.510  1.00  0.00    -0.249 NA 
HETATM   32  C   UNL     1     -13.396  13.358  70.874  1.00  0.00     0.155 C  
HETATM   33  C   UNL     1     -12.095  12.543  70.997  1.00  0.00     0.085 C  
BRANCH  31  34
HETATM   34  C   UNL     1     -12.590  15.586  71.584  1.00  0.00    -0.419 C  
HETATM   35  C   UNL     1     -11.530  16.570  71.102  1.00  0.00    -0.092 C  
ENDBRANCH  31  34
ENDBRANCH  25  28
ENDBRANCH  21  25
ENDBRANCH  11  16
ENDBRANCH   3   4
ENDBRANCH   2   3
TORSDOF 8
ENDMDL
MODEL      206
REMARK 921   NORMALIZED FREE ENERGY PREDICTED BY IDOCK:   -1.40 KCAL/MOL
REMARK 922        TOTAL FREE ENERGY PREDICTED BY IDOCK:   -3.06 KCAL/MOL
REMARK 923 INTER-LIGAND FREE ENERGY PREDICTED BY IDOCK:   -4.20 KCAL/MOL
REMARK 924 INTRA-LIGAND FREE ENERGY PREDICTED BY IDOCK:    1.14 KCAL/MOL
REMARK 927      BINDING AFFINITY PREDICTED BY RF-SCORE:    0.00 PKD
ROOT
HETATM    1  C   UNL     1      -6.784   3.916  66.450  1.00  0.00    -0.053 C  
HETATM    2  C   UNL     1      -6.625   5.236  67.195  1.00  0.00    -0.053 C  
ENDROOT
BRANCH   2   3
HETATM    3  C   UNL     1      -6.402   5.073  68.700  1.00  0.00    -0.035 C  
BRANCH   3   4
HETATM    4  C   UNL     1      -7.621   5.371  69.509  1.00  0.00    -0.070 A  
HETATM    5  N   UNL     1      -8.129   4.577  70.433  1.00  0.00    -0.066 NA 
HETATM    6  C   UNL     1      -9.224   5.233  70.939  1.00  0.00    -0.146 A  
HETATM    7  C   UNL     1      -9.383   6.443  70.296  1.00  0.00    -0.158 A  
HETATM    8  C   UNL     1     -10.041   4.636  72.018  1.00  0.00    -0.262 C  
HETATM    9  N   UNL     1      -8.366   6.524  69.408  1.00  0.00    -0.122 NA 
HETATM   10  N   UNL     1      -8.159   7.628  68.626  1.00  0.00    -0.126 NA 
HETATM   11  C   UNL     1      -9.186   8.562  68.694  1.00  0.00    -0.142 C  
HETATM   12  N   UNL     1     -10.190   8.511  69.515  1.00  0.00    -0.202 N  
HETATM   13  O   UNL     1     -11.232   7.485  71.264  1.00  0.00    -0.244 OA 
HETATM   14  H   UNL     1     -10.892   9.250  69.480  1.00  0.00     0.000 HD 
HETATM   15  C   UNL     1     -10.340   7.496  70.428  1.00  0.00    -0.214 C  
BRANCH  11  16
HETATM   16  C   UNL     1      -9.144   9.736  67.737  1.00  0.00    -0.138 A  
HETATM   17  C   UNL     1      -9.231  10.721  65.512  1.00  0.00    -0.230 A  
HETATM   18  C   UNL     1      -9.287   9.584  66.337  1.00  0.00    -0.179 A  
HETATM   19  C   UNL     1      -8.913  11.016  68.270  1.00  0.00    -0.155 A  
HETATM   20  C   UNL     1      -9.014  11.987  66.049  1.00  0.00    -0.021 A  
HETATM   21  C   UNL     1      -8.853  12.128  67.423  1.00  0.00    -0.181 A  
BRANCH  18  22
HETATM   22  O   UNL     1      -9.500   8.324  65.837  1.00  0.00    -0.163 OA 
BRANCH  22  23
HETATM   23  C   UNL     1      -8.363   7.602  65.361  1.00  0.00    -0.128 C  
HETATM   24  C   UNL     1      -8.017   8.079  63.964  1.00  0.00    -0.134 C  
ENDBRANCH  22  23
ENDBRANCH  18  22
BRANCH  21  25
HETATM   25  S   UNL     1      -8.351  13.702  68.067  1.00  0.00    -0.182 S  
HETATM   26  O   UNL     1      -8.597  14.682  67.033  1.00  0.00    -0.213 OA 
HETATM   27  O   UNL     1      -7.028  13.526  68.624  1.00  0.00    -0.089 OA 
BRANCH  25  28
HETATM   28  N   UNL     1      -9.459  13.981  69.338  1.00  0.00     0.392 N  
HETATM   29  C   UNL     1      -9.360  15.294  70.051  1.00  0.00     0.181 C  
HETATM   30  C   UNL     1     -10.015  16.452  69.255  1.00  0.00    -0.259 C  
HETATM   31  N   UNL     1     -11.393  16.194  68.774  1.00  0.00    -0.362 NA 
HETATM   32  C   UNL     1     -11.434  14.879  68.095  1.00  0.00    -0.330 C  
HETATM   33  C   UNL     1     -10.884  13.722  68.950  1.00  0.00    -0.242 C  
BRANCH  31  34
HETATM   34  C   UNL     1     -12.365  16.333  69.866  1.00  0.00     0.559 C  
HETATM   35  C   UNL     1     -12.008  15.534  71.114  1.00  0.00    -0.432 C  
ENDBRANCH  31  34
ENDBRANCH  25  28
ENDBRANCH  21  25
ENDBRANCH  11  16
ENDBRANCH   3   4
ENDBRANCH   2   3
TORSDOF 8
ENDMDL
MODEL      207
REMARK 921   NORMALIZED FREE ENERGY PREDICTED BY IDOCK:   -1.03 KCAL/MOL
REMARK 922        TOTAL FREE ENERGY PREDICTED BY IDOCK:   -2.53 KCAL/MOL
REMARK 923 INTER-LIGAND FREE ENERGY PREDICTED BY IDOCK:   -3.18 KCAL/MOL
REMARK 924 INTRA-LIGAND FREE ENERGY PREDICTED BY IDOCK:    0.66 KCAL/MOL
REMARK 927      BINDING AFFINITY PREDICTED BY RF-SCORE:    0.00 PKD
ROOT
HETATM    1  C   UNL     1     -12.436  14.625  73.173  1.00  0.00    -0.422 C  
HETATM    2  C   UNL     1     -11.907  14.109  71.841  1.00  0.00     0.284 C  
ENDROOT
BRANCH   2   3
HETATM    3  C   UNL     1     -12.022  15.119  70.697  1.00  0.00    -0.371 C  
BRANCH   3   4
HETATM    4  C   UNL     1     -12.108  14.477  69.352  1.00  0.00    -0.290 A  
HETATM    5  N   UNL     1     -12.626  15.038  68.276  1.00  0.00     0.460 NA 
HETATM    6  C   UNL     1     -12.488  14.121  67.264  1.00  0.00     0.037 A  
HETATM    7  C   UNL     1     -11.883  12.979  67.745  1.00  0.00    -0.347 A  
HETATM    8  C   UNL     1     -12.953  14.422  65.891  1.00  0.00     0.054 C  
HETATM    9  N   UNL     1     -11.639  13.217  69.056  1.00  0.00    -0.292 NA 
HETATM   10  N   UNL     1     -10.983  12.321  69.855  1.00  0.00     0.261 NA 
HETATM   11  C   UNL     1     -10.763  11.089  69.252  1.00  0.00    -0.222 C  
HETATM   12  N   UNL     1     -11.002  10.812  68.007  1.00  0.00    -0.259 N  
HETATM   13  O   UNL     1     -11.657  11.519  65.940  1.00  0.00    -0.273 OA 
HETATM   14  H   UNL     1     -10.806   9.871  67.665  1.00  0.00     0.000 HD 
HETATM   15  C   UNL     1     -11.511  11.743  67.134  1.00  0.00    -0.295 C  
BRANCH  11  16
HETATM   16  C   UNL     1     -10.204   9.969  70.106  1.00  0.00    -0.297 A  
HETATM   17  C   UNL     1     -10.391   8.258  71.828  1.00  0.00    -0.321 A  
HETATM   18  C   UNL     1     -10.982   9.283  71.069  1.00  0.00    -0.320 A  
HETATM   19  C   UNL     1      -8.848   9.635  69.953  1.00  0.00    -0.240 A  
HETATM   20  C   UNL     1      -9.049   7.925  71.662  1.00  0.00    -0.175 A  
HETATM   21  C   UNL     1      -8.284   8.616  70.729  1.00  0.00    -0.142 A  
BRANCH  18  22
HETATM   22  O   UNL     1     -12.301   9.633  71.210  1.00  0.00    -0.317 OA 
BRANCH  22  23
HETATM   23  C   UNL     1     -12.601  10.755  72.043  1.00  0.00    -0.007 C  
HETATM   24  C   UNL     1     -13.893  11.394  71.573  1.00  0.00     0.828 C  
ENDBRANCH  22  23
ENDBRANCH  18  22
BRANCH  21  25
HETATM   25  S   UNL     1      -6.533   8.343  70.689  1.00  0.00    -0.039 S  
HETATM   26  O   UNL     1      -6.249   7.273  71.620  1.00  0.00    -0.037 OA 
HETATM   27  O   UNL     1      -5.901   9.636  70.829  1.00  0.00    -0.056 OA 
BRANCH  25  28
HETATM   28  N   UNL     1      -6.259   7.755  69.108  1.00  0.00    -0.035 N  
HETATM   29  C   UNL     1      -5.167   6.744  68.936  1.00  0.00    -0.013 C  
HETATM   30  C   UNL     1      -5.606   5.320  69.365  1.00  0.00    -0.011 C  
HETATM   31  N   UNL     1      -6.885   4.847  68.786  1.00  0.00    -0.050 NA 
HETATM   32  C   UNL     1      -7.919   5.891  68.969  1.00  0.00    -0.099 C  
HETATM   33  C   UNL     1      -7.507   7.273  68.430  1.00  0.00    -0.106 C  
BRANCH  31  34
HETATM   34  C   UNL     1      -6.705   4.421  67.392  1.00  0.00    -0.047 C  
HETATM   35  C   UNL     1      -5.753   3.242  67.227  1.00  0.00    -0.022 C  
ENDBRANCH  31  34
ENDBRANCH  25  28
ENDBRANCH  21  25
ENDBRANCH  11  16
ENDBRANCH   3   4
ENDBRANCH   2   3
TORSDOF 8
ENDMDL
MODEL      208
REMARK 921   NORMALIZED FREE ENERGY PREDICTED BY IDOCK:   -0.96 KCAL/MOL
REMARK 922        TOTAL FREE ENERGY PREDICTED BY IDOCK:   -2.42 KCAL/MOL
REMARK 923 INTER-LIGAND FREE ENERGY PREDICTED BY IDOCK:   -3.90 KCAL/MOL
REMARK 924 INTRA-LIGAND FREE ENERGY PREDICTED BY IDOCK:    1.47 KCAL/MOL
REMARK 927      BINDING AFFINITY PREDICTED BY RF-SCORE:    0.00 PKD
ROOT
HETATM    1  C   UNL     1      -6.415  17.278  68.859  1.00  0.00    -0.202 C  
HETATM    2  C   UNL     1      -6.693  17.708  67.424  1.00  0.00    -0.179 C  
ENDROOT
BRANCH   2   3
HETATM    3  C   UNL     1      -7.303  16.606  66.556  1.00  0.00    -0.273 C  
BRANCH   3   4
HETATM    4  C   UNL     1      -8.535  16.006  67.149  1.00  0.00    -0.196 A  
HETATM    5  N   UNL     1      -9.588  16.688  67.559  1.00  0.00    -0.240 NA 
HETATM    6  C   UNL     1     -10.491  15.758  68.013  1.00  0.00    -0.270 A  
HETATM    7  C   UNL     1      -9.964  14.491  67.883  1.00  0.00    -0.226 A  
HETATM    8  C   UNL     1     -11.811  16.169  68.541  1.00  0.00    -0.040 C  
HETATM    9  N   UNL     1      -8.739  14.656  67.330  1.00  0.00    -0.185 NA 
HETATM   10  N   UNL     1      -7.937  13.601  66.991  1.00  0.00    -0.028 NA 
HETATM   11  C   UNL     1      -8.411  12.373  67.435  1.00  0.00    -0.180 C  
HETATM   12  N   UNL     1      -9.567  12.173  67.989  1.00  0.00    -0.198 N  
HETATM   13  O   UNL     1     -11.592  12.999  68.635  1.00  0.00    -0.274 OA 
HETATM   14  H   UNL     1      -9.816  11.228  68.281  1.00  0.00     0.000 HD 
HETATM   15  C   UNL     1     -10.466  13.190  68.196  1.00  0.00    -0.248 C  
BRANCH  11  16
HETATM   16  C   UNL     1      -7.514  11.163  67.269  1.00  0.00    -0.118 A  
HETATM   17  C   UNL     1      -5.503   9.875  67.745  1.00  0.00    -0.039 A  
HETATM   18  C   UNL     1      -6.284  11.025  67.956  1.00  0.00    -0.053 A  
HETATM   19  C   UNL     1      -7.913  10.163  66.365  1.00  0.00    -0.120 A  
HETATM   20  C   UNL     1      -5.911   8.884  66.856  1.00  0.00    -0.049 A  
HETATM   21  C   UNL     1      -7.111   9.034  66.169  1.00  0.00    -0.086 A  
BRANCH  18  22
HETATM   22  O   UNL     1      -5.908  12.018  68.825  1.00  0.00    -0.050 OA 
BRANCH  22  23
HETATM   23  C   UNL     1      -5.128  11.640  69.961  1.00  0.00    -0.074 C  
HETATM   24  C   UNL     1      -6.054  11.202  71.079  1.00  0.00     0.323 C  
ENDBRANCH  22  23
ENDBRANCH  18  22
BRANCH  21  25
HETATM   25  S   UNL     1      -7.505   7.885  64.877  1.00  0.00    -0.088 S  
HETATM   26  O   UNL     1      -6.345   7.800  64.017  1.00  0.00    -0.056 OA 
HETATM   27  O   UNL     1      -8.795   8.270  64.349  1.00  0.00     0.095 OA 
BRANCH  25  28
HETATM   28  N   UNL     1      -7.661   6.397  65.705  1.00  0.00    -0.089 N  
HETATM   29  C   UNL     1      -7.276   6.380  67.152  1.00  0.00    -0.075 C  
HETATM   30  C   UNL     1      -8.377   6.978  68.065  1.00  0.00    -0.119 C  
HETATM   31  N   UNL     1      -9.740   6.438  67.856  1.00  0.00    -0.121 NA 
HETATM   32  C   UNL     1     -10.059   6.464  66.411  1.00  0.00    -0.014 C  
HETATM   33  C   UNL     1      -9.007   5.761  65.531  1.00  0.00    -0.078 C  
BRANCH  31  34
HETATM   34  C   UNL     1      -9.881   5.113  68.476  1.00  0.00    -0.155 C  
HETATM   35  C   UNL     1      -9.227   3.988  67.680  1.00  0.00    -0.193 C  
ENDBRANCH  31  34
ENDBRANCH  25  28
ENDBRANCH  21  25
ENDBRANCH  11  16
ENDBRANCH   3   4
ENDBRANCH   2   3
TORSDOF 8
ENDMDL
MODEL      209
REMARK 921   NORMALIZED FREE ENERGY PREDICTED BY IDOCK:   -0.57 KCAL/MOL
REMARK 922        TOTAL FREE ENERGY PREDICTED BY IDOCK:   -1.84 KCAL/MOL
REMARK 923 INTER-LIGAND FREE ENERGY PREDICTED BY IDOCK:   -3.03 KCAL/MOL
REMARK 924 INTRA-LIGAND FREE ENERGY PREDICTED BY IDOCK:    1.19 KCAL/MOL
REMARK 927      BINDING AFFINITY PREDICTED BY RF-SCORE:    0.00 PKD
ROOT
HETATM    1  C   UNL     1     -12.291  15.251  65.863  1.00  0.00     0.666 C  
HETATM    2  C   UNL     1     -10.965  15.576  66.540  1.00  0.00    -0.243 C  
ENDROOT
BRANCH   2   3
HETATM    3  C   UNL     1      -9.738  15.135  65.739  1.00  0.00    -0.379 C  
BRANCH   3   4
HETATM    4  C   UNL     1      -8.571  14.780  66.600  1.00  0.00    -0.135 A  
HETATM    5  N   UNL     1      -7.375  15.332  66.519  1.00  0.00     0.318 NA 
HETATM    6  C   UNL     1      -6.613  14.735  67.494  1.00  0.00    -0.096 A  
HETATM    7  C   UNL     1      -7.366  13.796  68.167  1.00  0.00    -0.124 A  
HETATM    8  C   UNL     1      -5.201  15.124  67.705  1.00  0.00    -0.062 C  
HETATM    9  N   UNL     1      -8.597  13.840  67.605  1.00  0.00    -0.174 NA 
HETATM   10  N   UNL     1      -9.641  13.083  68.062  1.00  0.00    -0.219 NA 
HETATM   11  C   UNL     1      -9.274  12.143  69.018  1.00  0.00     0.386 C  
HETATM   12  N   UNL     1      -8.102  12.053  69.566  1.00  0.00     0.173 N  
HETATM   13  O   UNL     1      -5.995  12.887  69.820  1.00  0.00    -0.110 OA 
HETATM   14  H   UNL     1      -7.938  11.322  70.259  1.00  0.00     0.000 HD 
HETATM   15  C   UNL     1      -7.075  12.907  69.246  1.00  0.00     0.104 C  
BRANCH  11  16
HETATM   16  C   UNL     1     -10.316  11.137  69.462  1.00  0.00    -0.018 A  
HETATM   17  C   UNL     1     -12.602  10.461  69.958  1.00  0.00    -0.125 A  
HETATM   18  C   UNL     1     -11.696  11.447  69.531  1.00  0.00    -0.348 A  
HETATM   19  C   UNL     1      -9.878   9.861  69.854  1.00  0.00    -0.285 A  
HETATM   20  C   UNL     1     -12.161   9.195  70.334  1.00  0.00     0.095 A  
HETATM   21  C   UNL     1     -10.803   8.902  70.283  1.00  0.00    -0.239 A  
BRANCH  18  22
HETATM   22  O   UNL     1     -12.101  12.702  69.154  1.00  0.00    -0.249 OA 
BRANCH  22  23
HETATM   23  C   UNL     1     -12.104  13.723  70.154  1.00  0.00    -0.359 C  
HETATM   24  C   UNL     1     -12.842  13.221  71.380  1.00  0.00    -0.411 C  
ENDBRANCH  22  23
ENDBRANCH  18  22
BRANCH  21  25
HETATM   25  S   UNL     1     -10.231   7.374  70.979  1.00  0.00    -0.190 S  
HETATM   26  O   UNL     1     -10.544   6.332  70.026  1.00  0.00    -0.207 OA 
HETATM   27  O   UNL     1     -10.730   7.316  72.335  1.00  0.00    -0.222 OA 
BRANCH  25  28
HETATM   28  N   UNL     1      -8.533   7.567  71.016  1.00  0.00    -0.116 N  
HETATM   29  C   UNL     1      -7.818   7.073  72.236  1.00  0.00    -0.091 C  
HETATM   30  C   UNL     1      -7.621   5.536  72.225  1.00  0.00    -0.101 C  
HETATM   31  N   UNL     1      -7.034   4.978  70.983  1.00  0.00    -0.046 NA 
HETATM   32  C   UNL     1      -7.767   5.513  69.814  1.00  0.00    -0.078 C  
HETATM   33  C   UNL     1      -7.851   7.051  69.785  1.00  0.00    -0.115 C  
BRANCH  31  34
HETATM   34  C   UNL     1      -5.584   5.211  70.938  1.00  0.00    -0.012 C  
HETATM   35  C   UNL     1      -5.162   6.274  69.929  1.00  0.00    -0.013 C  
ENDBRANCH  31  34
ENDBRANCH  25  28
ENDBRANCH  21  25
ENDBRANCH  11  16
ENDBRANCH   3   4
ENDBRANCH   2   3
TORSDOF 8
ENDMDL
MODEL      210
REMARK 921   NORMALIZED FREE ENERGY PREDICTED BY IDOCK:   -0.37 KCAL/MOL
REMARK 922        TOTAL FREE ENERGY PREDICTED BY IDOCK:   -1.55 KCAL/MOL
REMARK 923 INTER-LIGAND FREE ENERGY PREDICTED BY IDOCK:   -2.15 KCAL/MOL
REMARK 924 INTRA-LIGAND FREE ENERGY PREDICTED BY IDOCK:    0.60 KCAL/MOL
REMARK 927      BINDING AFFINITY PREDICTED BY RF-SCORE:    0.00 PKD
ROOT
HETATM    1  C   UNL     1     -12.599  14.797  63.052  1.00  0.00     2.165 C  
HETATM    2  C   UNL     1     -11.833  14.826  64.369  1.00  0.00    -0.393 C  
ENDROOT
BRANCH   2   3
HETATM    3  C   UNL     1     -10.680  15.832  64.390  1.00  0.00     0.309 C  
BRANCH   3   4
HETATM    4  C   UNL     1     -10.564  16.565  65.685  1.00  0.00    -0.304 A  
HETATM    5  N   UNL     1     -10.323  17.857  65.805  1.00  0.00    -0.615 NA 
HETATM    6  C   UNL     1     -10.316  18.120  67.153  1.00  0.00    -0.379 A  
HETATM    7  C   UNL     1     -10.547  16.958  67.858  1.00  0.00    -0.361 A  
HETATM    8  C   UNL     1     -10.087  19.490  67.663  1.00  0.00    -0.526 C  
HETATM    9  N   UNL     1     -10.712  15.989  66.927  1.00  0.00    -0.298 NA 
HETATM   10  N   UNL     1     -11.026  14.699  67.256  1.00  0.00    -0.308 NA 
HETATM   11  C   UNL     1     -10.973  14.441  68.621  1.00  0.00    -0.250 C  
HETATM   12  N   UNL     1     -10.796  15.335  69.544  1.00  0.00    -0.256 N  
HETATM   13  O   UNL     1     -10.561  17.529  70.119  1.00  0.00     0.304 OA 
HETATM   14  H   UNL     1     -10.772  15.037  70.520  1.00  0.00     0.000 HD 
HETATM   15  C   UNL     1     -10.640  16.668  69.254  1.00  0.00    -0.343 C  
BRANCH  11  16
HETATM   16  C   UNL     1     -11.130  13.006  69.080  1.00  0.00    -0.281 A  
HETATM   17  C   UNL     1     -11.756  11.309  70.710  1.00  0.00    -0.148 A  
HETATM   18  C   UNL     1     -11.646  12.664  70.354  1.00  0.00     0.169 A  
HETATM   19  C   UNL     1     -10.706  11.984  68.213  1.00  0.00    -0.252 A  
HETATM   20  C   UNL     1     -11.344  10.302  69.841  1.00  0.00    -0.354 A  
HETATM   21  C   UNL     1     -10.820  10.644  68.600  1.00  0.00    -0.227 A  
BRANCH  18  22
HETATM   22  O   UNL     1     -12.043  13.678  71.189  1.00  0.00    -0.301 OA 
BRANCH  22  23
HETATM   23  C   UNL     1     -13.149  14.482  70.772  1.00  0.00    -0.306 C  
HETATM   24  C   UNL     1     -14.404  13.631  70.746  1.00  0.00     1.894 C  
ENDBRANCH  22  23
ENDBRANCH  18  22
BRANCH  21  25
HETATM   25  S   UNL     1     -10.090   9.373  67.602  1.00  0.00    -0.226 S  
HETATM   26  O   UNL     1      -8.859   9.910  67.064  1.00  0.00    -0.133 OA 
HETATM   27  O   UNL     1     -11.128   8.875  66.727  1.00  0.00     0.168 OA 
BRANCH  25  28
HETATM   28  N   UNL     1      -9.687   8.161  68.738  1.00  0.00    -0.150 N  
HETATM   29  C   UNL     1     -10.320   6.816  68.552  1.00  0.00    -0.190 C  
HETATM   30  C   UNL     1      -9.624   5.981  67.447  1.00  0.00    -0.112 C  
HETATM   31  N   UNL     1      -8.150   5.880  67.559  1.00  0.00    -0.102 NA 
HETATM   32  C   UNL     1      -7.582   7.232  67.758  1.00  0.00    -0.110 C  
HETATM   33  C   UNL     1      -8.210   8.001  68.936  1.00  0.00    -0.125 C  
BRANCH  31  34
HETATM   34  C   UNL     1      -7.767   4.912  68.596  1.00  0.00    -0.077 C  
HETATM   35  C   UNL     1      -6.307   5.013  69.024  1.00  0.00    -0.031 C  
ENDBRANCH  31  34
ENDBRANCH  25  28
ENDBRANCH  21  25
ENDBRANCH  11  16
ENDBRANCH   3   4
ENDBRANCH   2   3
TORSDOF 8
ENDMDL
MODEL      211
REMARK 921   NORMALIZED FREE ENERGY PREDICTED BY IDOCK:   -0.02 KCAL/MOL
REMARK 922        TOTAL FREE ENERGY PREDICTED BY IDOCK:   -1.04 KCAL/MOL
REMARK 923 INTER-LIGAND FREE ENERGY PREDICTED BY IDOCK:   -1.54 KCAL/MOL
REMARK 924 INTRA-LIGAND FREE ENERGY PREDICTED BY IDOCK:    0.50 KCAL/MOL
REMARK 927      BINDING AFFINITY PREDICTED BY RF-SCORE:    0.00 PKD
ROOT
HETATM    1  C   UNL     1     -12.596  14.797  63.045  1.00  0.00     2.165 C  
HETATM    2  C   UNL     1     -11.813  14.818  64.352  1.00  0.00    -0.393 C  
ENDROOT
BRANCH   2   3
HETATM    3  C   UNL     1     -10.675  15.842  64.374  1.00  0.00     0.309 C  
BRANCH   3   4
HETATM    4  C   UNL     1     -10.540  16.540  65.687  1.00  0.00    -0.304 A  
HETATM    5  N   UNL     1     -10.332  17.835  65.838  1.00  0.00    -0.569 NA 
HETATM    6  C   UNL     1     -10.290  18.059  67.192  1.00  0.00    -0.374 A  
HETATM    7  C   UNL     1     -10.466  16.870  67.869  1.00  0.00    -0.344 A  
HETATM    8  C   UNL     1     -10.084  19.420  67.735  1.00  0.00    -0.508 C  
HETATM    9  N   UNL     1     -10.632  15.925  66.915  1.00  0.00    -0.314 NA 
HETATM   10  N   UNL     1     -10.900  14.617  67.215  1.00  0.00    -0.298 NA 
HETATM   11  C   UNL     1     -10.797  14.321  68.569  1.00  0.00    -0.253 C  
HETATM   12  N   UNL     1     -10.616  15.193  69.513  1.00  0.00    -0.259 N  
HETATM   13  O   UNL     1     -10.425  17.375  70.146  1.00  0.00     0.233 OA 
HETATM   14  H   UNL     1     -10.553  14.867  70.477  1.00  0.00     0.000 HD 
HETATM   15  C   UNL     1     -10.507  16.538  69.258  1.00  0.00    -0.326 C  
BRANCH  11  16
HETATM   16  C   UNL     1     -10.898  12.869  68.989  1.00  0.00    -0.188 A  
HETATM   17  C   UNL     1     -11.435  11.108  70.583  1.00  0.00    -0.037 A  
HETATM   18  C   UNL     1     -11.376  12.476  70.263  1.00  0.00     0.424 A  
HETATM   19  C   UNL     1     -10.461  11.886  68.085  1.00  0.00    -0.225 A  
HETATM   20  C   UNL     1     -11.011  10.140  69.677  1.00  0.00    -0.305 A  
HETATM   21  C   UNL     1     -10.523  10.533  68.435  1.00  0.00    -0.186 A  
BRANCH  18  22
HETATM   22  O   UNL     1     -11.788  13.452  71.135  1.00  0.00    -0.009 OA 
BRANCH  22  23
HETATM   23  C   UNL     1     -12.923  14.235  70.761  1.00  0.00    -0.304 C  
HETATM   24  C   UNL     1     -14.151  13.348  70.722  1.00  0.00     1.692 C  
ENDBRANCH  22  23
ENDBRANCH  18  22
BRANCH  21  25
HETATM   25  S   UNL     1      -9.775   9.315  67.387  1.00  0.00    -0.171 S  
HETATM   26  O   UNL     1     -10.464   9.369  66.116  1.00  0.00    -0.162 OA 
HETATM   27  O   UNL     1      -9.711   8.086  68.146  1.00  0.00    -0.153 OA 
BRANCH  25  28
HETATM   28  N   UNL     1      -8.190   9.912  67.156  1.00  0.00    -0.120 N  
HETATM   29  C   UNL     1      -7.061   9.038  67.609  1.00  0.00    -0.076 C  
HETATM   30  C   UNL     1      -6.754   7.898  66.604  1.00  0.00    -0.063 C  
HETATM   31  N   UNL     1      -6.586   8.321  65.194  1.00  0.00    -0.055 NA 
HETATM   32  C   UNL     1      -7.718   9.193  64.808  1.00  0.00    -0.111 C  
HETATM   33  C   UNL     1      -7.932  10.387  65.758  1.00  0.00    -0.152 C  
BRANCH  31  34
HETATM   34  C   UNL     1      -5.264   8.927  64.981  1.00  0.00    -0.038 C  
HETATM   35  C   UNL     1      -5.148   9.707  63.676  1.00  0.00    -0.066 C  
ENDBRANCH  31  34
ENDBRANCH  25  28
ENDBRANCH  21  25
ENDBRANCH  11  16
ENDBRANCH   3   4
ENDBRANCH   2   3
TORSDOF 8
ENDMDL
MODEL      212
REMARK 921   NORMALIZED FREE ENERGY PREDICTED BY IDOCK:   -0.02 KCAL/MOL
REMARK 922        TOTAL FREE ENERGY PREDICTED BY IDOCK:   -1.03 KCAL/MOL
REMARK 923 INTER-LIGAND FREE ENERGY PREDICTED BY IDOCK:   -6.77 KCAL/MOL
REMARK 924 INTRA-LIGAND FREE ENERGY PREDICTED BY IDOCK:    5.73 KCAL/MOL
REMARK 927      BINDING AFFINITY PREDICTED BY RF-SCORE:    0.00 PKD
ROOT
HETATM    1  C   UNL     1     -12.805  15.283  74.249  1.00  0.00    -0.152 C  
HETATM    2  C   UNL     1     -11.737  15.175  73.167  1.00  0.00    -0.370 C  
ENDROOT
BRANCH   2   3
HETATM    3  C   UNL     1     -11.682  16.384  72.231  1.00  0.00    -0.463 C  
BRANCH   3   4
HETATM    4  C   UNL     1     -11.622  16.006  70.788  1.00  0.00    -0.400 A  
HETATM    5  N   UNL     1     -11.524  16.859  69.785  1.00  0.00     0.425 NA 
HETATM    6  C   UNL     1     -11.480  16.100  68.642  1.00  0.00    -0.340 A  
HETATM    7  C   UNL     1     -11.566  14.762  68.965  1.00  0.00    -0.297 A  
HETATM    8  C   UNL     1     -11.355  16.732  67.310  1.00  0.00     0.361 C  
HETATM    9  N   UNL     1     -11.644  14.714  70.315  1.00  0.00    -0.278 NA 
HETATM   10  N   UNL     1     -11.677  13.534  71.008  1.00  0.00     0.188 NA 
HETATM   11  C   UNL     1     -11.812  12.413  70.197  1.00  0.00    -0.262 C  
HETATM   12  N   UNL     1     -11.765  12.418  68.900  1.00  0.00    -0.310 N  
HETATM   13  O   UNL     1     -11.435  13.573  66.962  1.00  0.00    -0.311 OA 
HETATM   14  H   UNL     1     -11.879  11.536  68.401  1.00  0.00     0.000 HD 
HETATM   15  C   UNL     1     -11.569  13.570  68.178  1.00  0.00    -0.333 C  
BRANCH  11  16
HETATM   16  C   UNL     1     -12.037  11.074  70.868  1.00  0.00    -0.444 A  
HETATM   17  C   UNL     1     -13.325   9.526  72.237  1.00  0.00    -0.526 A  
HETATM   18  C   UNL     1     -13.190  10.791  71.640  1.00  0.00    -0.383 A  
HETATM   19  C   UNL     1     -11.036  10.096  70.745  1.00  0.00    -0.313 A  
HETATM   20  C   UNL     1     -12.334   8.558  72.100  1.00  0.00    -0.444 A  
HETATM   21  C   UNL     1     -11.194   8.848  71.358  1.00  0.00    -0.312 A  
BRANCH  18  22
HETATM   22  O   UNL     1     -14.150  11.764  71.757  1.00  0.00     0.626 OA 
BRANCH  22  23
HETATM   23  C   UNL     1     -13.729  13.058  72.194  1.00  0.00    -0.455 C  
HETATM   24  C   UNL     1     -14.348  14.113  71.299  1.00  0.00    -0.002 C  
ENDBRANCH  22  23
ENDBRANCH  18  22
BRANCH  21  25
HETATM   25  S   UNL     1      -9.843   7.699  71.382  1.00  0.00    -0.174 S  
HETATM   26  O   UNL     1      -9.203   7.825  72.673  1.00  0.00    -0.149 OA 
HETATM   27  O   UNL     1      -9.097   7.899  70.160  1.00  0.00    -0.151 OA 
BRANCH  25  28
HETATM   28  N   UNL     1     -10.618   6.177  71.321  1.00  0.00    -0.234 N  
HETATM   29  C   UNL     1      -9.739   4.969  71.205  1.00  0.00    -0.173 C  
HETATM   30  C   UNL     1      -9.105   4.567  72.561  1.00  0.00    -0.123 C  
HETATM   31  N   UNL     1     -10.050   4.448  73.696  1.00  0.00    -0.147 NA 
HETATM   32  C   UNL     1     -10.902   5.657  73.750  1.00  0.00    -0.167 C  
HETATM   33  C   UNL     1     -11.615   5.973  72.422  1.00  0.00    -0.300 C  
BRANCH  31  34
HETATM   34  C   UNL     1     -10.804   3.189  73.622  1.00  0.00    -0.219 C  
HETATM   35  C   UNL     1     -10.013   1.970  74.087  1.00  0.00    -0.139 C  
ENDBRANCH  31  34
ENDBRANCH  25  28
ENDBRANCH  21  25
ENDBRANCH  11  16
ENDBRANCH   3   4
ENDBRANCH   2   3
TORSDOF 8
ENDMDL
MODEL      213
REMARK 921   NORMALIZED FREE ENERGY PREDICTED BY IDOCK:    0.16 KCAL/MOL
REMARK 922        TOTAL FREE ENERGY PREDICTED BY IDOCK:   -0.77 KCAL/MOL
REMARK 923 INTER-LIGAND FREE ENERGY PREDICTED BY IDOCK:   -0.38 KCAL/MOL
REMARK 924 INTRA-LIGAND FREE ENERGY PREDICTED BY IDOCK:   -0.39 KCAL/MOL
REMARK 927      BINDING AFFINITY PREDICTED BY RF-SCORE:    0.00 PKD
ROOT
HETATM    1  C   UNL     1     -12.333  15.724  63.397  1.00  0.00     1.986 C  
HETATM    2  C   UNL     1     -11.772  15.867  64.806  1.00  0.00    -0.039 C  
ENDROOT
BRANCH   2   3
HETATM    3  C   UNL     1     -11.274  17.277  65.133  1.00  0.00     0.452 C  
BRANCH   3   4
HETATM    4  C   UNL     1      -9.902  17.293  65.720  1.00  0.00    -0.027 A  
HETATM    5  N   UNL     1      -8.992  18.223  65.495  1.00  0.00     0.217 NA 
HETATM    6  C   UNL     1      -7.893  17.868  66.237  1.00  0.00    -0.261 A  
HETATM    7  C   UNL     1      -8.143  16.694  66.914  1.00  0.00    -0.214 A  
HETATM    8  C   UNL     1      -6.670  18.702  66.237  1.00  0.00    -0.251 C  
HETATM    9  N   UNL     1      -9.411  16.346  66.591  1.00  0.00    -0.242 NA 
HETATM   10  N   UNL     1     -10.035  15.256  67.132  1.00  0.00    -0.232 NA 
HETATM   11  C   UNL     1      -9.193  14.446  67.885  1.00  0.00    -0.195 C  
HETATM   12  N   UNL     1      -7.967  14.730  68.199  1.00  0.00    -0.122 N  
HETATM   13  O   UNL     1      -6.237  16.216  68.171  1.00  0.00    -0.106 OA 
HETATM   14  H   UNL     1      -7.434  14.062  68.757  1.00  0.00     0.000 HD 
HETATM   15  C   UNL     1      -7.361  15.899  67.807  1.00  0.00    -0.144 C  
BRANCH  11  16
HETATM   16  C   UNL     1      -9.737  13.122  68.382  1.00  0.00    -0.196 A  
HETATM   17  C   UNL     1     -11.228  11.769  69.751  1.00  0.00    -0.166 A  
HETATM   18  C   UNL     1     -10.781  13.035  69.334  1.00  0.00     0.188 A  
HETATM   19  C   UNL     1      -9.146  11.941  67.900  1.00  0.00    -0.183 A  
HETATM   20  C   UNL     1     -10.645  10.604  69.260  1.00  0.00    -0.263 A  
HETATM   21  C   UNL     1      -9.606  10.695  68.340  1.00  0.00    -0.168 A  
BRANCH  18  22
HETATM   22  O   UNL     1     -11.336  14.200  69.801  1.00  0.00    -0.252 OA 
BRANCH  22  23
HETATM   23  C   UNL     1     -12.575  14.617  69.225  1.00  0.00     0.128 C  
HETATM   24  C   UNL     1     -13.087  15.835  69.968  1.00  0.00     0.529 C  
ENDBRANCH  22  23
ENDBRANCH  18  22
BRANCH  21  25
HETATM   25  S   UNL     1      -8.723   9.222  67.900  1.00  0.00    -0.124 S  
HETATM   26  O   UNL     1      -8.059   9.486  66.642  1.00  0.00    -0.108 OA 
HETATM   27  O   UNL     1      -9.649   8.119  68.034  1.00  0.00    -0.151 OA 
BRANCH  25  28
HETATM   28  N   UNL     1      -7.528   9.100  69.115  1.00  0.00    -0.071 N  
HETATM   29  C   UNL     1      -7.907   8.378  70.372  1.00  0.00    -0.090 C  
HETATM   30  C   UNL     1      -7.864   6.838  70.207  1.00  0.00    -0.110 C  
HETATM   31  N   UNL     1      -6.616   6.295  69.619  1.00  0.00    -0.046 NA 
HETATM   32  C   UNL     1      -6.283   7.055  68.394  1.00  0.00    -0.034 C  
HETATM   33  C   UNL     1      -6.217   8.579  68.608  1.00  0.00    -0.046 C  
BRANCH  31  34
HETATM   34  C   UNL     1      -5.537   6.263  70.616  1.00  0.00    -0.018 C  
HETATM   35  C   UNL     1      -5.893   5.495  71.884  1.00  0.00    -0.025 C  
ENDBRANCH  31  34
ENDBRANCH  25  28
ENDBRANCH  21  25
ENDBRANCH  11  16
ENDBRANCH   3   4
ENDBRANCH   2   3
TORSDOF 8
ENDMDL
MODEL      214
REMARK 921   NORMALIZED FREE ENERGY PREDICTED BY IDOCK:    0.57 KCAL/MOL
REMARK 922        TOTAL FREE ENERGY PREDICTED BY IDOCK:   -0.17 KCAL/MOL
REMARK 923 INTER-LIGAND FREE ENERGY PREDICTED BY IDOCK:   -0.93 KCAL/MOL
REMARK 924 INTRA-LIGAND FREE ENERGY PREDICTED BY IDOCK:    0.77 KCAL/MOL
REMARK 927      BINDING AFFINITY PREDICTED BY RF-SCORE:    0.00 PKD
ROOT
HETATM    1  C   UNL     1     -11.138  15.544  69.767  1.00  0.00    -0.300 C  
HETATM    2  C   UNL     1     -10.723  14.260  69.059  1.00  0.00    -0.259 C  
ENDROOT
BRANCH   2   3
HETATM    3  C   UNL     1      -9.630  13.477  69.791  1.00  0.00     1.676 C  
BRANCH   3   4
HETATM    4  C   UNL     1      -8.495  13.085  68.904  1.00  0.00     0.285 A  
HETATM    5  N   UNL     1      -7.590  13.914  68.421  1.00  0.00    -0.122 NA 
HETATM    6  C   UNL     1      -6.727  13.146  67.678  1.00  0.00    -0.160 A  
HETATM    7  C   UNL     1      -7.130  11.828  67.707  1.00  0.00    -0.096 A  
HETATM    8  C   UNL     1      -5.564  13.751  66.992  1.00  0.00     1.135 C  
HETATM    9  N   UNL     1      -8.236  11.798  68.488  1.00  0.00    -0.151 NA 
HETATM   10  N   UNL     1      -8.883  10.635  68.802  1.00  0.00    -0.154 NA 
HETATM   11  C   UNL     1      -8.418   9.529  68.100  1.00  0.00    -0.119 C  
HETATM   12  N   UNL     1      -7.377   9.519  67.325  1.00  0.00    -0.087 N  
HETATM   13  O   UNL     1      -5.575  10.616  66.461  1.00  0.00    -0.055 OA 
HETATM   14  H   UNL     1      -7.123   8.650  66.854  1.00  0.00     0.000 HD 
HETATM   15  C   UNL     1      -6.607  10.637  67.118  1.00  0.00    -0.076 C  
BRANCH  11  16
HETATM   16  C   UNL     1      -9.179   8.227  68.239  1.00  0.00    -0.135 A  
HETATM   17  C   UNL     1     -10.613   6.675  69.449  1.00  0.00    -0.279 A  
HETATM   18  C   UNL     1      -9.938   7.906  69.391  1.00  0.00    -0.189 A  
HETATM   19  C   UNL     1      -9.089   7.292  67.194  1.00  0.00    -0.144 A  
HETATM   20  C   UNL     1     -10.528   5.759  68.403  1.00  0.00    -0.283 A  
HETATM   21  C   UNL     1      -9.765   6.070  67.283  1.00  0.00    -0.125 A  
BRANCH  18  22
HETATM   22  O   UNL     1     -10.004   8.828  70.405  1.00  0.00    -0.177 OA 
BRANCH  22  23
HETATM   23  C   UNL     1     -11.107   8.736  71.309  1.00  0.00    -0.278 C  
HETATM   24  C   UNL     1     -10.593   8.368  72.688  1.00  0.00    -0.312 C  
ENDBRANCH  22  23
ENDBRANCH  18  22
BRANCH  21  25
HETATM   25  S   UNL     1      -9.477   4.811  66.069  1.00  0.00    -0.179 S  
HETATM   26  O   UNL     1     -10.263   5.157  64.905  1.00  0.00     0.345 OA 
HETATM   27  O   UNL     1      -9.650   3.538  66.731  1.00  0.00    -0.193 OA 
BRANCH  25  28
HETATM   28  N   UNL     1      -7.826   5.015  65.672  1.00  0.00    -0.090 N  
HETATM   29  C   UNL     1      -7.253   4.084  64.648  1.00  0.00    -0.066 C  
HETATM   30  C   UNL     1      -7.628   4.492  63.200  1.00  0.00    -0.058 C  
HETATM   31  N   UNL     1      -7.374   5.911  62.853  1.00  0.00    -0.052 NA 
HETATM   32  C   UNL     1      -7.947   6.780  63.906  1.00  0.00    -0.069 C  
HETATM   33  C   UNL     1      -7.469   6.429  65.327  1.00  0.00    -0.081 C  
BRANCH  31  34
HETATM   34  C   UNL     1      -5.946   6.142  62.597  1.00  0.00    -0.026 C  
HETATM   35  C   UNL     1      -5.577   7.614  62.453  1.00  0.00    -0.055 C  
ENDBRANCH  31  34
ENDBRANCH  25  28
ENDBRANCH  21  25
ENDBRANCH  11  16
ENDBRANCH   3   4
ENDBRANCH   2   3
TORSDOF 8
ENDMDL
MODEL      215
REMARK 921   NORMALIZED FREE ENERGY PREDICTED BY IDOCK:    0.58 KCAL/MOL
REMARK 922        TOTAL FREE ENERGY PREDICTED BY IDOCK:   -0.16 KCAL/MOL
REMARK 923 INTER-LIGAND FREE ENERGY PREDICTED BY IDOCK:   -1.27 KCAL/MOL
REMARK 924 INTRA-LIGAND FREE ENERGY PREDICTED BY IDOCK:    1.12 KCAL/MOL
REMARK 927      BINDING AFFINITY PREDICTED BY RF-SCORE:    0.00 PKD
ROOT
HETATM    1  C   UNL     1      -7.468   8.223  63.494  1.00  0.00    -0.119 C  
HETATM    2  C   UNL     1      -7.616   9.740  63.496  1.00  0.00    -0.128 C  
ENDROOT
BRANCH   2   3
HETATM    3  C   UNL     1      -8.912  10.233  64.144  1.00  0.00    -0.263 C  
BRANCH   3   4
HETATM    4  C   UNL     1      -8.776  10.485  65.609  1.00  0.00    -0.180 A  
HETATM    5  N   UNL     1      -8.330   9.610  66.490  1.00  0.00    -0.119 NA 
HETATM    6  C   UNL     1      -8.350  10.248  67.706  1.00  0.00    -0.110 A  
HETATM    7  C   UNL     1      -8.830  11.532  67.552  1.00  0.00    -0.155 A  
HETATM    8  C   UNL     1      -7.896   9.563  68.936  1.00  0.00    -0.080 C  
HETATM    9  N   UNL     1      -9.085  11.674  66.231  1.00  0.00    -0.215 NA 
HETATM   10  N   UNL     1      -9.519  12.853  65.688  1.00  0.00    -0.015 NA 
HETATM   11  C   UNL     1      -9.848  13.816  66.634  1.00  0.00    -0.284 C  
HETATM   12  N   UNL     1      -9.641  13.712  67.911  1.00  0.00    -0.215 N  
HETATM   13  O   UNL     1      -8.775  12.531  69.659  1.00  0.00     1.393 OA 
HETATM   14  H   UNL     1      -9.924  14.480  68.519  1.00  0.00     0.000 HD 
HETATM   15  C   UNL     1      -9.055  12.603  68.471  1.00  0.00    -0.052 C  
BRANCH  11  16
HETATM   16  C   UNL     1     -10.505  15.092  66.150  1.00  0.00    -0.320 A  
HETATM   17  C   UNL     1     -11.929  16.354  64.631  1.00  0.00     0.642 A  
HETATM   18  C   UNL     1     -11.361  15.129  65.023  1.00  0.00    -0.380 A  
HETATM   19  C   UNL     1     -10.214  16.286  66.831  1.00  0.00    -0.288 A  
HETATM   20  C   UNL     1     -11.645  17.531  65.318  1.00  0.00     1.813 A  
HETATM   21  C   UNL     1     -10.787  17.492  66.412  1.00  0.00     0.061 A  
BRANCH  18  22
HETATM   22  O   UNL     1     -11.624  13.955  64.365  1.00  0.00    -0.382 OA 
BRANCH  22  23
HETATM   23  C   UNL     1     -12.969  13.475  64.382  1.00  0.00     0.301 C  
HETATM   24  C   UNL     1     -12.965  11.985  64.664  1.00  0.00     0.346 C  
ENDBRANCH  22  23
ENDBRANCH  18  22
BRANCH  21  25
HETATM   25  S   UNL     1     -10.253  19.021  67.133  1.00  0.00    -0.418 S  
HETATM   26  O   UNL     1     -11.252  19.403  68.107  1.00  0.00     0.175 OA 
HETATM   27  O   UNL     1      -9.903  19.903  66.042  1.00  0.00    -0.430 OA 
BRANCH  25  28
HETATM   28  N   UNL     1      -8.831  18.585  67.977  1.00  0.00    -0.291 N  
HETATM   29  C   UNL     1      -7.893  17.642  67.288  1.00  0.00    -0.205 C  
HETATM   30  C   UNL     1      -7.017  18.350  66.223  1.00  0.00    -0.243 C  
HETATM   31  N   UNL     1      -6.321  19.575  66.684  1.00  0.00    -0.184 NA 
HETATM   32  C   UNL     1      -7.291  20.458  67.370  1.00  0.00    -0.318 C  
HETATM   33  C   UNL     1      -8.068  19.763  68.503  1.00  0.00    -0.242 C  
BRANCH  31  34
HETATM   34  C   UNL     1      -5.143  19.236  67.494  1.00  0.00    -0.165 C  
HETATM   35  C   UNL     1      -5.255  19.667  68.952  1.00  0.00    -0.203 C  
ENDBRANCH  31  34
ENDBRANCH  25  28
ENDBRANCH  21  25
ENDBRANCH  11  16
ENDBRANCH   3   4
ENDBRANCH   2   3
TORSDOF 8
ENDMDL
MODEL      216
REMARK 921   NORMALIZED FREE ENERGY PREDICTED BY IDOCK:    0.82 KCAL/MOL
REMARK 922        TOTAL FREE ENERGY PREDICTED BY IDOCK:    0.19 KCAL/MOL
REMARK 923 INTER-LIGAND FREE ENERGY PREDICTED BY IDOCK:   -2.04 KCAL/MOL
REMARK 924 INTRA-LIGAND FREE ENERGY PREDICTED BY IDOCK:    2.22 KCAL/MOL
REMARK 927      BINDING AFFINITY PREDICTED BY RF-SCORE:    0.00 PKD
ROOT
HETATM    1  C   UNL     1     -13.460   8.396  73.455  1.00  0.00     1.545 C  
HETATM    2  C   UNL     1     -12.239   8.349  72.545  1.00  0.00    -0.381 C  
ENDROOT
BRANCH   2   3
HETATM    3  C   UNL     1     -12.570   8.498  71.058  1.00  0.00    -0.060 C  
BRANCH   3   4
HETATM    4  C   UNL     1     -11.612   9.380  70.328  1.00  0.00    -0.138 A  
HETATM    5  N   UNL     1     -11.624  10.700  70.358  1.00  0.00    -0.330 NA 
HETATM    6  C   UNL     1     -10.574  11.108  69.573  1.00  0.00    -0.090 A  
HETATM    7  C   UNL     1      -9.924  10.009  69.051  1.00  0.00    -0.196 A  
HETATM    8  C   UNL     1     -10.273  12.545  69.387  1.00  0.00     0.552 C  
HETATM    9  N   UNL     1     -10.578   8.929  69.540  1.00  0.00    -0.232 NA 
HETATM   10  N   UNL     1     -10.171   7.648  69.286  1.00  0.00    -0.205 NA 
HETATM   11  C   UNL     1      -9.157   7.559  68.340  1.00  0.00    -0.133 C  
HETATM   12  N   UNL     1      -8.520   8.569  67.831  1.00  0.00    -0.130 N  
HETATM   13  O   UNL     1      -8.142  10.817  67.782  1.00  0.00    -0.109 OA 
HETATM   14  H   UNL     1      -7.790   8.392  67.140  1.00  0.00     0.000 HD 
HETATM   15  C   UNL     1      -8.794   9.866  68.189  1.00  0.00    -0.118 C  
BRANCH  11  16
HETATM   16  C   UNL     1      -8.755   6.182  67.855  1.00  0.00    -0.113 A  
HETATM   17  C   UNL     1      -8.451   4.499  66.121  1.00  0.00    -0.113 A  
HETATM   18  C   UNL     1      -8.837   5.799  66.494  1.00  0.00    -0.126 A  
HETATM   19  C   UNL     1      -8.323   5.244  68.808  1.00  0.00    -0.092 A  
HETATM   20  C   UNL     1      -8.013   3.580  67.071  1.00  0.00    -0.083 A  
HETATM   21  C   UNL     1      -7.953   3.955  68.408  1.00  0.00    -0.075 A  
BRANCH  18  22
HETATM   22  O   UNL     1      -9.272   6.725  65.581  1.00  0.00     0.023 OA 
BRANCH  22  23
HETATM   23  C   UNL     1      -8.614   7.993  65.563  1.00  0.00    -0.135 C  
HETATM   24  C   UNL     1      -7.425   7.927  64.625  1.00  0.00    -0.101 C  
ENDBRANCH  22  23
ENDBRANCH  18  22
BRANCH  21  25
HETATM   25  S   UNL     1      -7.617   2.714  69.630  1.00  0.00    -0.043 S  
HETATM   26  O   UNL     1      -6.624   3.262  70.527  1.00  0.00    -0.031 OA 
HETATM   27  O   UNL     1      -7.377   1.478  68.920  1.00  0.00    -0.039 OA 
BRANCH  25  28
HETATM   28  N   UNL     1      -9.093   2.590  70.484  1.00  0.00    -0.099 N  
HETATM   29  C   UNL     1      -9.203   1.493  71.497  1.00  0.00    -0.089 C  
HETATM   30  C   UNL     1      -8.488   1.842  72.828  1.00  0.00    -0.058 C  
HETATM   31  N   UNL     1      -8.834   3.160  73.410  1.00  0.00    -0.080 NA 
HETATM   32  C   UNL     1      -8.725   4.200  72.362  1.00  0.00    -0.107 C  
HETATM   33  C   UNL     1      -9.537   3.887  71.091  1.00  0.00    -0.174 C  
BRANCH  31  34
HETATM   34  C   UNL     1     -10.144   3.114  74.072  1.00  0.00    -0.128 C  
HETATM   35  C   UNL     1     -11.080   4.246  73.665  1.00  0.00    -0.351 C  
ENDBRANCH  31  34
ENDBRANCH  25  28
ENDBRANCH  21  25
ENDBRANCH  11  16
ENDBRANCH   3   4
ENDBRANCH   2   3
TORSDOF 8
ENDMDL
MODEL      217
REMARK 921   NORMALIZED FREE ENERGY PREDICTED BY IDOCK:    0.83 KCAL/MOL
REMARK 922        TOTAL FREE ENERGY PREDICTED BY IDOCK:    0.22 KCAL/MOL
REMARK 923 INTER-LIGAND FREE ENERGY PREDICTED BY IDOCK:   -0.58 KCAL/MOL
REMARK 924 INTRA-LIGAND FREE ENERGY PREDICTED BY IDOCK:    0.79 KCAL/MOL
REMARK 927      BINDING AFFINITY PREDICTED BY RF-SCORE:    0.00 PKD
ROOT
HETATM    1  C   UNL     1      -5.567  11.919  65.308  1.00  0.00     2.460 C  
HETATM    2  C   UNL     1      -5.831  10.863  64.242  1.00  0.00     0.275 C  
ENDROOT
BRANCH   2   3
HETATM    3  C   UNL     1      -7.220  10.228  64.332  1.00  0.00    -0.065 C  
BRANCH   3   4
HETATM    4  C   UNL     1      -8.210  11.080  65.056  1.00  0.00     0.184 A  
HETATM    5  N   UNL     1      -9.065  11.904  64.479  1.00  0.00     0.334 NA 
HETATM    6  C   UNL     1      -9.793  12.470  65.496  1.00  0.00    -0.183 A  
HETATM    7  C   UNL     1      -9.358  11.984  66.711  1.00  0.00    -0.205 A  
HETATM    8  C   UNL     1     -10.868  13.447  65.214  1.00  0.00    -0.318 C  
HETATM    9  N   UNL     1      -8.371  11.104  66.423  1.00  0.00    -0.166 NA 
HETATM   10  N   UNL     1      -7.738  10.368  67.387  1.00  0.00    -0.095 NA 
HETATM   11  C   UNL     1      -8.068  10.742  68.684  1.00  0.00    -0.136 C  
HETATM   12  N   UNL     1      -8.991  11.596  69.003  1.00  0.00    -0.377 N  
HETATM   13  O   UNL     1     -10.689  12.972  68.352  1.00  0.00    -0.241 OA 
HETATM   14  H   UNL     1      -9.151  11.802  69.990  1.00  0.00     0.000 HD 
HETATM   15  C   UNL     1      -9.759  12.234  68.059  1.00  0.00    -0.205 C  
BRANCH  11  16
HETATM   16  C   UNL     1      -7.294  10.114  69.824  1.00  0.00    -0.159 A  
HETATM   17  C   UNL     1      -5.257   9.709  71.096  1.00  0.00    -0.050 A  
HETATM   18  C   UNL     1      -5.908  10.333  70.017  1.00  0.00    -0.057 A  
HETATM   19  C   UNL     1      -7.981   9.251  70.694  1.00  0.00    -0.189 A  
HETATM   20  C   UNL     1      -5.948   8.865  71.961  1.00  0.00    -0.076 A  
HETATM   21  C   UNL     1      -7.304   8.638  71.755  1.00  0.00    -0.080 A  
BRANCH  18  22
HETATM   22  O   UNL     1      -5.253  11.170  69.149  1.00  0.00    -0.041 OA 
BRANCH  22  23
HETATM   23  C   UNL     1      -5.768  12.493  68.995  1.00  0.00    -0.067 C  
HETATM   24  C   UNL     1      -5.436  13.307  70.230  1.00  0.00    -0.127 C  
ENDBRANCH  22  23
ENDBRANCH  18  22
BRANCH  21  25
HETATM   25  S   UNL     1      -8.117   7.389  72.716  1.00  0.00    -0.109 S  
HETATM   26  O   UNL     1      -9.299   6.992  71.982  1.00  0.00    -0.141 OA 
HETATM   27  O   UNL     1      -8.216   7.894  74.067  1.00  0.00    -0.195 OA 
BRANCH  25  28
HETATM   28  N   UNL     1      -7.012   6.085  72.686  1.00  0.00    -0.078 N  
HETATM   29  C   UNL     1      -6.863   5.290  73.946  1.00  0.00    -0.077 C  
HETATM   30  C   UNL     1      -8.019   4.276  74.147  1.00  0.00    -0.092 C  
HETATM   31  N   UNL     1      -8.312   3.407  72.983  1.00  0.00    -0.080 NA 
HETATM   32  C   UNL     1      -8.431   4.243  71.768  1.00  0.00    -0.105 C  
HETATM   33  C   UNL     1      -7.218   5.160  71.525  1.00  0.00    -0.073 C  
BRANCH  31  34
HETATM   34  C   UNL     1      -7.323   2.327  72.872  1.00  0.00    -0.036 C  
HETATM   35  C   UNL     1      -6.150   2.464  73.837  1.00  0.00    -0.008 C  
ENDBRANCH  31  34
ENDBRANCH  25  28
ENDBRANCH  21  25
ENDBRANCH  11  16
ENDBRANCH   3   4
ENDBRANCH   2   3
TORSDOF 8
ENDMDL
MODEL      218
REMARK 921   NORMALIZED FREE ENERGY PREDICTED BY IDOCK:    0.92 KCAL/MOL
REMARK 922        TOTAL FREE ENERGY PREDICTED BY IDOCK:    0.34 KCAL/MOL
REMARK 923 INTER-LIGAND FREE ENERGY PREDICTED BY IDOCK:   -3.35 KCAL/MOL
REMARK 924 INTRA-LIGAND FREE ENERGY PREDICTED BY IDOCK:    3.69 KCAL/MOL
REMARK 927      BINDING AFFINITY PREDICTED BY RF-SCORE:    0.00 PKD
ROOT
HETATM    1  C   UNL     1     -12.133  13.911  64.764  1.00  0.00    -0.443 C  
HETATM    2  C   UNL     1     -12.731  12.965  65.798  1.00  0.00     0.022 C  
ENDROOT
BRANCH   2   3
HETATM    3  C   UNL     1     -12.501  13.405  67.245  1.00  0.00     0.039 C  
BRANCH   3   4
HETATM    4  C   UNL     1     -11.696  12.427  68.036  1.00  0.00    -0.356 A  
HETATM    5  N   UNL     1     -12.169  11.323  68.582  1.00  0.00    -0.542 NA 
HETATM    6  C   UNL     1     -11.102  10.713  69.194  1.00  0.00    -0.255 A  
HETATM    7  C   UNL     1      -9.965  11.473  69.020  1.00  0.00    -0.019 A  
HETATM    8  C   UNL     1     -11.263   9.425  69.906  1.00  0.00    -0.180 C  
HETATM    9  N   UNL     1     -10.347  12.542  68.283  1.00  0.00    -0.231 NA 
HETATM   10  N   UNL     1      -9.461  13.493  67.854  1.00  0.00    -0.207 NA 
HETATM   11  C   UNL     1      -8.190  13.360  68.399  1.00  0.00    -0.139 C  
HETATM   12  N   UNL     1      -7.789  12.364  69.128  1.00  0.00    -0.316 N  
HETATM   13  O   UNL     1      -8.217  10.324  70.053  1.00  0.00    -0.120 OA 
HETATM   14  H   UNL     1      -6.832  12.366  69.481  1.00  0.00     0.000 HD 
HETATM   15  C   UNL     1      -8.610  11.308  69.442  1.00  0.00     0.398 C  
BRANCH  11  16
HETATM   16  C   UNL     1      -7.183  14.460  68.132  1.00  0.00    -0.129 A  
HETATM   17  C   UNL     1      -5.128  15.324  67.151  1.00  0.00     0.589 A  
HETATM   18  C   UNL     1      -6.020  14.255  67.350  1.00  0.00     0.287 A  
HETATM   19  C   UNL     1      -7.402  15.716  68.721  1.00  0.00    -0.144 A  
HETATM   20  C   UNL     1      -5.359  16.569  67.729  1.00  0.00    -0.140 A  
HETATM   21  C   UNL     1      -6.492  16.759  68.512  1.00  0.00    -0.155 A  
BRANCH  18  22
HETATM   22  O   UNL     1      -5.818  13.018  66.793  1.00  0.00     0.029 OA 
BRANCH  22  23
HETATM   23  C   UNL     1      -5.347  11.977  67.651  1.00  0.00    -0.080 C  
HETATM   24  C   UNL     1      -5.817  10.638  67.118  1.00  0.00    -0.048 C  
ENDBRANCH  22  23
ENDBRANCH  18  22
BRANCH  21  25
HETATM   25  S   UNL     1      -6.656  18.269  69.426  1.00  0.00    -0.149 S  
HETATM   26  O   UNL     1      -5.576  19.136  69.009  1.00  0.00    -0.194 OA 
HETATM   27  O   UNL     1      -6.824  17.906  70.816  1.00  0.00     1.643 OA 
BRANCH  25  28
HETATM   28  N   UNL     1      -8.121  18.929  68.840  1.00  0.00    -0.295 N  
HETATM   29  C   UNL     1      -8.080  19.592  67.498  1.00  0.00    -0.298 C  
HETATM   30  C   UNL     1      -8.099  18.571  66.332  1.00  0.00    -0.273 C  
HETATM   31  N   UNL     1      -9.166  17.544  66.402  1.00  0.00    -0.353 NA 
HETATM   32  C   UNL     1      -9.170  16.937  67.752  1.00  0.00    -0.230 C  
HETATM   33  C   UNL     1      -9.268  17.966  68.894  1.00  0.00    -0.139 C  
BRANCH  31  34
HETATM   34  C   UNL     1     -10.461  18.105  65.994  1.00  0.00    -0.335 C  
HETATM   35  C   UNL     1     -10.603  19.596  66.277  1.00  0.00    -0.585 C  
ENDBRANCH  31  34
ENDBRANCH  25  28
ENDBRANCH  21  25
ENDBRANCH  11  16
ENDBRANCH   3   4
ENDBRANCH   2   3
TORSDOF 8
ENDMDL
MODEL      219
REMARK 921   NORMALIZED FREE ENERGY PREDICTED BY IDOCK:    1.51 KCAL/MOL
REMARK 922        TOTAL FREE ENERGY PREDICTED BY IDOCK:    1.20 KCAL/MOL
REMARK 923 INTER-LIGAND FREE ENERGY PREDICTED BY IDOCK:   -1.60 KCAL/MOL
REMARK 924 INTRA-LIGAND FREE ENERGY PREDICTED BY IDOCK:    2.80 KCAL/MOL
REMARK 927      BINDING AFFINITY PREDICTED BY RF-SCORE:    0.00 PKD
ROOT
HETATM    1  C   UNL     1      -9.527  17.244  65.663  1.00  0.00     0.251 C  
HETATM    2  C   UNL     1      -9.431  16.139  66.707  1.00  0.00    -0.256 C  
ENDROOT
BRANCH   2   3
HETATM    3  C   UNL     1     -10.736  15.363  66.907  1.00  0.00    -0.314 C  
BRANCH   3   4
HETATM    4  C   UNL     1     -11.099  14.514  65.733  1.00  0.00    -0.324 A  
HETATM    5  N   UNL     1     -11.964  14.849  64.794  1.00  0.00    -0.389 NA 
HETATM    6  C   UNL     1     -11.985  13.803  63.905  1.00  0.00    -0.371 A  
HETATM    7  C   UNL     1     -11.122  12.813  64.326  1.00  0.00    -0.370 A  
HETATM    8  C   UNL     1     -12.845  13.841  62.702  1.00  0.00     2.245 C  
HETATM    9  N   UNL     1     -10.563  13.274  65.469  1.00  0.00    -0.281 NA 
HETATM   10  N   UNL     1      -9.597  12.581  66.146  1.00  0.00    -0.247 NA 
HETATM   11  C   UNL     1      -9.386  11.296  65.660  1.00  0.00    -0.224 C  
HETATM   12  N   UNL     1      -9.917  10.808  64.582  1.00  0.00    -0.298 N  
HETATM   13  O   UNL     1     -11.204  11.119  62.725  1.00  0.00     0.369 OA 
HETATM   14  H   UNL     1      -9.696   9.848  64.315  1.00  0.00     0.000 HD 
HETATM   15  C   UNL     1     -10.768  11.538  63.788  1.00  0.00    -0.408 C  
BRANCH  11  16
HETATM   16  C   UNL     1      -8.466  10.381  66.443  1.00  0.00    -0.138 A  
HETATM   17  C   UNL     1      -7.293   8.278  66.799  1.00  0.00    -0.083 A  
HETATM   18  C   UNL     1      -8.150   9.069  66.015  1.00  0.00    -0.111 A  
HETATM   19  C   UNL     1      -7.946  10.851  67.661  1.00  0.00    -0.114 A  
HETATM   20  C   UNL     1      -6.773   8.755  67.999  1.00  0.00    -0.069 A  
HETATM   21  C   UNL     1      -7.103  10.037  68.425  1.00  0.00    -0.072 A  
BRANCH  18  22
HETATM   22  O   UNL     1      -8.677   8.626  64.828  1.00  0.00    -0.159 OA 
BRANCH  22  23
HETATM   23  C   UNL     1      -7.867   8.751  63.658  1.00  0.00    -0.145 C  
HETATM   24  C   UNL     1      -8.044   7.519  62.793  1.00  0.00    -0.091 C  
ENDBRANCH  22  23
ENDBRANCH  18  22
BRANCH  21  25
HETATM   25  S   UNL     1      -6.625  10.545  70.055  1.00  0.00    -0.152 S  
HETATM   26  O   UNL     1      -7.824  10.558  70.864  1.00  0.00     0.714 OA 
HETATM   27  O   UNL     1      -5.816  11.735  69.906  1.00  0.00    -0.103 OA 
BRANCH  25  28
HETATM   28  N   UNL     1      -5.635   9.261  70.596  1.00  0.00    -0.032 N  
HETATM   29  C   UNL     1      -5.594   9.007  72.071  1.00  0.00    -0.064 C  
HETATM   30  C   UNL     1      -6.838   8.229  72.573  1.00  0.00    -0.089 C  
HETATM   31  N   UNL     1      -7.168   6.999  71.815  1.00  0.00    -0.077 NA 
HETATM   32  C   UNL     1      -7.177   7.306  70.367  1.00  0.00    -0.069 C  
HETATM   33  C   UNL     1      -5.882   7.974  69.867  1.00  0.00    -0.023 C  
BRANCH  31  34
HETATM   34  C   UNL     1      -6.272   5.897  72.188  1.00  0.00    -0.041 C  
HETATM   35  C   UNL     1      -6.125   5.705  73.694  1.00  0.00    -0.060 C  
ENDBRANCH  31  34
ENDBRANCH  25  28
ENDBRANCH  21  25
ENDBRANCH  11  16
ENDBRANCH   3   4
ENDBRANCH   2   3
TORSDOF 8
ENDMDL
MODEL      220
REMARK 921   NORMALIZED FREE ENERGY PREDICTED BY IDOCK:    1.87 KCAL/MOL
REMARK 922        TOTAL FREE ENERGY PREDICTED BY IDOCK:    1.73 KCAL/MOL
REMARK 923 INTER-LIGAND FREE ENERGY PREDICTED BY IDOCK:   -2.34 KCAL/MOL
REMARK 924 INTRA-LIGAND FREE ENERGY PREDICTED BY IDOCK:    4.07 KCAL/MOL
REMARK 927      BINDING AFFINITY PREDICTED BY RF-SCORE:    0.00 PKD
ROOT
HETATM    1  C   UNL     1     -11.575  11.402  69.537  1.00  0.00    -0.399 C  
HETATM    2  C   UNL     1     -12.190  10.058  69.167  1.00  0.00     0.648 C  
ENDROOT
BRANCH   2   3
HETATM    3  C   UNL     1     -11.163   8.938  68.988  1.00  0.00     0.267 C  
BRANCH   3   4
HETATM    4  C   UNL     1      -9.896   9.177  69.740  1.00  0.00    -0.181 A  
HETATM    5  N   UNL     1      -9.402   8.377  70.665  1.00  0.00    -0.155 NA 
HETATM    6  C   UNL     1      -8.228   8.956  71.082  1.00  0.00    -0.173 A  
HETATM    7  C   UNL     1      -8.019  10.135  70.399  1.00  0.00     0.281 A  
HETATM    8  C   UNL     1      -7.387   8.316  72.118  1.00  0.00    -0.125 C  
HETATM    9  N   UNL     1      -9.067  10.260  69.552  1.00  0.00    -0.197 NA 
HETATM   10  N   UNL     1      -9.169  11.290  68.656  1.00  0.00    -0.179 NA 
HETATM   11  C   UNL     1      -8.209  12.279  68.830  1.00  0.00     0.081 C  
HETATM   12  N   UNL     1      -7.202  12.209  69.645  1.00  0.00    -0.310 N  
HETATM   13  O   UNL     1      -5.987  11.001  71.149  1.00  0.00    -0.362 OA 
HETATM   14  H   UNL     1      -6.555  12.996  69.696  1.00  0.00     0.000 HD 
HETATM   15  C   UNL     1      -6.979  11.114  70.443  1.00  0.00     0.699 C  
BRANCH  11  16
HETATM   16  C   UNL     1      -8.338  13.547  68.010  1.00  0.00    -0.168 A  
HETATM   17  C   UNL     1      -7.419  15.497  66.879  1.00  0.00    -0.117 A  
HETATM   18  C   UNL     1      -7.219  14.330  67.636  1.00  0.00    -0.183 A  
HETATM   19  C   UNL     1      -9.627  13.971  67.646  1.00  0.00    -0.221 A  
HETATM   20  C   UNL     1      -8.699  15.905  66.513  1.00  0.00    -0.350 A  
HETATM   21  C   UNL     1      -9.796  15.143  66.900  1.00  0.00    -0.237 A  
BRANCH  18  22
HETATM   22  O   UNL     1      -5.970  13.904  68.011  1.00  0.00    -0.114 OA 
BRANCH  22  23
HETATM   23  C   UNL     1      -5.146  14.825  68.727  1.00  0.00    -0.090 C  
HETATM   24  C   UNL     1      -5.198  14.498  70.206  1.00  0.00    -0.099 C  
ENDBRANCH  22  23
ENDBRANCH  18  22
BRANCH  21  25
HETATM   25  S   UNL     1     -11.424  15.789  66.628  1.00  0.00     0.362 S  
HETATM   26  O   UNL     1     -11.275  17.007  65.862  1.00  0.00     0.213 OA 
HETATM   27  O   UNL     1     -12.095  15.795  67.910  1.00  0.00     0.096 OA 
BRANCH  25  28
HETATM   28  N   UNL     1     -12.153  14.615  65.622  1.00  0.00    -0.267 N  
HETATM   29  C   UNL     1     -11.692  14.559  64.198  1.00  0.00    -0.201 C  
HETATM   30  C   UNL     1     -10.339  13.819  64.043  1.00  0.00     0.645 C  
HETATM   31  N   UNL     1     -10.260  12.491  64.696  1.00  0.00    -0.303 NA 
HETATM   32  C   UNL     1     -10.743  12.605  66.091  1.00  0.00    -0.267 C  
HETATM   33  C   UNL     1     -12.142  13.238  66.213  1.00  0.00    -0.414 C  
BRANCH  31  34
HETATM   34  C   UNL     1     -10.960  11.473  63.902  1.00  0.00    -0.401 C  
HETATM   35  C   UNL     1     -10.031  10.458  63.245  1.00  0.00    -0.118 C  
ENDBRANCH  31  34
ENDBRANCH  25  28
ENDBRANCH  21  25
ENDBRANCH  11  16
ENDBRANCH   3   4
ENDBRANCH   2   3
TORSDOF 8
ENDMDL
MODEL      221
REMARK 921   NORMALIZED FREE ENERGY PREDICTED BY IDOCK:    2.62 KCAL/MOL
REMARK 922        TOTAL FREE ENERGY PREDICTED BY IDOCK:    2.84 KCAL/MOL
REMARK 923 INTER-LIGAND FREE ENERGY PREDICTED BY IDOCK:    1.55 KCAL/MOL
REMARK 924 INTRA-LIGAND FREE ENERGY PREDICTED BY IDOCK:    1.29 KCAL/MOL
REMARK 927      BINDING AFFINITY PREDICTED BY RF-SCORE:    0.00 PKD
ROOT
HETATM    1  C   UNL     1     -11.581   4.612  65.501  1.00  0.00     1.289 C  
HETATM    2  C   UNL     1     -10.347   4.525  64.612  1.00  0.00     0.059 C  
ENDROOT
BRANCH   2   3
HETATM    3  C   UNL     1      -9.158   5.341  65.124  1.00  0.00    -0.065 C  
BRANCH   3   4
HETATM    4  C   UNL     1      -8.782   5.012  66.531  1.00  0.00    -0.109 A  
HETATM    5  N   UNL     1      -8.547   3.795  66.987  1.00  0.00    -0.104 NA 
HETATM    6  C   UNL     1      -8.220   3.942  68.312  1.00  0.00    -0.086 A  
HETATM    7  C   UNL     1      -8.270   5.275  68.662  1.00  0.00    -0.093 A  
HETATM    8  C   UNL     1      -7.876   2.770  69.148  1.00  0.00    -0.052 C  
HETATM    9  N   UNL     1      -8.614   5.939  67.534  1.00  0.00    -0.103 NA 
HETATM   10  N   UNL     1      -8.699   7.303  67.482  1.00  0.00    -0.121 NA 
HETATM   11  C   UNL     1      -8.587   7.919  68.722  1.00  0.00    -0.128 C  
HETATM   12  N   UNL     1      -8.281   7.318  69.831  1.00  0.00    -0.131 N  
HETATM   13  O   UNL     1      -7.653   5.409  70.908  1.00  0.00    -0.084 OA 
HETATM   14  H   UNL     1      -8.227   7.866  70.689  1.00  0.00     0.000 HD 
HETATM   15  C   UNL     1      -8.028   5.969  69.887  1.00  0.00    -0.113 C  
BRANCH  11  16
HETATM   16  C   UNL     1      -8.843   9.410  68.802  1.00  0.00    -0.132 A  
HETATM   17  C   UNL     1     -10.304  11.358  68.846  1.00  0.00    -0.203 A  
HETATM   18  C   UNL     1     -10.147   9.963  68.774  1.00  0.00    -0.174 A  
HETATM   19  C   UNL     1      -7.733  10.270  68.866  1.00  0.00    -0.098 A  
HETATM   20  C   UNL     1      -9.200  12.202  68.921  1.00  0.00     0.217 A  
HETATM   21  C   UNL     1      -7.921  11.655  68.928  1.00  0.00    -0.026 A  
BRANCH  18  22
HETATM   22  O   UNL     1     -11.216   9.106  68.700  1.00  0.00     0.079 OA 
BRANCH  22  23
HETATM   23  C   UNL     1     -11.561   8.591  67.413  1.00  0.00     2.276 C  
HETATM   24  C   UNL     1     -11.220   9.622  66.354  1.00  0.00     0.972 C  
ENDBRANCH  22  23
ENDBRANCH  18  22
BRANCH  21  25
HETATM   25  S   UNL     1      -6.527  12.742  68.791  1.00  0.00    -0.091 S  
HETATM   26  O   UNL     1      -5.556  12.081  67.946  1.00  0.00    -0.048 OA 
HETATM   27  O   UNL     1      -6.183  13.159  70.132  1.00  0.00    -0.124 OA 
BRANCH  25  28
HETATM   28  N   UNL     1      -7.152  14.081  67.932  1.00  0.00    -0.141 N  
HETATM   29  C   UNL     1      -8.503  14.581  68.341  1.00  0.00    -0.163 C  
HETATM   30  C   UNL     1      -8.448  15.456  69.620  1.00  0.00    -0.124 C  
HETATM   31  N   UNL     1      -7.443  16.545  69.604  1.00  0.00     0.058 NA 
HETATM   32  C   UNL     1      -6.137  15.996  69.178  1.00  0.00    -0.136 C  
HETATM   33  C   UNL     1      -6.192  15.229  67.843  1.00  0.00    -0.153 C  
BRANCH  31  34
HETATM   34  C   UNL     1      -7.910  17.678  68.794  1.00  0.00    -0.242 C  
HETATM   35  C   UNL     1      -7.064  18.937  68.952  1.00  0.00    -0.354 C  
ENDBRANCH  31  34
ENDBRANCH  25  28
ENDBRANCH  21  25
ENDBRANCH  11  16
ENDBRANCH   3   4
ENDBRANCH   2   3
TORSDOF 8
ENDMDL
MODEL      222
REMARK 921   NORMALIZED FREE ENERGY PREDICTED BY IDOCK:    3.15 KCAL/MOL
REMARK 922        TOTAL FREE ENERGY PREDICTED BY IDOCK:    3.61 KCAL/MOL
REMARK 923 INTER-LIGAND FREE ENERGY PREDICTED BY IDOCK:    3.11 KCAL/MOL
REMARK 924 INTRA-LIGAND FREE ENERGY PREDICTED BY IDOCK:    0.50 KCAL/MOL
REMARK 927      BINDING AFFINITY PREDICTED BY RF-SCORE:    0.00 PKD
ROOT
HETATM    1  C   UNL     1      -9.432  19.892  69.485  1.00  0.00     0.171 C  
HETATM    2  C   UNL     1     -10.203  18.632  69.109  1.00  0.00    -0.078 C  
ENDROOT
BRANCH   2   3
HETATM    3  C   UNL     1      -9.467  17.334  69.448  1.00  0.00     0.189 C  
BRANCH   3   4
HETATM    4  C   UNL     1      -8.377  17.007  68.482  1.00  0.00    -0.260 A  
HETATM    5  N   UNL     1      -7.825  17.865  67.645  1.00  0.00    -0.216 NA 
HETATM    6  C   UNL     1      -6.863  17.164  66.960  1.00  0.00    -0.193 A  
HETATM    7  C   UNL     1      -6.845  15.853  67.388  1.00  0.00    -0.194 A  
HETATM    8  C   UNL     1      -6.023  17.821  65.935  1.00  0.00    -0.215 C  
HETATM    9  N   UNL     1      -7.793  15.767  68.351  1.00  0.00    -0.132 NA 
HETATM   10  N   UNL     1      -8.019  14.619  69.059  1.00  0.00    -0.141 NA 
HETATM   11  C   UNL     1      -7.328  13.516  68.573  1.00  0.00    -0.114 C  
HETATM   12  N   UNL     1      -6.429  13.550  67.638  1.00  0.00    -0.168 N  
HETATM   13  O   UNL     1      -5.152  14.775  66.199  1.00  0.00     3.138 OA 
HETATM   14  H   UNL     1      -5.981  12.678  67.353  1.00  0.00     0.000 HD 
HETATM   15  C   UNL     1      -6.059  14.719  67.018  1.00  0.00     1.039 C  
BRANCH  11  16
HETATM   16  C   UNL     1      -7.641  12.160  69.170  1.00  0.00     0.173 A  
HETATM   17  C   UNL     1      -7.211  10.315  70.700  1.00  0.00     0.308 A  
HETATM   18  C   UNL     1      -6.860  11.581  70.200  1.00  0.00     0.388 A  
HETATM   19  C   UNL     1      -8.729  11.441  68.646  1.00  0.00    -0.121 A  
HETATM   20  C   UNL     1      -8.297   9.614  70.183  1.00  0.00    -0.221 A  
HETATM   21  C   UNL     1      -9.048  10.178  69.158  1.00  0.00    -0.183 A  
BRANCH  18  22
HETATM   22  O   UNL     1      -5.796  12.295  70.690  1.00  0.00    -0.224 OA 
BRANCH  22  23
HETATM   23  C   UNL     1      -6.028  13.129  71.827  1.00  0.00     0.873 C  
HETATM   24  C   UNL     1      -5.469  12.454  73.064  1.00  0.00     0.997 C  
ENDBRANCH  22  23
ENDBRANCH  18  22
BRANCH  21  25
HETATM   25  S   UNL     1     -10.279   9.186  68.355  1.00  0.00    -0.206 S  
HETATM   26  O   UNL     1     -10.716   9.917  67.186  1.00  0.00    -0.253 OA 
HETATM   27  O   UNL     1     -11.222   8.778  69.373  1.00  0.00    -0.016 OA 
BRANCH  25  28
HETATM   28  N   UNL     1      -9.400   7.818  67.827  1.00  0.00    -0.142 N  
HETATM   29  C   UNL     1      -8.337   7.296  68.744  1.00  0.00    -0.129 C  
HETATM   30  C   UNL     1      -8.919   6.447  69.903  1.00  0.00    -0.142 C  
HETATM   31  N   UNL     1      -9.864   5.380  69.499  1.00  0.00    -0.177 NA 
HETATM   32  C   UNL     1     -10.878   5.948  68.583  1.00  0.00    -0.261 C  
HETATM   33  C   UNL     1     -10.277   6.689  67.374  1.00  0.00    -0.190 C  
BRANCH  31  34
HETATM   34  C   UNL     1      -9.145   4.222  68.950  1.00  0.00    -0.128 C  
HETATM   35  C   UNL     1      -8.114   3.629  69.905  1.00  0.00    -0.062 C  
ENDBRANCH  31  34
ENDBRANCH  25  28
ENDBRANCH  21  25
ENDBRANCH  11  16
ENDBRANCH   3   4
ENDBRANCH   2   3
TORSDOF 8
ENDMDL
MODEL      223
REMARK 921   NORMALIZED FREE ENERGY PREDICTED BY IDOCK:    3.44 KCAL/MOL
REMARK 922        TOTAL FREE ENERGY PREDICTED BY IDOCK:    4.04 KCAL/MOL
REMARK 923 INTER-LIGAND FREE ENERGY PREDICTED BY IDOCK:   -0.68 KCAL/MOL
REMARK 924 INTRA-LIGAND FREE ENERGY PREDICTED BY IDOCK:    4.71 KCAL/MOL
REMARK 927      BINDING AFFINITY PREDICTED BY RF-SCORE:    0.00 PKD
ROOT
HETATM    1  C   UNL     1     -10.048  16.195  64.834  1.00  0.00     0.454 C  
HETATM    2  C   UNL     1     -11.490  16.101  65.317  1.00  0.00     0.206 C  
ENDROOT
BRANCH   2   3
HETATM    3  C   UNL     1     -12.426  15.395  64.334  1.00  0.00     0.030 C  
BRANCH   3   4
HETATM    4  C   UNL     1     -12.052  13.971  64.086  1.00  0.00    -0.422 A  
HETATM    5  N   UNL     1     -12.694  13.149  63.277  1.00  0.00    -0.598 NA 
HETATM    6  C   UNL     1     -12.014  11.957  63.328  1.00  0.00    -0.337 A  
HETATM    7  C   UNL     1     -10.947  12.063  64.194  1.00  0.00    -0.360 A  
HETATM    8  C   UNL     1     -12.451  10.794  62.523  1.00  0.00     3.268 C  
HETATM    9  N   UNL     1     -10.974  13.334  64.657  1.00  0.00    -0.349 NA 
HETATM   10  N   UNL     1     -10.017  13.829  65.501  1.00  0.00    -0.272 NA 
HETATM   11  C   UNL     1      -9.139  12.864  65.979  1.00  0.00     0.167 C  
HETATM   12  N   UNL     1      -9.094  11.631  65.579  1.00  0.00    -0.401 N  
HETATM   13  O   UNL     1      -9.845  10.007  64.164  1.00  0.00    -0.257 OA 
HETATM   14  H   UNL     1      -8.409  11.002  65.999  1.00  0.00     0.000 HD 
HETATM   15  C   UNL     1      -9.937  11.142  64.611  1.00  0.00    -0.292 C  
BRANCH  11  16
HETATM   16  C   UNL     1      -8.153  13.270  67.055  1.00  0.00    -0.020 A  
HETATM   17  C   UNL     1      -6.771  12.819  69.008  1.00  0.00    -0.096 A  
HETATM   18  C   UNL     1      -7.682  12.366  68.038  1.00  0.00    -0.135 A  
HETATM   19  C   UNL     1      -7.727  14.609  67.091  1.00  0.00    -0.121 A  
HETATM   20  C   UNL     1      -6.345  14.145  69.031  1.00  0.00    -0.098 A  
HETATM   21  C   UNL     1      -6.827  15.033  68.075  1.00  0.00    -0.141 A  
BRANCH  18  22
HETATM   22  O   UNL     1      -8.118  11.067  67.991  1.00  0.00    -0.113 OA 
BRANCH  22  23
HETATM   23  C   UNL     1      -8.639  10.502  69.196  1.00  0.00    -0.150 C  
HETATM   24  C   UNL     1      -9.499   9.300  68.854  1.00  0.00    -0.154 C  
ENDBRANCH  22  23
ENDBRANCH  18  22
BRANCH  21  25
HETATM   25  S   UNL     1      -6.460  16.759  68.251  1.00  0.00    -0.144 S  
HETATM   26  O   UNL     1      -6.516  17.341  66.929  1.00  0.00    -0.154 OA 
HETATM   27  O   UNL     1      -5.263  16.856  69.057  1.00  0.00    -0.130 OA 
BRANCH  25  28
HETATM   28  N   UNL     1      -7.787  17.355  69.149  1.00  0.00    -0.106 N  
HETATM   29  C   UNL     1      -8.941  17.911  68.372  1.00  0.00    -0.282 C  
HETATM   30  C   UNL     1      -9.858  16.800  67.797  1.00  0.00    -0.257 C  
HETATM   31  N   UNL     1     -10.298  15.772  68.769  1.00  0.00    -0.213 NA 
HETATM   32  C   UNL     1      -9.123  15.273  69.517  1.00  0.00    -0.187 C  
HETATM   33  C   UNL     1      -8.290  16.388  70.178  1.00  0.00     1.638 C  
BRANCH  31  34
HETATM   34  C   UNL     1     -11.377  16.285  69.623  1.00  0.00    -0.266 C  
HETATM   35  C   UNL     1     -11.737  15.362  70.782  1.00  0.00    -0.385 C  
ENDBRANCH  31  34
ENDBRANCH  25  28
ENDBRANCH  21  25
ENDBRANCH  11  16
ENDBRANCH   3   4
ENDBRANCH   2   3
TORSDOF 8
ENDMDL
MODEL      224
REMARK 921   NORMALIZED FREE ENERGY PREDICTED BY IDOCK:    3.63 KCAL/MOL
REMARK 922        TOTAL FREE ENERGY PREDICTED BY IDOCK:    4.33 KCAL/MOL
REMARK 923 INTER-LIGAND FREE ENERGY PREDICTED BY IDOCK:   -1.28 KCAL/MOL
REMARK 924 INTRA-LIGAND FREE ENERGY PREDICTED BY IDOCK:    5.61 KCAL/MOL
REMARK 927      BINDING AFFINITY PREDICTED BY RF-SCORE:    0.00 PKD
ROOT
HETATM    1  C   UNL     1      -9.366   2.792  65.014  1.00  0.00    -0.126 C  
HETATM    2  C   UNL     1      -7.948   3.314  65.212  1.00  0.00    -0.082 C  
ENDROOT
BRANCH   2   3
HETATM    3  C   UNL     1      -7.001   2.298  65.855  1.00  0.00    -0.044 C  
BRANCH   3   4
HETATM    4  C   UNL     1      -6.731   2.578  67.297  1.00  0.00    -0.040 A  
HETATM    5  N   UNL     1      -6.099   1.764  68.121  1.00  0.00    -0.024 NA 
HETATM    6  C   UNL     1      -6.051   2.409  69.332  1.00  0.00    -0.024 A  
HETATM    7  C   UNL     1      -6.677   3.634  69.235  1.00  0.00    -0.037 A  
HETATM    8  C   UNL     1      -5.394   1.788  70.504  1.00  0.00    -0.004 C  
HETATM    9  N   UNL     1      -7.091   3.735  67.950  1.00  0.00    -0.054 NA 
HETATM   10  N   UNL     1      -7.704   4.856  67.461  1.00  0.00    -0.090 NA 
HETATM   11  C   UNL     1      -8.025   5.790  68.439  1.00  0.00    -0.104 C  
HETATM   12  N   UNL     1      -7.668   5.721  69.685  1.00  0.00    -0.090 N  
HETATM   13  O   UNL     1      -6.494   4.656  71.324  1.00  0.00    -0.018 OA 
HETATM   14  H   UNL     1      -7.960   6.462  70.322  1.00  0.00     0.000 HD 
HETATM   15  C   UNL     1      -6.910   4.685  70.174  1.00  0.00    -0.037 C  
BRANCH  11  16
HETATM   16  C   UNL     1      -8.862   6.986  68.033  1.00  0.00    -0.124 A  
HETATM   17  C   UNL     1     -10.384   8.156  66.536  1.00  0.00    -0.162 A  
HETATM   18  C   UNL     1      -9.638   7.007  66.849  1.00  0.00    -0.168 A  
HETATM   19  C   UNL     1      -8.827   8.127  68.852  1.00  0.00    -0.141 A  
HETATM   20  C   UNL     1     -10.353   9.279  67.359  1.00  0.00    -0.327 A  
HETATM   21  C   UNL     1      -9.573   9.260  68.511  1.00  0.00    -0.147 A  
BRANCH  18  22
HETATM   22  O   UNL     1      -9.649   5.887  66.057  1.00  0.00    -0.126 OA 
BRANCH  22  23
HETATM   23  C   UNL     1     -10.774   5.012  66.167  1.00  0.00    -0.203 C  
HETATM   24  C   UNL     1     -10.330   3.702  66.787  1.00  0.00     1.054 C  
ENDBRANCH  22  23
ENDBRANCH  18  22
BRANCH  21  25
HETATM   25  S   UNL     1      -9.361  10.765  69.423  1.00  0.00     0.110 S  
HETATM   26  O   UNL     1      -7.956  11.104  69.360  1.00  0.00    -0.040 OA 
HETATM   27  O   UNL     1     -10.026  10.585  70.695  1.00  0.00     0.517 OA 
BRANCH  25  28
HETATM   28  N   UNL     1     -10.225  11.914  68.498  1.00  0.00    -0.217 N  
HETATM   29  C   UNL     1     -10.398  13.277  69.095  1.00  0.00     0.149 C  
HETATM   30  C   UNL     1      -9.127  14.152  68.952  1.00  0.00     0.009 C  
HETATM   31  N   UNL     1      -8.551  14.221  67.588  1.00  0.00    -0.171 NA 
HETATM   32  C   UNL     1      -8.420  12.851  67.044  1.00  0.00    -0.142 C  
HETATM   33  C   UNL     1      -9.727  12.037  67.090  1.00  0.00    -0.197 C  
BRANCH  31  34
HETATM   34  C   UNL     1      -9.329  15.131  66.736  1.00  0.00    -0.247 C  
HETATM   35  C   UNL     1      -8.474  16.112  65.941  1.00  0.00     0.068 C  
ENDBRANCH  31  34
ENDBRANCH  25  28
ENDBRANCH  21  25
ENDBRANCH  11  16
ENDBRANCH   3   4
ENDBRANCH   2   3
TORSDOF 8
ENDMDL
MODEL      225
REMARK 921   NORMALIZED FREE ENERGY PREDICTED BY IDOCK:    7.85 KCAL/MOL
REMARK 922        TOTAL FREE ENERGY PREDICTED BY IDOCK:   10.51 KCAL/MOL
REMARK 923 INTER-LIGAND FREE ENERGY PREDICTED BY IDOCK:    8.18 KCAL/MOL
REMARK 924 INTRA-LIGAND FREE ENERGY PREDICTED BY IDOCK:    2.33 KCAL/MOL
REMARK 927      BINDING AFFINITY PREDICTED BY RF-SCORE:    0.00 PKD
ROOT
HETATM    1  C   UNL     1      -6.014  18.608  68.590  1.00  0.00    -0.211 C  
HETATM    2  C   UNL     1      -5.412  18.082  69.887  1.00  0.00    -0.233 C  
ENDROOT
BRANCH   2   3
HETATM    3  C   UNL     1      -6.410  17.332  70.772  1.00  0.00     1.302 C  
BRANCH   3   4
HETATM    4  C   UNL     1      -7.827  17.509  70.338  1.00  0.00     3.234 A  
HETATM    5  N   UNL     1      -8.595  18.535  70.656  1.00  0.00     3.732 NA 
HETATM    6  C   UNL     1      -9.802  18.312  70.041  1.00  0.00     1.149 A  
HETATM    7  C   UNL     1      -9.762  17.120  69.348  1.00  0.00     0.061 A  
HETATM    8  C   UNL     1     -10.915  19.279  70.169  1.00  0.00     2.691 C  
HETATM    9  N   UNL     1      -8.515  16.629  69.533  1.00  0.00     0.169 NA 
HETATM   10  N   UNL     1      -8.082  15.477  68.934  1.00  0.00    -0.176 NA 
HETATM   11  C   UNL     1      -9.088  14.773  68.283  1.00  0.00    -0.183 C  
HETATM   12  N   UNL     1     -10.301  15.197  68.104  1.00  0.00    -0.236 N  
HETATM   13  O   UNL     1     -11.837  16.870  68.312  1.00  0.00     0.308 OA 
HETATM   14  H   UNL     1     -10.964  14.597  67.612  1.00  0.00     0.000 HD 
HETATM   15  C   UNL     1     -10.723  16.425  68.552  1.00  0.00    -0.320 C  
BRANCH  11  16
HETATM   16  C   UNL     1      -8.757  13.399  67.739  1.00  0.00    -0.197 A  
HETATM   17  C   UNL     1      -9.061  11.557  66.176  1.00  0.00    -0.217 A  
HETATM   18  C   UNL     1      -9.420  12.842  66.619  1.00  0.00    -0.249 A  
HETATM   19  C   UNL     1      -7.778  12.642  68.405  1.00  0.00    -0.133 A  
HETATM   20  C   UNL     1      -8.082  10.818  66.834  1.00  0.00    -0.132 A  
HETATM   21  C   UNL     1      -7.448  11.362  67.946  1.00  0.00    -0.095 A  
BRANCH  18  22
HETATM   22  O   UNL     1     -10.380  13.593  65.990  1.00  0.00    -0.290 OA 
BRANCH  22  23
HETATM   23  C   UNL     1     -11.523  12.907  65.475  1.00  0.00    -0.326 C  
HETATM   24  C   UNL     1     -11.350  11.416  65.689  1.00  0.00    -0.069 C  
ENDBRANCH  22  23
ENDBRANCH  18  22
BRANCH  21  25
HETATM   25  S   UNL     1      -6.376  10.328  68.909  1.00  0.00    -0.048 S  
HETATM   26  O   UNL     1      -5.555  11.204  69.715  1.00  0.00    -0.050 OA 
HETATM   27  O   UNL     1      -5.777   9.377  67.999  1.00  0.00    -0.038 OA 
BRANCH  25  28
HETATM   28  N   UNL     1      -7.452   9.504  69.950  1.00  0.00    -0.096 N  
HETATM   29  C   UNL     1      -8.864  10.001  70.003  1.00  0.00    -0.080 C  
HETATM   30  C   UNL     1      -9.706   9.523  68.792  1.00  0.00    -0.159 C  
HETATM   31  N   UNL     1      -9.648   8.069  68.510  1.00  0.00    -0.153 NA 
HETATM   32  C   UNL     1      -8.234   7.632  68.488  1.00  0.00    -0.125 C  
HETATM   33  C   UNL     1      -7.446   8.018  69.754  1.00  0.00    -0.089 C  
BRANCH  31  34
HETATM   34  C   UNL     1     -10.491   7.318  69.451  1.00  0.00    -0.216 C  
HETATM   35  C   UNL     1     -11.041   6.016  68.880  1.00  0.00    -0.349 C  
ENDBRANCH  31  34
ENDBRANCH  25  28
ENDBRANCH  21  25
ENDBRANCH  11  16
ENDBRANCH   3   4
ENDBRANCH   2   3
TORSDOF 8
ENDMDL
MODEL      226
REMARK 921   NORMALIZED FREE ENERGY PREDICTED BY IDOCK:    8.83 KCAL/MOL
REMARK 922        TOTAL FREE ENERGY PREDICTED BY IDOCK:   11.95 KCAL/MOL
REMARK 923 INTER-LIGAND FREE ENERGY PREDICTED BY IDOCK:    6.15 KCAL/MOL
REMARK 924 INTRA-LIGAND FREE ENERGY PREDICTED BY IDOCK:    5.80 KCAL/MOL
REMARK 927      BINDING AFFINITY PREDICTED BY RF-SCORE:    0.00 PKD
ROOT
HETATM    1  C   UNL     1      -7.236  14.511  71.832  1.00  0.00     3.013 C  
HETATM    2  C   UNL     1      -8.292  15.457  71.273  1.00  0.00     3.703 C  
ENDROOT
BRANCH   2   3
HETATM    3  C   UNL     1      -9.589  14.758  70.857  1.00  0.00     2.005 C  
BRANCH   3   4
HETATM    4  C   UNL     1      -9.692  14.542  69.384  1.00  0.00     0.108 A  
HETATM    5  N   UNL     1      -9.899  15.492  68.491  1.00  0.00    -0.199 NA 
HETATM    6  C   UNL     1      -9.907  14.869  67.267  1.00  0.00    -0.229 A  
HETATM    7  C   UNL     1      -9.711  13.514  67.430  1.00  0.00    -0.229 A  
HETATM    8  C   UNL     1     -10.102  15.640  66.019  1.00  0.00    -0.355 C  
HETATM    9  N   UNL     1      -9.567  13.320  68.762  1.00  0.00    -0.019 NA 
HETATM   10  N   UNL     1      -9.289  12.093  69.300  1.00  0.00     0.582 NA 
HETATM   11  C   UNL     1      -9.356  11.052  68.382  1.00  0.00    -0.179 C  
HETATM   12  N   UNL     1      -9.515  11.192  67.102  1.00  0.00    -0.172 N  
HETATM   13  O   UNL     1      -9.694  12.572  65.296  1.00  0.00    -0.185 OA 
HETATM   14  H   UNL     1      -9.553  10.357  66.517  1.00  0.00     0.000 HD 
HETATM   15  C   UNL     1      -9.634  12.425  66.509  1.00  0.00    -0.240 C  
BRANCH  11  16
HETATM   16  C   UNL     1      -9.241   9.635  68.906  1.00  0.00    -0.147 A  
HETATM   17  C   UNL     1      -9.562   7.920  70.605  1.00  0.00    -0.167 A  
HETATM   18  C   UNL     1      -9.710   9.254  70.187  1.00  0.00    -0.218 A  
HETATM   19  C   UNL     1      -8.606   8.679  68.095  1.00  0.00    -0.141 A  
HETATM   20  C   UNL     1      -8.942   6.977  69.790  1.00  0.00    -0.141 A  
HETATM   21  C   UNL     1      -8.465   7.361  68.542  1.00  0.00    -0.125 A  
BRANCH  18  22
HETATM   22  O   UNL     1     -10.316  10.205  70.968  1.00  0.00     0.057 OA 
BRANCH  22  23
HETATM   23  C   UNL     1     -11.707  10.450  70.750  1.00  0.00    -0.368 C  
HETATM   24  C   UNL     1     -12.164   9.680  69.527  1.00  0.00     0.709 C  
ENDBRANCH  22  23
ENDBRANCH  18  22
BRANCH  21  25
HETATM   25  S   UNL     1      -7.479   6.215  67.615  1.00  0.00    -0.090 S  
HETATM   26  O   UNL     1      -7.979   4.890  67.909  1.00  0.00    -0.092 OA 
HETATM   27  O   UNL     1      -6.095   6.558  67.856  1.00  0.00    -0.025 OA 
BRANCH  25  28
HETATM   28  N   UNL     1      -7.870   6.580  65.991  1.00  0.00    -0.099 N  
HETATM   29  C   UNL     1      -9.020   7.513  65.761  1.00  0.00    -0.036 C  
HETATM   30  C   UNL     1      -8.630   8.998  65.977  1.00  0.00    -0.142 C  
HETATM   31  N   UNL     1      -7.410   9.446  65.264  1.00  0.00    -0.094 NA 
HETATM   32  C   UNL     1      -6.317   8.480  65.514  1.00  0.00    -0.055 C  
HETATM   33  C   UNL     1      -6.689   7.023  65.181  1.00  0.00    -0.047 C  
BRANCH  31  34
HETATM   34  C   UNL     1      -7.690   9.679  63.841  1.00  0.00    -0.131 C  
HETATM   35  C   UNL     1      -6.461   9.563  62.946  1.00  0.00    -0.101 C  
ENDBRANCH  31  34
ENDBRANCH  25  28
ENDBRANCH  21  25
ENDBRANCH  11  16
ENDBRANCH   3   4
ENDBRANCH   2   3
TORSDOF 8
ENDMDL
MODEL      227
REMARK 921   NORMALIZED FREE ENERGY PREDICTED BY IDOCK:    9.38 KCAL/MOL
REMARK 922        TOTAL FREE ENERGY PREDICTED BY IDOCK:   12.76 KCAL/MOL
REMARK 923 INTER-LIGAND FREE ENERGY PREDICTED BY IDOCK:    2.10 KCAL/MOL
REMARK 924 INTRA-LIGAND FREE ENERGY PREDICTED BY IDOCK:   10.66 KCAL/MOL
REMARK 927      BINDING AFFINITY PREDICTED BY RF-SCORE:    0.00 PKD
ROOT
HETATM    1  C   UNL     1     -10.989  17.721  70.006  1.00  0.00     1.490 C  
HETATM    2  C   UNL     1     -11.190  16.439  69.208  1.00  0.00    -0.272 C  
ENDROOT
BRANCH   2   3
HETATM    3  C   UNL     1     -10.000  16.072  68.318  1.00  0.00    -0.220 C  
BRANCH   3   4
HETATM    4  C   UNL     1     -10.393  15.309  67.097  1.00  0.00    -0.265 A  
HETATM    5  N   UNL     1     -11.274  15.714  66.201  1.00  0.00    -0.125 NA 
HETATM    6  C   UNL     1     -11.322  14.732  65.243  1.00  0.00    -0.363 A  
HETATM    7  C   UNL     1     -10.459  13.710  65.576  1.00  0.00    -0.306 A  
HETATM    8  C   UNL     1     -12.205  14.860  64.062  1.00  0.00    -0.151 C  
HETATM    9  N   UNL     1      -9.873  14.086  66.737  1.00  0.00    -0.265 NA 
HETATM   10  N   UNL     1      -8.900  13.341  67.344  1.00  0.00    -0.194 NA 
HETATM   11  C   UNL     1      -8.709  12.092  66.766  1.00  0.00    -0.192 C  
HETATM   12  N   UNL     1      -9.266  11.683  65.668  1.00  0.00    -0.359 N  
HETATM   13  O   UNL     1     -10.587  12.131  63.864  1.00  0.00    -0.339 OA 
HETATM   14  H   UNL     1      -9.058  10.743  65.331  1.00  0.00     0.000 HD 
HETATM   15  C   UNL     1     -10.126  12.472  64.944  1.00  0.00    -0.226 C  
BRANCH  11  16
HETATM   16  C   UNL     1      -7.782  11.119  67.466  1.00  0.00    -0.116 A  
HETATM   17  C   UNL     1      -6.423   9.100  67.548  1.00  0.00    -0.064 A  
HETATM   18  C   UNL     1      -7.274   9.959  66.831  1.00  0.00    -0.090 A  
HETATM   19  C   UNL     1      -7.454  11.367  68.809  1.00  0.00    -0.124 A  
HETATM   20  C   UNL     1      -6.093   9.360  68.876  1.00  0.00    -0.043 A  
HETATM   21  C   UNL     1      -6.611  10.489  69.500  1.00  0.00    -0.080 A  
BRANCH  18  22
HETATM   22  O   UNL     1      -7.616   9.729  65.523  1.00  0.00    -0.109 OA 
BRANCH  22  23
HETATM   23  C   UNL     1      -8.889  10.204  65.080  1.00  0.00    -0.183 C  
HETATM   24  C   UNL     1      -8.831  10.473  63.589  1.00  0.00    -0.210 C  
ENDBRANCH  22  23
ENDBRANCH  18  22
BRANCH  21  25
HETATM   25  S   UNL     1      -6.373  10.685  71.246  1.00  0.00     0.918 S  
HETATM   26  O   UNL     1      -6.305  12.106  71.508  1.00  0.00     0.963 OA 
HETATM   27  O   UNL     1      -5.289   9.807  71.625  1.00  0.00    -0.072 OA 
BRANCH  25  28
HETATM   28  N   UNL     1      -7.831  10.093  71.913  1.00  0.00     2.943 N  
HETATM   29  C   UNL     1      -8.887   9.642  70.951  1.00  0.00     0.235 C  
HETATM   30  C   UNL     1      -8.602   8.231  70.377  1.00  0.00    -0.134 C  
HETATM   31  N   UNL     1      -8.296   7.185  71.382  1.00  0.00    -0.112 NA 
HETATM   32  C   UNL     1      -7.263   7.691  72.313  1.00  0.00    -0.076 C  
HETATM   33  C   UNL     1      -7.620   9.042  72.961  1.00  0.00     0.633 C  
BRANCH  31  34
HETATM   34  C   UNL     1      -9.522   6.719  72.044  1.00  0.00    -0.141 C  
HETATM   35  C   UNL     1     -10.796   7.350  71.494  1.00  0.00    -0.247 C  
ENDBRANCH  31  34
ENDBRANCH  25  28
ENDBRANCH  21  25
ENDBRANCH  11  16
ENDBRANCH   3   4
ENDBRANCH   2   3
TORSDOF 8
ENDMDL
MODEL      228
REMARK 921   NORMALIZED FREE ENERGY PREDICTED BY IDOCK:   10.27 KCAL/MOL
REMARK 922        TOTAL FREE ENERGY PREDICTED BY IDOCK:   14.06 KCAL/MOL
REMARK 923 INTER-LIGAND FREE ENERGY PREDICTED BY IDOCK:    5.35 KCAL/MOL
REMARK 924 INTRA-LIGAND FREE ENERGY PREDICTED BY IDOCK:    8.71 KCAL/MOL
REMARK 927      BINDING AFFINITY PREDICTED BY RF-SCORE:    0.00 PKD
ROOT
HETATM    1  C   UNL     1      -9.557  17.358  65.567  1.00  0.00     0.479 C  
HETATM    2  C   UNL     1      -9.669  16.365  66.717  1.00  0.00    -0.263 C  
ENDROOT
BRANCH   2   3
HETATM    3  C   UNL     1     -11.033  15.676  66.806  1.00  0.00    -0.230 C  
BRANCH   3   4
HETATM    4  C   UNL     1     -11.279  14.714  65.691  1.00  0.00    -0.342 A  
HETATM    5  N   UNL     1     -12.077  14.935  64.663  1.00  0.00    -0.413 NA 
HETATM    6  C   UNL     1     -12.000  13.814  63.873  1.00  0.00    -0.371 A  
HETATM    7  C   UNL     1     -11.145  12.896  64.445  1.00  0.00    -0.361 A  
HETATM    8  C   UNL     1     -12.764  13.716  62.610  1.00  0.00     1.868 C  
HETATM    9  N   UNL     1     -10.690  13.475  65.581  1.00  0.00    -0.277 NA 
HETATM   10  N   UNL     1      -9.760  12.878  66.388  1.00  0.00    -0.260 NA 
HETATM   11  C   UNL     1      -9.476  11.564  66.038  1.00  0.00    -0.229 C  
HETATM   12  N   UNL     1      -9.908  10.964  64.971  1.00  0.00    -0.258 N  
HETATM   13  O   UNL     1     -11.054  11.065  63.003  1.00  0.00     0.120 OA 
HETATM   14  H   UNL     1      -9.640   9.993  64.810  1.00  0.00     0.000 HD 
HETATM   15  C   UNL     1     -10.714  11.592  64.053  1.00  0.00    -0.384 C  
BRANCH  11  16
HETATM   16  C   UNL     1      -8.596  10.754  66.968  1.00  0.00    -0.130 A  
HETATM   17  C   UNL     1      -7.599   8.671  67.740  1.00  0.00    -0.098 A  
HETATM   18  C   UNL     1      -8.428   9.355  66.833  1.00  0.00    -0.127 A  
HETATM   19  C   UNL     1      -7.958  11.425  68.025  1.00  0.00    -0.127 A  
HETATM   20  C   UNL     1      -6.961   9.345  68.778  1.00  0.00    -0.064 A  
HETATM   21  C   UNL     1      -7.145  10.716  68.917  1.00  0.00    -0.078 A  
BRANCH  18  22
HETATM   22  O   UNL     1      -9.069   8.718  65.801  1.00  0.00    -0.200 OA 
BRANCH  22  23
HETATM   23  C   UNL     1      -8.495   7.502  65.317  1.00  0.00    -0.063 C  
HETATM   24  C   UNL     1      -7.523   7.820  64.197  1.00  0.00    -0.105 C  
ENDBRANCH  22  23
ENDBRANCH  18  22
BRANCH  21  25
HETATM   25  S   UNL     1      -6.518  11.519  70.368  1.00  0.00     0.464 S  
HETATM   26  O   UNL     1      -5.230  12.078  70.021  1.00  0.00    -0.074 OA 
HETATM   27  O   UNL     1      -6.651  10.581  71.461  1.00  0.00     0.166 OA 
BRANCH  25  28
HETATM   28  N   UNL     1      -7.610  12.812  70.607  1.00  0.00     3.754 N  
HETATM   29  C   UNL     1      -7.018  14.162  70.876  1.00  0.00     1.057 C  
HETATM   30  C   UNL     1      -6.514  14.856  69.585  1.00  0.00    -0.154 C  
HETATM   31  N   UNL     1      -7.483  14.897  68.465  1.00  0.00    -0.112 NA 
HETATM   32  C   UNL     1      -8.046  13.544  68.257  1.00  0.00    -0.155 C  
HETATM   33  C   UNL     1      -8.647  12.920  69.530  1.00  0.00     1.562 C  
BRANCH  31  34
HETATM   34  C   UNL     1      -8.495  15.939  68.684  1.00  0.00    -0.200 C  
HETATM   35  C   UNL     1      -9.035  15.981  70.109  1.00  0.00     0.960 C  
ENDBRANCH  31  34
ENDBRANCH  25  28
ENDBRANCH  21  25
ENDBRANCH  11  16
ENDBRANCH   3   4
ENDBRANCH   2   3
TORSDOF 8
ENDMDL
MODEL      229
REMARK 921   NORMALIZED FREE ENERGY PREDICTED BY IDOCK:   10.89 KCAL/MOL
REMARK 922        TOTAL FREE ENERGY PREDICTED BY IDOCK:   14.97 KCAL/MOL
REMARK 923 INTER-LIGAND FREE ENERGY PREDICTED BY IDOCK:    5.51 KCAL/MOL
REMARK 924 INTRA-LIGAND FREE ENERGY PREDICTED BY IDOCK:    9.47 KCAL/MOL
REMARK 927      BINDING AFFINITY PREDICTED BY RF-SCORE:    0.00 PKD
ROOT
HETATM    1  C   UNL     1      -9.061   7.574  67.587  1.00  0.00    -0.127 C  
HETATM    2  C   UNL     1      -7.951   6.595  67.224  1.00  0.00    -0.117 C  
ENDROOT
BRANCH   2   3
HETATM    3  C   UNL     1      -7.365   5.852  68.427  1.00  0.00    -0.084 C  
BRANCH   3   4
HETATM    4  C   UNL     1      -6.873   6.767  69.500  1.00  0.00    -0.054 A  
HETATM    5  N   UNL     1      -6.218   6.385  70.580  1.00  0.00    -0.037 NA 
HETATM    6  C   UNL     1      -5.941   7.531  71.283  1.00  0.00    -0.035 A  
HETATM    7  C   UNL     1      -6.451   8.625  70.616  1.00  0.00    -0.040 A  
HETATM    8  C   UNL     1      -5.193   7.482  72.559  1.00  0.00    -0.037 C  
HETATM    9  N   UNL     1      -7.025   8.135  69.492  1.00  0.00    -0.049 NA 
HETATM   10  N   UNL     1      -7.586   8.943  68.541  1.00  0.00    -0.096 NA 
HETATM   11  C   UNL     1      -7.676  10.277  68.923  1.00  0.00    -0.098 C  
HETATM   12  N   UNL     1      -7.160  10.783  70.000  1.00  0.00    -0.313 N  
HETATM   13  O   UNL     1      -5.882  10.508  71.869  1.00  0.00    -0.281 OA 
HETATM   14  H   UNL     1      -7.287  11.778  70.186  1.00  0.00     0.000 HD 
HETATM   15  C   UNL     1      -6.447  10.025  70.897  1.00  0.00     0.001 C  
BRANCH  11  16
HETATM   16  C   UNL     1      -8.439  11.224  68.020  1.00  0.00    -0.138 A  
HETATM   17  C   UNL     1     -10.299  11.795  66.556  1.00  0.00    -0.258 A  
HETATM   18  C   UNL     1      -9.652  10.862  67.384  1.00  0.00    -0.163 A  
HETATM   19  C   UNL     1      -7.892  12.496  67.781  1.00  0.00    -0.151 A  
HETATM   20  C   UNL     1      -9.756  13.057  66.334  1.00  0.00    -0.268 A  
HETATM   21  C   UNL     1      -8.555  13.400  66.944  1.00  0.00    -0.100 A  
BRANCH  18  22
HETATM   22  O   UNL     1     -10.164   9.611  67.621  1.00  0.00    -0.188 OA 
BRANCH  22  23
HETATM   23  C   UNL     1     -11.017   9.452  68.756  1.00  0.00    -0.042 C  
HETATM   24  C   UNL     1     -10.739   8.111  69.407  1.00  0.00    -0.164 C  
ENDBRANCH  22  23
ENDBRANCH  18  22
BRANCH  21  25
HETATM   25  S   UNL     1      -7.759  14.914  66.475  1.00  0.00     1.155 S  
HETATM   26  O   UNL     1      -8.747  15.717  65.788  1.00  0.00    -0.094 OA 
HETATM   27  O   UNL     1      -6.515  14.555  65.831  1.00  0.00     4.906 OA 
BRANCH  25  28
HETATM   28  N   UNL     1      -7.418  15.663  67.974  1.00  0.00    -0.120 N  
HETATM   29  C   UNL     1      -8.164  15.161  69.171  1.00  0.00    -0.214 C  
HETATM   30  C   UNL     1      -7.576  13.837  69.724  1.00  0.00     0.715 C  
HETATM   31  N   UNL     1      -6.112  13.837  69.953  1.00  0.00    -0.134 NA 
HETATM   32  C   UNL     1      -5.430  14.357  68.747  1.00  0.00    -0.088 C  
HETATM   33  C   UNL     1      -5.952  15.730  68.282  1.00  0.00    -0.111 C  
BRANCH  31  34
HETATM   34  C   UNL     1      -5.774  14.557  71.188  1.00  0.00    -0.147 C  
HETATM   35  C   UNL     1      -6.970  14.809  72.100  1.00  0.00     2.480 C  
ENDBRANCH  31  34
ENDBRANCH  25  28
ENDBRANCH  21  25
ENDBRANCH  11  16
ENDBRANCH   3   4
ENDBRANCH   2   3
TORSDOF 8
ENDMDL
MODEL      230
REMARK 921   NORMALIZED FREE ENERGY PREDICTED BY IDOCK:   14.80 KCAL/MOL
REMARK 922        TOTAL FREE ENERGY PREDICTED BY IDOCK:   20.71 KCAL/MOL
REMARK 923 INTER-LIGAND FREE ENERGY PREDICTED BY IDOCK:   19.34 KCAL/MOL
REMARK 924 INTRA-LIGAND FREE ENERGY PREDICTED BY IDOCK:    1.37 KCAL/MOL
REMARK 927      BINDING AFFINITY PREDICTED BY RF-SCORE:    0.00 PKD
ROOT
HETATM    1  C   UNL     1      -6.042  18.603  68.655  1.00  0.00    -0.219 C  
HETATM    2  C   UNL     1      -5.297  18.094  69.883  1.00  0.00    -0.218 C  
ENDROOT
BRANCH   2   3
HETATM    3  C   UNL     1      -6.187  17.350  70.881  1.00  0.00     1.257 C  
BRANCH   3   4
HETATM    4  C   UNL     1      -7.643  17.617  70.682  1.00  0.00     3.886 A  
HETATM    5  N   UNL     1      -8.305  18.632  71.205  1.00  0.00     5.595 NA 
HETATM    6  C   UNL     1      -9.598  18.513  70.760  1.00  0.00     3.461 A  
HETATM    7  C   UNL     1      -9.717  17.395  69.960  1.00  0.00     1.183 A  
HETATM    8  C   UNL     1     -10.632  19.500  71.142  1.00  0.00     2.850 C  
HETATM    9  N   UNL     1      -8.481  16.846  69.909  1.00  0.00     1.087 NA 
HETATM   10  N   UNL     1      -8.197  15.746  69.148  1.00  0.00    -0.233 NA 
HETATM   11  C   UNL     1      -9.320  15.144  68.592  1.00  0.00    -0.199 C  
HETATM   12  N   UNL     1     -10.524  15.625  68.636  1.00  0.00    -0.225 N  
HETATM   13  O   UNL     1     -11.930  17.320  69.226  1.00  0.00     1.355 OA 
HETATM   14  H   UNL     1     -11.280  15.100  68.195  1.00  0.00     0.000 HD 
HETATM   15  C   UNL     1     -10.816  16.816  69.255  1.00  0.00    -0.275 C  
BRANCH  11  16
HETATM   16  C   UNL     1      -9.138  13.820  67.878  1.00  0.00    -0.193 A  
HETATM   17  C   UNL     1      -9.938  11.668  67.069  1.00  0.00    -0.226 A  
HETATM   18  C   UNL     1     -10.186  12.878  67.740  1.00  0.00    -0.224 A  
HETATM   19  C   UNL     1      -7.863  13.510  67.374  1.00  0.00    -0.157 A  
HETATM   20  C   UNL     1      -8.676  11.373  66.562  1.00  0.00    -0.181 A  
HETATM   21  C   UNL     1      -7.645  12.293  66.719  1.00  0.00     0.104 A  
BRANCH  18  22
HETATM   22  O   UNL     1     -11.419  13.196  68.249  1.00  0.00    -0.272 OA 
BRANCH  22  23
HETATM   23  C   UNL     1     -11.813  12.562  69.467  1.00  0.00    -0.310 C  
HETATM   24  C   UNL     1     -11.525  11.076  69.374  1.00  0.00    -0.364 C  
ENDBRANCH  22  23
ENDBRANCH  18  22
BRANCH  21  25
HETATM   25  S   UNL     1      -5.996  11.813  66.277  1.00  0.00     0.608 S  
HETATM   26  O   UNL     1      -5.219  13.026  66.156  1.00  0.00     1.727 OA 
HETATM   27  O   UNL     1      -6.108  10.888  65.170  1.00  0.00    -0.038 OA 
BRANCH  25  28
HETATM   28  N   UNL     1      -5.447  10.968  67.657  1.00  0.00    -0.040 N  
HETATM   29  C   UNL     1      -6.282  11.072  68.896  1.00  0.00    -0.042 C  
HETATM   30  C   UNL     1      -7.525  10.148  68.853  1.00  0.00    -0.086 C  
HETATM   31  N   UNL     1      -7.256   8.736  68.492  1.00  0.00    -0.073 NA 
HETATM   32  C   UNL     1      -6.416   8.695  67.275  1.00  0.00    -0.058 C  
HETATM   33  C   UNL     1      -5.126   9.529  67.383  1.00  0.00    -0.036 C  
BRANCH  31  34
HETATM   34  C   UNL     1      -6.693   8.001  69.633  1.00  0.00    -0.038 C  
HETATM   35  C   UNL     1      -7.014   6.510  69.624  1.00  0.00    -0.067 C  
ENDBRANCH  31  34
ENDBRANCH  25  28
ENDBRANCH  21  25
ENDBRANCH  11  16
ENDBRANCH   3   4
ENDBRANCH   2   3
TORSDOF 8
ENDMDL
MODEL      231
REMARK 921   NORMALIZED FREE ENERGY PREDICTED BY IDOCK:   14.82 KCAL/MOL
REMARK 922        TOTAL FREE ENERGY PREDICTED BY IDOCK:   20.75 KCAL/MOL
REMARK 923 INTER-LIGAND FREE ENERGY PREDICTED BY IDOCK:   18.97 KCAL/MOL
REMARK 924 INTRA-LIGAND FREE ENERGY PREDICTED BY IDOCK:    1.77 KCAL/MOL
REMARK 927      BINDING AFFINITY PREDICTED BY RF-SCORE:    0.00 PKD
ROOT
HETATM    1  C   UNL     1     -11.652  15.736  71.051  1.00  0.00    -0.453 C  
HETATM    2  C   UNL     1     -11.133  14.832  72.163  1.00  0.00     0.615 C  
ENDROOT
BRANCH   2   3
HETATM    3  C   UNL     1      -9.642  14.510  72.052  1.00  0.00     5.573 C  
BRANCH   3   4
HETATM    4  C   UNL     1      -8.977  15.193  70.902  1.00  0.00     2.324 A  
HETATM    5  N   UNL     1      -8.240  16.283  70.993  1.00  0.00     4.165 NA 
HETATM    6  C   UNL     1      -7.811  16.561  69.718  1.00  0.00     0.620 A  
HETATM    7  C   UNL     1      -8.312  15.622  68.841  1.00  0.00    -0.210 A  
HETATM    8  C   UNL     1      -6.938  17.723  69.442  1.00  0.00    -0.080 C  
HETATM    9  N   UNL     1      -9.035  14.762  69.596  1.00  0.00     0.118 NA 
HETATM   10  N   UNL     1      -9.635  13.650  69.072  1.00  0.00     0.122 NA 
HETATM   11  C   UNL     1      -9.593  13.593  67.684  1.00  0.00    -0.221 C  
HETATM   12  N   UNL     1      -8.932  14.409  66.922  1.00  0.00    -0.242 N  
HETATM   13  O   UNL     1      -7.486  16.161  66.727  1.00  0.00    -0.225 OA 
HETATM   14  H   UNL     1      -8.970  14.278  65.911  1.00  0.00     0.000 HD 
HETATM   15  C   UNL     1      -8.183  15.442  67.430  1.00  0.00    -0.183 C  
BRANCH  11  16
HETATM   16  C   UNL     1     -10.380  12.498  66.993  1.00  0.00    -0.236 A  
HETATM   17  C   UNL     1     -12.282  10.990  66.799  1.00  0.00     2.210 A  
HETATM   18  C   UNL     1     -11.612  12.013  67.493  1.00  0.00    -0.330 A  
HETATM   19  C   UNL     1      -9.835  11.923  65.832  1.00  0.00    -0.261 A  
HETATM   20  C   UNL     1     -11.740  10.434  65.643  1.00  0.00     2.445 A  
HETATM   21  C   UNL     1     -10.520  10.900  65.167  1.00  0.00    -0.246 A  
BRANCH  18  22
HETATM   22  O   UNL     1     -12.121  12.580  68.634  1.00  0.00    -0.266 OA 
BRANCH  22  23
HETATM   23  C   UNL     1     -12.426  11.709  69.725  1.00  0.00    -0.025 C  
HETATM   24  C   UNL     1     -13.516  12.334  70.574  1.00  0.00     1.365 C  
ENDBRANCH  22  23
ENDBRANCH  18  22
BRANCH  21  25
HETATM   25  S   UNL     1      -9.734  10.032  63.836  1.00  0.00     0.147 S  
HETATM   26  O   UNL     1     -10.048  10.749  62.619  1.00  0.00    -0.154 OA 
HETATM   27  O   UNL     1     -10.074   8.635  63.984  1.00  0.00     2.940 OA 
BRANCH  25  28
HETATM   28  N   UNL     1      -8.068  10.239  64.158  1.00  0.00    -0.155 N  
HETATM   29  C   UNL     1      -7.700  10.863  65.469  1.00  0.00     0.057 C  
HETATM   30  C   UNL     1      -7.780   9.857  66.646  1.00  0.00    -0.106 C  
HETATM   31  N   UNL     1      -7.073   8.572  66.434  1.00  0.00    -0.078 NA 
HETATM   32  C   UNL     1      -7.460   8.013  65.119  1.00  0.00    -0.085 C  
HETATM   33  C   UNL     1      -7.264   8.992  63.947  1.00  0.00    -0.096 C  
BRANCH  31  34
HETATM   34  C   UNL     1      -5.623   8.735  66.611  1.00  0.00    -0.040 C  
HETATM   35  C   UNL     1      -5.137   8.428  68.023  1.00  0.00    -0.034 C  
ENDBRANCH  31  34
ENDBRANCH  25  28
ENDBRANCH  21  25
ENDBRANCH  11  16
ENDBRANCH   3   4
ENDBRANCH   2   3
TORSDOF 8
ENDMDL
MODEL      232
REMARK 921   NORMALIZED FREE ENERGY PREDICTED BY IDOCK:   16.06 KCAL/MOL
REMARK 922        TOTAL FREE ENERGY PREDICTED BY IDOCK:   22.56 KCAL/MOL
REMARK 923 INTER-LIGAND FREE ENERGY PREDICTED BY IDOCK:   10.35 KCAL/MOL
REMARK 924 INTRA-LIGAND FREE ENERGY PREDICTED BY IDOCK:   12.21 KCAL/MOL
REMARK 927      BINDING AFFINITY PREDICTED BY RF-SCORE:    0.00 PKD
ROOT
HETATM    1  C   UNL     1     -11.013  17.063  69.471  1.00  0.00     0.072 C  
HETATM    2  C   UNL     1     -11.459  16.005  68.469  1.00  0.00    -0.357 C  
ENDROOT
BRANCH   2   3
HETATM    3  C   UNL     1     -10.495  15.823  67.294  1.00  0.00    -0.308 C  
BRANCH   3   4
HETATM    4  C   UNL     1     -11.132  15.177  66.108  1.00  0.00    -0.311 A  
HETATM    5  N   UNL     1     -12.110  15.701  65.395  1.00  0.00     0.530 NA 
HETATM    6  C   UNL     1     -12.381  14.796  64.397  1.00  0.00    -0.368 A  
HETATM    7  C   UNL     1     -11.554  13.700  64.522  1.00  0.00    -0.390 A  
HETATM    8  C   UNL     1     -13.428  15.064  63.387  1.00  0.00     3.730 C  
HETATM    9  N   UNL     1     -10.766  13.954  65.593  1.00  0.00    -0.283 NA 
HETATM   10  N   UNL     1      -9.766  13.107  65.987  1.00  0.00    -0.261 NA 
HETATM   11  C   UNL     1      -9.761  11.894  65.309  1.00  0.00    -0.192 C  
HETATM   12  N   UNL     1     -10.513  11.602  64.293  1.00  0.00    -0.303 N  
HETATM   13  O   UNL     1     -12.065  12.261  62.759  1.00  0.00     0.116 OA 
HETATM   14  H   UNL     1     -10.430  10.678  63.869  1.00  0.00     0.000 HD 
HETATM   15  C   UNL     1     -11.416  12.494  63.769  1.00  0.00    -0.469 C  
BRANCH  11  16
HETATM   16  C   UNL     1      -8.809  10.816  65.787  1.00  0.00    -0.201 A  
HETATM   17  C   UNL     1      -7.908   8.554  65.759  1.00  0.00    -0.100 A  
HETATM   18  C   UNL     1      -8.819   9.502  65.260  1.00  0.00    -0.184 A  
HETATM   19  C   UNL     1      -7.913  11.136  66.821  1.00  0.00    -0.156 A  
HETATM   20  C   UNL     1      -7.015   8.883  66.776  1.00  0.00    -0.077 A  
HETATM   21  C   UNL     1      -7.024  10.169  67.303  1.00  0.00    -0.083 A  
BRANCH  18  22
HETATM   22  O   UNL     1      -9.709   9.207  64.259  1.00  0.00     0.523 OA 
BRANCH  22  23
HETATM   23  C   UNL     1     -10.904   9.987  64.188  1.00  0.00     2.410 C  
HETATM   24  C   UNL     1     -11.313  10.144  62.737  1.00  0.00     3.896 C  
ENDBRANCH  22  23
ENDBRANCH  18  22
BRANCH  21  25
HETATM   25  S   UNL     1      -6.049  10.508  68.746  1.00  0.00    -0.039 S  
HETATM   26  O   UNL     1      -5.155  11.593  68.408  1.00  0.00    -0.040 OA 
HETATM   27  O   UNL     1      -5.535   9.240  69.215  1.00  0.00    -0.035 OA 
BRANCH  25  28
HETATM   28  N   UNL     1      -7.196  11.096  69.869  1.00  0.00     0.046 N  
HETATM   29  C   UNL     1      -8.605  11.251  69.385  1.00  0.00     0.398 C  
HETATM   30  C   UNL     1      -9.369   9.902  69.345  1.00  0.00    -0.214 C  
HETATM   31  N   UNL     1      -9.303   9.096  70.586  1.00  0.00    -0.237 NA 
HETATM   32  C   UNL     1      -7.893   8.992  71.025  1.00  0.00    -0.142 C  
HETATM   33  C   UNL     1      -7.187  10.352  71.170  1.00  0.00     1.510 C  
BRANCH  31  34
HETATM   34  C   UNL     1     -10.210   9.632  71.610  1.00  0.00     0.453 C  
HETATM   35  C   UNL     1     -10.997  10.857  71.154  1.00  0.00     1.414 C  
ENDBRANCH  31  34
ENDBRANCH  25  28
ENDBRANCH  21  25
ENDBRANCH  11  16
ENDBRANCH   3   4
ENDBRANCH   2   3
TORSDOF 8
ENDMDL
MODEL      233
REMARK 921   NORMALIZED FREE ENERGY PREDICTED BY IDOCK:   17.56 KCAL/MOL
REMARK 922        TOTAL FREE ENERGY PREDICTED BY IDOCK:   24.76 KCAL/MOL
REMARK 923 INTER-LIGAND FREE ENERGY PREDICTED BY IDOCK:   20.69 KCAL/MOL
REMARK 924 INTRA-LIGAND FREE ENERGY PREDICTED BY IDOCK:    4.07 KCAL/MOL
REMARK 927      BINDING AFFINITY PREDICTED BY RF-SCORE:    0.00 PKD
ROOT
HETATM    1  C   UNL     1     -10.939   8.918  71.020  1.00  0.00    -0.341 C  
HETATM    2  C   UNL     1      -9.993   9.224  69.865  1.00  0.00    -0.226 C  
ENDROOT
BRANCH   2   3
HETATM    3  C   UNL     1      -9.795  10.720  69.608  1.00  0.00     0.041 C  
BRANCH   3   4
HETATM    4  C   UNL     1     -10.224  11.143  68.242  1.00  0.00    -0.182 A  
HETATM    5  N   UNL     1     -10.860  10.376  67.376  1.00  0.00    -0.289 NA 
HETATM    6  C   UNL     1     -11.078  11.154  66.266  1.00  0.00    -0.111 A  
HETATM    7  C   UNL     1     -10.552  12.413  66.466  1.00  0.00    -0.235 A  
HETATM    8  C   UNL     1     -11.789  10.617  65.084  1.00  0.00     2.317 C  
HETATM    9  N   UNL     1     -10.027  12.399  67.713  1.00  0.00    -0.200 NA 
HETATM   10  N   UNL     1      -9.469  13.507  68.289  1.00  0.00    -0.213 NA 
HETATM   11  C   UNL     1      -9.322  14.577  67.414  1.00  0.00    -0.197 C  
HETATM   12  N   UNL     1      -9.790  14.624  66.205  1.00  0.00    -0.296 N  
HETATM   13  O   UNL     1     -11.020  13.655  64.548  1.00  0.00    -0.375 OA 
HETATM   14  H   UNL     1      -9.623  15.461  65.645  1.00  0.00     0.000 HD 
HETATM   15  C   UNL     1     -10.500  13.586  65.652  1.00  0.00    -0.293 C  
BRANCH  11  16
HETATM   16  C   UNL     1      -8.555  15.791  67.898  1.00  0.00    -0.160 A  
HETATM   17  C   UNL     1      -6.537  16.910  68.675  1.00  0.00    -0.173 A  
HETATM   18  C   UNL     1      -7.179  15.742  68.227  1.00  0.00    -0.116 A  
HETATM   19  C   UNL     1      -9.258  16.997  68.060  1.00  0.00    -0.241 A  
HETATM   20  C   UNL     1      -7.238  18.104  68.821  1.00  0.00    -0.287 A  
HETATM   21  C   UNL     1      -8.594  18.141  68.516  1.00  0.00    -0.294 A  
BRANCH  18  22
HETATM   22  O   UNL     1      -6.514  14.552  68.073  1.00  0.00    -0.120 OA 
BRANCH  22  23
HETATM   23  C   UNL     1      -5.346  14.340  68.869  1.00  0.00    -0.087 C  
HETATM   24  C   UNL     1      -5.226  15.457  69.887  1.00  0.00    -0.102 C  
ENDBRANCH  22  23
ENDBRANCH  18  22
BRANCH  21  25
HETATM   25  S   UNL     1      -9.522  19.596  68.924  1.00  0.00    -0.242 S  
HETATM   26  O   UNL     1      -9.404  20.501  67.802  1.00  0.00    -0.303 OA 
HETATM   27  O   UNL     1      -9.112  20.000  70.250  1.00  0.00     0.721 OA 
BRANCH  25  28
HETATM   28  N   UNL     1     -11.134  19.033  68.984  1.00  0.00     1.445 N  
HETATM   29  C   UNL     1     -11.349  17.562  68.800  1.00  0.00     0.811 C  
HETATM   30  C   UNL     1     -11.043  16.753  70.086  1.00  0.00     0.096 C  
HETATM   31  N   UNL     1     -11.694  17.251  71.321  1.00  0.00     1.514 NA 
HETATM   32  C   UNL     1     -11.463  18.708  71.441  1.00  0.00     5.854 C  
HETATM   33  C   UNL     1     -11.884  19.507  70.193  1.00  0.00     8.495 C  
BRANCH  31  34
HETATM   34  C   UNL     1     -13.110  16.864  71.360  1.00  0.00     4.966 C  
HETATM   35  C   UNL     1     -13.461  15.929  72.512  1.00  0.00    -0.486 C  
ENDBRANCH  31  34
ENDBRANCH  25  28
ENDBRANCH  21  25
ENDBRANCH  11  16
ENDBRANCH   3   4
ENDBRANCH   2   3
TORSDOF 8
ENDMDL
MODEL      234
REMARK 921   NORMALIZED FREE ENERGY PREDICTED BY IDOCK:   18.24 KCAL/MOL
REMARK 922        TOTAL FREE ENERGY PREDICTED BY IDOCK:   25.76 KCAL/MOL
REMARK 923 INTER-LIGAND FREE ENERGY PREDICTED BY IDOCK:   19.84 KCAL/MOL
REMARK 924 INTRA-LIGAND FREE ENERGY PREDICTED BY IDOCK:    5.92 KCAL/MOL
REMARK 927      BINDING AFFINITY PREDICTED BY RF-SCORE:    0.00 PKD
ROOT
HETATM    1  C   UNL     1     -11.622  10.978  70.136  1.00  0.00    -0.421 C  
HETATM    2  C   UNL     1     -11.351  11.467  68.719  1.00  0.00    -0.334 C  
ENDROOT
BRANCH   2   3
HETATM    3  C   UNL     1     -11.031  12.961  68.632  1.00  0.00    -0.295 C  
BRANCH   3   4
HETATM    4  C   UNL     1     -11.123  13.501  67.243  1.00  0.00    -0.286 A  
HETATM    5  N   UNL     1     -11.803  12.945  66.258  1.00  0.00    -0.398 NA 
HETATM    6  C   UNL     1     -11.638  13.767  65.170  1.00  0.00    -0.331 A  
HETATM    7  C   UNL     1     -10.833  14.834  65.507  1.00  0.00    -0.351 A  
HETATM    8  C   UNL     1     -12.281  13.457  63.874  1.00  0.00    -0.478 C  
HETATM    9  N   UNL     1     -10.523  14.664  66.814  1.00  0.00    -0.274 NA 
HETATM   10  N   UNL     1      -9.783  15.573  67.519  1.00  0.00    -0.214 NA 
HETATM   11  C   UNL     1      -9.229  16.574  66.731  1.00  0.00    -0.234 C  
HETATM   12  N   UNL     1      -9.481  16.761  65.472  1.00  0.00     0.154 N  
HETATM   13  O   UNL     1     -10.662  16.180  63.610  1.00  0.00     0.943 OA 
HETATM   14  H   UNL     1      -9.017  17.528  64.985  1.00  0.00     0.000 HD 
HETATM   15  C   UNL     1     -10.351  15.960  64.772  1.00  0.00     0.198 C  
BRANCH  11  16
HETATM   16  C   UNL     1      -8.249  17.530  67.380  1.00  0.00    -0.217 A  
HETATM   17  C   UNL     1      -6.065  18.589  67.579  1.00  0.00    -0.175 A  
HETATM   18  C   UNL     1      -6.919  17.687  66.920  1.00  0.00    -0.185 A  
HETATM   19  C   UNL     1      -8.676  18.252  68.507  1.00  0.00    -0.325 A  
HETATM   20  C   UNL     1      -6.501  19.310  68.687  1.00  0.00    -0.286 A  
HETATM   21  C   UNL     1      -7.801  19.137  69.147  1.00  0.00    -0.184 A  
BRANCH  18  22
HETATM   22  O   UNL     1      -6.518  16.963  65.826  1.00  0.00     0.164 OA 
BRANCH  22  23
HETATM   23  C   UNL     1      -6.305  17.675  64.606  1.00  0.00     2.324 C  
HETATM   24  C   UNL     1      -5.287  18.774  64.839  1.00  0.00    -0.235 C  
ENDBRANCH  22  23
ENDBRANCH  18  22
BRANCH  21  25
HETATM   25  S   UNL     1      -8.269  19.881  70.687  1.00  0.00     2.053 S  
HETATM   26  O   UNL     1      -8.030  21.302  70.562  1.00  0.00     3.352 OA 
HETATM   27  O   UNL     1      -7.640  19.111  71.737  1.00  0.00     3.659 OA 
BRANCH  25  28
HETATM   28  N   UNL     1      -9.959  19.632  70.749  1.00  0.00     1.205 N  
HETATM   29  C   UNL     1     -10.619  19.123  69.504  1.00  0.00     0.954 C  
HETATM   30  C   UNL     1     -10.424  17.597  69.312  1.00  0.00    -0.026 C  
HETATM   31  N   UNL     1     -10.757  16.760  70.488  1.00  0.00     0.154 NA 
HETATM   32  C   UNL     1     -10.094  17.319  71.688  1.00  0.00     5.125 C  
HETATM   33  C   UNL     1     -10.396  18.811  71.924  1.00  0.00     3.813 C  
BRANCH  31  34
HETATM   34  C   UNL     1     -12.211  16.604  70.626  1.00  0.00     1.438 C  
HETATM   35  C   UNL     1     -12.646  15.191  70.999  1.00  0.00    -0.441 C  
ENDBRANCH  31  34
ENDBRANCH  25  28
ENDBRANCH  21  25
ENDBRANCH  11  16
ENDBRANCH   3   4
ENDBRANCH   2   3
TORSDOF 8
ENDMDL
MODEL      235
REMARK 921   NORMALIZED FREE ENERGY PREDICTED BY IDOCK:   19.26 KCAL/MOL
REMARK 922        TOTAL FREE ENERGY PREDICTED BY IDOCK:   27.26 KCAL/MOL
REMARK 923 INTER-LIGAND FREE ENERGY PREDICTED BY IDOCK:   22.27 KCAL/MOL
REMARK 924 INTRA-LIGAND FREE ENERGY PREDICTED BY IDOCK:    4.99 KCAL/MOL
REMARK 927      BINDING AFFINITY PREDICTED BY RF-SCORE:    0.00 PKD
ROOT
HETATM    1  C   UNL     1     -12.021   8.274  74.245  1.00  0.00     7.284 C  
HETATM    2  C   UNL     1     -10.857   8.289  73.262  1.00  0.00     0.404 C  
ENDROOT
BRANCH   2   3
HETATM    3  C   UNL     1     -11.255   8.689  71.839  1.00  0.00    -0.413 C  
BRANCH   3   4
HETATM    4  C   UNL     1     -10.233   9.541  71.161  1.00  0.00    -0.230 A  
HETATM    5  N   UNL     1      -9.931  10.779  71.504  1.00  0.00     3.925 NA 
HETATM    6  C   UNL     1      -8.940  11.181  70.643  1.00  0.00     4.146 A  
HETATM    7  C   UNL     1      -8.649  10.166  69.756  1.00  0.00    -0.128 A  
HETATM    8  C   UNL     1      -8.341  12.531  70.746  1.00  0.00     7.830 C  
HETATM    9  N   UNL     1      -9.459   9.137  70.097  1.00  0.00    -0.192 NA 
HETATM   10  N   UNL     1      -9.406   7.922  69.470  1.00  0.00    -0.156 NA 
HETATM   11  C   UNL     1      -8.589   7.907  68.347  1.00  0.00    -0.128 C  
HETATM   12  N   UNL     1      -7.814   8.878  67.973  1.00  0.00    -0.101 N  
HETATM   13  O   UNL     1      -6.930  10.940  68.382  1.00  0.00    -0.066 OA 
HETATM   14  H   UNL     1      -7.255   8.763  67.127  1.00  0.00     0.000 HD 
HETATM   15  C   UNL     1      -7.722  10.054  68.675  1.00  0.00    -0.086 C  
BRANCH  11  16
HETATM   16  C   UNL     1      -8.596   6.665  67.478  1.00  0.00    -0.120 A  
HETATM   17  C   UNL     1      -9.369   5.358  65.575  1.00  0.00    -0.055 A  
HETATM   18  C   UNL     1      -9.413   6.544  66.328  1.00  0.00    -0.083 A  
HETATM   19  C   UNL     1      -7.786   5.583  67.864  1.00  0.00    -0.096 A  
HETATM   20  C   UNL     1      -8.555   4.295  65.957  1.00  0.00    -0.113 A  
HETATM   21  C   UNL     1      -7.771   4.411  67.100  1.00  0.00    -0.089 A  
BRANCH  18  22
HETATM   22  O   UNL     1     -10.204   7.608  65.975  1.00  0.00     0.242 OA 
BRANCH  22  23
HETATM   23  C   UNL     1      -9.681   8.920  66.191  1.00  0.00    -0.268 C  
HETATM   24  C   UNL     1      -9.736   9.699  64.891  1.00  0.00    -0.174 C  
ENDBRANCH  22  23
ENDBRANCH  18  22
BRANCH  21  25
HETATM   25  S   UNL     1      -6.919   2.977  67.702  1.00  0.00    -0.050 S  
HETATM   26  O   UNL     1      -5.561   3.380  67.990  1.00  0.00    -0.016 OA 
HETATM   27  O   UNL     1      -7.194   1.903  66.774  1.00  0.00    -0.053 OA 
BRANCH  25  28
HETATM   28  N   UNL     1      -7.701   2.647  69.186  1.00  0.00    -0.046 N  
HETATM   29  C   UNL     1      -7.647   3.714  70.235  1.00  0.00    -0.044 C  
HETATM   30  C   UNL     1      -8.668   4.852  69.977  1.00  0.00    -0.094 C  
HETATM   31  N   UNL     1     -10.058   4.412  69.715  1.00  0.00    -0.149 NA 
HETATM   32  C   UNL     1     -10.048   3.349  68.685  1.00  0.00     0.735 C  
HETATM   33  C   UNL     1      -9.113   2.171  69.019  1.00  0.00    -0.125 C  
BRANCH  31  34
HETATM   34  C   UNL     1     -10.732   4.030  70.963  1.00  0.00     1.033 C  
HETATM   35  C   UNL     1     -10.140   4.684  72.207  1.00  0.00    -0.250 C  
ENDBRANCH  31  34
ENDBRANCH  25  28
ENDBRANCH  21  25
ENDBRANCH  11  16
ENDBRANCH   3   4
ENDBRANCH   2   3
TORSDOF 8
ENDMDL
MODEL      236
REMARK 921   NORMALIZED FREE ENERGY PREDICTED BY IDOCK:   23.25 KCAL/MOL
REMARK 922        TOTAL FREE ENERGY PREDICTED BY IDOCK:   33.11 KCAL/MOL
REMARK 923 INTER-LIGAND FREE ENERGY PREDICTED BY IDOCK:   22.51 KCAL/MOL
REMARK 924 INTRA-LIGAND FREE ENERGY PREDICTED BY IDOCK:   10.60 KCAL/MOL
REMARK 927      BINDING AFFINITY PREDICTED BY RF-SCORE:    0.00 PKD
ROOT
HETATM    1  C   UNL     1     -12.025   8.276  74.251  1.00  0.00     7.284 C  
HETATM    2  C   UNL     1     -10.867   8.301  73.260  1.00  0.00     0.404 C  
ENDROOT
BRANCH   2   3
HETATM    3  C   UNL     1     -11.274   8.720  71.846  1.00  0.00    -0.438 C  
BRANCH   3   4
HETATM    4  C   UNL     1     -10.219   9.508  71.141  1.00  0.00    -0.230 A  
HETATM    5  N   UNL     1      -9.826  10.721  71.481  1.00  0.00     4.219 NA 
HETATM    6  C   UNL     1      -8.837  11.065  70.593  1.00  0.00     3.688 A  
HETATM    7  C   UNL     1      -8.640  10.039  69.692  1.00  0.00    -0.184 A  
HETATM    8  C   UNL     1      -8.148  12.371  70.684  1.00  0.00     6.117 C  
HETATM    9  N   UNL     1      -9.506   9.062  70.052  1.00  0.00    -0.176 NA 
HETATM   10  N   UNL     1      -9.551   7.851  69.418  1.00  0.00    -0.160 NA 
HETATM   11  C   UNL     1      -8.771   7.791  68.269  1.00  0.00    -0.127 C  
HETATM   12  N   UNL     1      -7.945   8.712  67.877  1.00  0.00    -0.106 N  
HETATM   13  O   UNL     1      -6.917  10.709  68.270  1.00  0.00    -0.070 OA 
HETATM   14  H   UNL     1      -7.420   8.567  67.014  1.00  0.00     0.000 HD 
HETATM   15  C   UNL     1      -7.755   9.875  68.583  1.00  0.00    -0.081 C  
BRANCH  11  16
HETATM   16  C   UNL     1      -8.885   6.559  67.395  1.00  0.00    -0.115 A  
HETATM   17  C   UNL     1      -9.791   5.322  65.503  1.00  0.00     0.071 A  
HETATM   18  C   UNL     1      -9.733   6.504  66.262  1.00  0.00    -0.010 A  
HETATM   19  C   UNL     1      -8.146   5.420  67.756  1.00  0.00    -0.100 A  
HETATM   20  C   UNL     1      -9.046   4.202  65.861  1.00  0.00    -0.136 A  
HETATM   21  C   UNL     1      -8.230   4.255  66.986  1.00  0.00    -0.101 A  
BRANCH  18  22
HETATM   22  O   UNL     1     -10.455   7.623  65.934  1.00  0.00     0.839 OA 
BRANCH  22  23
HETATM   23  C   UNL     1      -9.836   8.893  66.144  1.00  0.00    -0.256 C  
HETATM   24  C   UNL     1      -9.864   9.684  64.850  1.00  0.00    -0.067 C  
ENDBRANCH  22  23
ENDBRANCH  18  22
BRANCH  21  25
HETATM   25  S   UNL     1      -7.470   2.760  67.562  1.00  0.00    -0.057 S  
HETATM   26  O   UNL     1      -7.871   2.584  68.940  1.00  0.00    -0.049 OA 
HETATM   27  O   UNL     1      -6.073   2.829  67.197  1.00  0.00    -0.023 OA 
BRANCH  25  28
HETATM   28  N   UNL     1      -8.231   1.545  66.629  1.00  0.00    -0.075 N  
HETATM   29  C   UNL     1      -9.726   1.485  66.679  1.00  0.00     0.561 C  
HETATM   30  C   UNL     1     -10.393   2.559  65.782  1.00  0.00     1.741 C  
HETATM   31  N   UNL     1      -9.894   2.622  64.388  1.00  0.00    -0.114 NA 
HETATM   32  C   UNL     1      -8.414   2.662  64.400  1.00  0.00    -0.087 C  
HETATM   33  C   UNL     1      -7.770   1.516  65.203  1.00  0.00    -0.063 C  
BRANCH  31  34
HETATM   34  C   UNL     1     -10.456   1.532  63.579  1.00  0.00    -0.116 C  
HETATM   35  C   UNL     1     -11.795   1.873  62.933  1.00  0.00     0.530 C  
ENDBRANCH  31  34
ENDBRANCH  25  28
ENDBRANCH  21  25
ENDBRANCH  11  16
ENDBRANCH   3   4
ENDBRANCH   2   3
TORSDOF 8
ENDMDL
MODEL      237
REMARK 921   NORMALIZED FREE ENERGY PREDICTED BY IDOCK:   24.63 KCAL/MOL
REMARK 922        TOTAL FREE ENERGY PREDICTED BY IDOCK:   35.14 KCAL/MOL
REMARK 923 INTER-LIGAND FREE ENERGY PREDICTED BY IDOCK:   33.54 KCAL/MOL
REMARK 924 INTRA-LIGAND FREE ENERGY PREDICTED BY IDOCK:    1.60 KCAL/MOL
REMARK 927      BINDING AFFINITY PREDICTED BY RF-SCORE:    0.00 PKD
ROOT
HETATM    1  C   UNL     1     -13.391  15.118  65.380  1.00  0.00     1.442 C  
HETATM    2  C   UNL     1     -12.008  15.669  65.707  1.00  0.00     0.705 C  
ENDROOT
BRANCH   2   3
HETATM    3  C   UNL     1     -10.863  14.877  65.073  1.00  0.00    -0.439 C  
BRANCH   3   4
HETATM    4  C   UNL     1      -9.768  14.555  66.036  1.00  0.00    -0.303 A  
HETATM    5  N   UNL     1      -8.695  15.297  66.238  1.00  0.00    -0.239 NA 
HETATM    6  C   UNL     1      -7.965  14.654  67.208  1.00  0.00    -0.197 A  
HETATM    7  C   UNL     1      -8.609  13.496  67.588  1.00  0.00    -0.185 A  
HETATM    8  C   UNL     1      -6.688  15.216  67.701  1.00  0.00    -0.201 C  
HETATM    9  N   UNL     1      -9.745  13.448  66.854  1.00  0.00    -0.246 NA 
HETATM   10  N   UNL     1     -10.679  12.461  67.009  1.00  0.00    -0.235 NA 
HETATM   11  C   UNL     1     -10.268  11.427  67.841  1.00  0.00    -0.182 C  
HETATM   12  N   UNL     1      -9.178  11.422  68.545  1.00  0.00    -0.192 N  
HETATM   13  O   UNL     1      -7.312  12.518  69.262  1.00  0.00     0.048 OA 
HETATM   14  H   UNL     1      -8.969  10.608  69.123  1.00  0.00     0.000 HD 
HETATM   15  C   UNL     1      -8.295  12.474  68.537  1.00  0.00    -0.069 C  
BRANCH  11  16
HETATM   16  C   UNL     1     -11.151  10.200  67.941  1.00  0.00    -0.303 A  
HETATM   17  C   UNL     1     -13.113   8.888  67.340  1.00  0.00    15.215 A  
HETATM   18  C   UNL     1     -12.342  10.054  67.189  1.00  0.00     5.590 A  
HETATM   19  C   UNL     1     -10.784   9.192  68.849  1.00  0.00    -0.167 A  
HETATM   20  C   UNL     1     -12.736   7.889  68.233  1.00  0.00     7.964 A  
HETATM   21  C   UNL     1     -11.577   8.047  68.985  1.00  0.00     1.068 A  
BRANCH  18  22
HETATM   22  O   UNL     1     -12.688  11.055  66.316  1.00  0.00     3.229 OA 
BRANCH  22  23
HETATM   23  C   UNL     1     -12.322  10.890  64.945  1.00  0.00     3.019 C  
HETATM   24  C   UNL     1     -10.828  10.651  64.851  1.00  0.00     0.078 C  
ENDBRANCH  22  23
ENDBRANCH  18  22
BRANCH  21  25
HETATM   25  S   UNL     1     -11.232   6.884  70.278  1.00  0.00    -0.327 S  
HETATM   26  O   UNL     1     -11.033   5.597  69.648  1.00  0.00    -0.348 OA 
HETATM   27  O   UNL     1     -12.246   7.067  71.292  1.00  0.00    -0.339 OA 
BRANCH  25  28
HETATM   28  N   UNL     1      -9.726   7.411  70.893  1.00  0.00    -0.170 N  
HETATM   29  C   UNL     1      -9.396   7.031  72.303  1.00  0.00    -0.136 C  
HETATM   30  C   UNL     1      -8.907   5.565  72.423  1.00  0.00    -0.135 C  
HETATM   31  N   UNL     1      -7.827   5.176  71.486  1.00  0.00    -0.108 NA 
HETATM   32  C   UNL     1      -8.199   5.590  70.114  1.00  0.00    -0.102 C  
HETATM   33  C   UNL     1      -8.571   7.080  69.996  1.00  0.00    -0.141 C  
BRANCH  31  34
HETATM   34  C   UNL     1      -6.528   5.695  71.936  1.00  0.00    -0.052 C  
HETATM   35  C   UNL     1      -5.378   4.710  71.762  1.00  0.00    -0.004 C  
ENDBRANCH  31  34
ENDBRANCH  25  28
ENDBRANCH  21  25
ENDBRANCH  11  16
ENDBRANCH   3   4
ENDBRANCH   2   3
TORSDOF 8
ENDMDL
MODEL      238
REMARK 921   NORMALIZED FREE ENERGY PREDICTED BY IDOCK:   26.76 KCAL/MOL
REMARK 922        TOTAL FREE ENERGY PREDICTED BY IDOCK:   38.27 KCAL/MOL
REMARK 923 INTER-LIGAND FREE ENERGY PREDICTED BY IDOCK:   38.66 KCAL/MOL
REMARK 924 INTRA-LIGAND FREE ENERGY PREDICTED BY IDOCK:   -0.39 KCAL/MOL
REMARK 927      BINDING AFFINITY PREDICTED BY RF-SCORE:    0.00 PKD
ROOT
HETATM    1  C   UNL     1      -5.884  13.955  63.756  1.00  0.00    21.244 C  
HETATM    2  C   UNL     1      -6.816  13.621  62.597  1.00  0.00    15.049 C  
ENDROOT
BRANCH   2   3
HETATM    3  C   UNL     1      -7.274  12.161  62.574  1.00  0.00     2.729 C  
BRANCH   3   4
HETATM    4  C   UNL     1      -8.569  11.940  63.284  1.00  0.00     1.063 A  
HETATM    5  N   UNL     1      -9.670  12.639  63.083  1.00  0.00     0.372 NA 
HETATM    6  C   UNL     1     -10.619  12.101  63.917  1.00  0.00    -0.415 A  
HETATM    7  C   UNL     1     -10.072  11.063  64.642  1.00  0.00    -0.311 A  
HETATM    8  C   UNL     1     -12.000  12.634  63.949  1.00  0.00    -0.558 C  
HETATM    9  N   UNL     1      -8.787  10.964  64.229  1.00  0.00    -0.108 NA 
HETATM   10  N   UNL     1      -7.941   9.991  64.687  1.00  0.00    -0.141 NA 
HETATM   11  C   UNL     1      -8.462   9.246  65.739  1.00  0.00    -0.135 C  
HETATM   12  N   UNL     1      -9.679   9.325  66.180  1.00  0.00    -0.260 N  
HETATM   13  O   UNL     1     -11.776  10.199  65.980  1.00  0.00     1.382 OA 
HETATM   14  H   UNL     1      -9.959   8.733  66.962  1.00  0.00     0.000 HD 
HETATM   15  C   UNL     1     -10.604  10.180  65.631  1.00  0.00     0.089 C  
BRANCH  11  16
HETATM   16  C   UNL     1      -7.544   8.263  66.437  1.00  0.00    -0.091 A  
HETATM   17  C   UNL     1      -6.159   6.262  66.499  1.00  0.00    -0.029 A  
HETATM   18  C   UNL     1      -6.999   7.132  65.783  1.00  0.00    -0.061 A  
HETATM   19  C   UNL     1      -7.263   8.472  67.798  1.00  0.00    -0.084 A  
HETATM   20  C   UNL     1      -5.876   6.482  67.845  1.00  0.00    -0.019 A  
HETATM   21  C   UNL     1      -6.431   7.583  68.487  1.00  0.00    -0.045 A  
BRANCH  18  22
HETATM   22  O   UNL     1      -7.295   6.941  64.457  1.00  0.00    -0.077 OA 
BRANCH  22  23
HETATM   23  C   UNL     1      -6.205   6.925  63.533  1.00  0.00    -0.043 C  
HETATM   24  C   UNL     1      -6.346   5.728  62.614  1.00  0.00    -0.025 C  
ENDBRANCH  22  23
ENDBRANCH  18  22
BRANCH  21  25
HETATM   25  S   UNL     1      -6.252   7.726  70.246  1.00  0.00    -0.033 S  
HETATM   26  O   UNL     1      -6.273   9.137  70.561  1.00  0.00    -0.039 OA 
HETATM   27  O   UNL     1      -5.130   6.895  70.625  1.00  0.00    -0.018 OA 
BRANCH  25  28
HETATM   28  N   UNL     1      -7.692   7.027  70.847  1.00  0.00    -0.093 N  
HETATM   29  C   UNL     1      -7.819   5.538  70.749  1.00  0.00    -0.092 C  
HETATM   30  C   UNL     1      -7.025   4.802  71.859  1.00  0.00    -0.060 C  
HETATM   31  N   UNL     1      -7.267   5.282  73.240  1.00  0.00    -0.088 NA 
HETATM   32  C   UNL     1      -7.146   6.757  73.272  1.00  0.00    -0.075 C  
HETATM   33  C   UNL     1      -8.033   7.474  72.237  1.00  0.00    -0.102 C  
BRANCH  31  34
HETATM   34  C   UNL     1      -8.546   4.776  73.755  1.00  0.00    -0.103 C  
HETATM   35  C   UNL     1      -9.450   5.860  74.333  1.00  0.00    -0.164 C  
ENDBRANCH  31  34
ENDBRANCH  25  28
ENDBRANCH  21  25
ENDBRANCH  11  16
ENDBRANCH   3   4
ENDBRANCH   2   3
TORSDOF 8
ENDMDL
MODEL      239
REMARK 921   NORMALIZED FREE ENERGY PREDICTED BY IDOCK:   27.30 KCAL/MOL
REMARK 922        TOTAL FREE ENERGY PREDICTED BY IDOCK:   39.06 KCAL/MOL
REMARK 923 INTER-LIGAND FREE ENERGY PREDICTED BY IDOCK:   37.99 KCAL/MOL
REMARK 924 INTRA-LIGAND FREE ENERGY PREDICTED BY IDOCK:    1.07 KCAL/MOL
REMARK 927      BINDING AFFINITY PREDICTED BY RF-SCORE:    0.00 PKD
ROOT
HETATM    1  C   UNL     1      -7.068  17.568  71.295  1.00  0.00     4.998 C  
HETATM    2  C   UNL     1      -6.366  18.790  70.717  1.00  0.00     0.595 C  
ENDROOT
BRANCH   2   3
HETATM    3  C   UNL     1      -5.964  18.635  69.248  1.00  0.00    -0.251 C  
BRANCH   3   4
HETATM    4  C   UNL     1      -7.130  18.657  68.315  1.00  0.00    -0.253 A  
HETATM    5  N   UNL     1      -7.252  19.459  67.275  1.00  0.00    -0.208 NA 
HETATM    6  C   UNL     1      -8.451  19.139  66.686  1.00  0.00    -0.310 A  
HETATM    7  C   UNL     1      -9.066  18.129  67.395  1.00  0.00    -0.253 A  
HETATM    8  C   UNL     1      -8.914  19.839  65.467  1.00  0.00     0.473 C  
HETATM    9  N   UNL     1      -8.224  17.827  68.410  1.00  0.00    -0.291 NA 
HETATM   10  N   UNL     1      -8.474  16.814  69.296  1.00  0.00    -0.068 NA 
HETATM   11  C   UNL     1      -9.743  16.262  69.170  1.00  0.00    -0.265 C  
HETATM   12  N   UNL     1     -10.589  16.540  68.226  1.00  0.00    -0.310 N  
HETATM   13  O   UNL     1     -11.057  17.638  66.284  1.00  0.00     0.151 OA 
HETATM   14  H   UNL     1     -11.498  16.077  68.229  1.00  0.00     0.000 HD 
HETATM   15  C   UNL     1     -10.303  17.435  67.225  1.00  0.00    -0.336 C  
BRANCH  11  16
HETATM   16  C   UNL     1     -10.188  15.257  70.213  1.00  0.00    -0.098 A  
HETATM   17  C   UNL     1     -11.299  14.639  72.290  1.00  0.00     0.456 A  
HETATM   18  C   UNL     1     -10.927  15.628  71.363  1.00  0.00    -0.083 A  
HETATM   19  C   UNL     1      -9.812  13.914  70.041  1.00  0.00     1.580 A  
HETATM   20  C   UNL     1     -10.932  13.308  72.106  1.00  0.00     6.262 A  
HETATM   21  C   UNL     1     -10.189  12.953  70.986  1.00  0.00     6.772 A  
BRANCH  18  22
HETATM   22  O   UNL     1     -11.274  16.946  71.517  1.00  0.00     0.129 OA 
BRANCH  22  23
HETATM   23  C   UNL     1     -12.488  17.232  72.214  1.00  0.00     3.209 C  
HETATM   24  C   UNL     1     -12.314  16.892  73.682  1.00  0.00    -0.068 C  
ENDBRANCH  22  23
ENDBRANCH  18  22
BRANCH  21  25
HETATM   25  S   UNL     1      -9.535  11.309  70.881  1.00  0.00     6.462 S  
HETATM   26  O   UNL     1     -10.629  10.440  70.508  1.00  0.00    -0.184 OA 
HETATM   27  O   UNL     1      -8.781  11.076  72.093  1.00  0.00     9.524 OA 
BRANCH  25  28
HETATM   28  N   UNL     1      -8.455  11.396  69.559  1.00  0.00     0.485 N  
HETATM   29  C   UNL     1      -7.035  11.762  69.863  1.00  0.00     0.320 C  
HETATM   30  C   UNL     1      -6.221  10.566  70.419  1.00  0.00    -0.128 C  
HETATM   31  N   UNL     1      -6.306   9.315  69.628  1.00  0.00    -0.039 NA 
HETATM   32  C   UNL     1      -7.727   9.014  69.344  1.00  0.00    -0.083 C  
HETATM   33  C   UNL     1      -8.488  10.179  68.684  1.00  0.00    -0.122 C  
BRANCH  31  34
HETATM   34  C   UNL     1      -5.459   9.394  68.430  1.00  0.00    -0.037 C  
HETATM   35  C   UNL     1      -5.658   8.235  67.460  1.00  0.00    -0.039 C  
ENDBRANCH  31  34
ENDBRANCH  25  28
ENDBRANCH  21  25
ENDBRANCH  11  16
ENDBRANCH   3   4
ENDBRANCH   2   3
TORSDOF 8
ENDMDL
MODEL      240
REMARK 921   NORMALIZED FREE ENERGY PREDICTED BY IDOCK:   27.35 KCAL/MOL
REMARK 922        TOTAL FREE ENERGY PREDICTED BY IDOCK:   39.13 KCAL/MOL
REMARK 923 INTER-LIGAND FREE ENERGY PREDICTED BY IDOCK:   38.13 KCAL/MOL
REMARK 924 INTRA-LIGAND FREE ENERGY PREDICTED BY IDOCK:    1.00 KCAL/MOL
REMARK 927      BINDING AFFINITY PREDICTED BY RF-SCORE:    0.00 PKD
ROOT
HETATM    1  C   UNL     1      -5.884  13.955  63.756  1.00  0.00    21.244 C  
HETATM    2  C   UNL     1      -6.816  13.614  62.600  1.00  0.00    15.049 C  
ENDROOT
BRANCH   2   3
HETATM    3  C   UNL     1      -7.274  12.154  62.585  1.00  0.00     3.020 C  
BRANCH   3   4
HETATM    4  C   UNL     1      -8.570  11.938  63.296  1.00  0.00     1.063 A  
HETATM    5  N   UNL     1      -9.671  12.636  63.092  1.00  0.00     0.372 NA 
HETATM    6  C   UNL     1     -10.620  12.103  63.929  1.00  0.00    -0.415 A  
HETATM    7  C   UNL     1     -10.073  11.070  64.660  1.00  0.00    -0.311 A  
HETATM    8  C   UNL     1     -12.000  12.637  63.957  1.00  0.00    -0.530 C  
HETATM    9  N   UNL     1      -8.788  10.967  64.247  1.00  0.00    -0.051 NA 
HETATM   10  N   UNL     1      -7.942   9.997  64.711  1.00  0.00    -0.140 NA 
HETATM   11  C   UNL     1      -8.463   9.259  65.767  1.00  0.00    -0.135 C  
HETATM   12  N   UNL     1      -9.681   9.341  66.208  1.00  0.00    -0.250 N  
HETATM   13  O   UNL     1     -11.777  10.214  66.003  1.00  0.00     1.382 OA 
HETATM   14  H   UNL     1      -9.960   8.753  66.993  1.00  0.00     0.000 HD 
HETATM   15  C   UNL     1     -10.605  10.193  65.654  1.00  0.00     0.089 C  
BRANCH  11  16
HETATM   16  C   UNL     1      -7.546   8.280  66.471  1.00  0.00    -0.092 A  
HETATM   17  C   UNL     1      -6.162   6.278  66.544  1.00  0.00    -0.037 A  
HETATM   18  C   UNL     1      -7.001   7.145  65.823  1.00  0.00    -0.061 A  
HETATM   19  C   UNL     1      -7.264   8.496  67.830  1.00  0.00    -0.088 A  
HETATM   20  C   UNL     1      -5.878   6.506  67.888  1.00  0.00    -0.019 A  
HETATM   21  C   UNL     1      -6.433   7.611  68.525  1.00  0.00    -0.048 A  
BRANCH  18  22
HETATM   22  O   UNL     1      -7.297   6.945  64.498  1.00  0.00    -0.077 OA 
BRANCH  22  23
HETATM   23  C   UNL     1      -6.862   5.723  63.901  1.00  0.00    -0.049 C  
HETATM   24  C   UNL     1      -7.960   5.184  63.006  1.00  0.00    -0.091 C  
ENDBRANCH  22  23
ENDBRANCH  18  22
BRANCH  21  25
HETATM   25  S   UNL     1      -6.254   7.764  70.282  1.00  0.00    -0.033 S  
HETATM   26  O   UNL     1      -6.273   9.177  70.589  1.00  0.00    -0.040 OA 
HETATM   27  O   UNL     1      -5.132   6.935  70.665  1.00  0.00    -0.018 OA 
BRANCH  25  28
HETATM   28  N   UNL     1      -7.694   7.070  70.888  1.00  0.00    -0.093 N  
HETATM   29  C   UNL     1      -8.363   7.775  72.027  1.00  0.00    -0.115 C  
HETATM   30  C   UNL     1      -9.180   9.008  71.562  1.00  0.00    -0.190 C  
HETATM   31  N   UNL     1     -10.119   8.764  70.442  1.00  0.00    -0.186 NA 
HETATM   32  C   UNL     1      -9.409   8.051  69.356  1.00  0.00    -0.155 C  
HETATM   33  C   UNL     1      -8.700   6.764  69.820  1.00  0.00    -0.141 C  
BRANCH  31  34
HETATM   34  C   UNL     1     -11.331   8.081  70.913  1.00  0.00    -0.276 C  
HETATM   35  C   UNL     1     -12.147   8.895  71.912  1.00  0.00    -0.443 C  
ENDBRANCH  31  34
ENDBRANCH  25  28
ENDBRANCH  21  25
ENDBRANCH  11  16
ENDBRANCH   3   4
ENDBRANCH   2   3
TORSDOF 8
ENDMDL
MODEL      241
REMARK 921   NORMALIZED FREE ENERGY PREDICTED BY IDOCK:   31.11 KCAL/MOL
REMARK 922        TOTAL FREE ENERGY PREDICTED BY IDOCK:   44.65 KCAL/MOL
REMARK 923 INTER-LIGAND FREE ENERGY PREDICTED BY IDOCK:   25.84 KCAL/MOL
REMARK 924 INTRA-LIGAND FREE ENERGY PREDICTED BY IDOCK:   18.81 KCAL/MOL
REMARK 927      BINDING AFFINITY PREDICTED BY RF-SCORE:    0.00 PKD
ROOT
HETATM    1  C   UNL     1     -13.732  17.087  64.291  1.00  0.00     8.947 C  
HETATM    2  C   UNL     1     -12.620  16.057  64.448  1.00  0.00     0.929 C  
ENDROOT
BRANCH   2   3
HETATM    3  C   UNL     1     -11.239  16.571  64.034  1.00  0.00     0.856 C  
BRANCH   3   4
HETATM    4  C   UNL     1     -10.659  17.543  65.008  1.00  0.00     0.513 A  
HETATM    5  N   UNL     1     -10.473  18.829  64.776  1.00  0.00     0.946 NA 
HETATM    6  C   UNL     1      -9.940  19.351  65.929  1.00  0.00    -0.264 A  
HETATM    7  C   UNL     1      -9.793  18.354  66.870  1.00  0.00    -0.338 A  
HETATM    8  C   UNL     1      -9.613  20.790  66.036  1.00  0.00     0.369 C  
HETATM    9  N   UNL     1     -10.256  17.224  66.285  1.00  0.00    -0.339 NA 
HETATM   10  N   UNL     1     -10.328  16.030  66.949  1.00  0.00    -0.285 NA 
HETATM   11  C   UNL     1      -9.713  16.044  68.195  1.00  0.00    -0.217 C  
HETATM   12  N   UNL     1      -9.237  17.099  68.782  1.00  0.00    -0.268 N  
HETATM   13  O   UNL     1      -8.931  19.358  68.791  1.00  0.00    -0.368 OA 
HETATM   14  H   UNL     1      -8.802  16.997  69.699  1.00  0.00     0.000 HD 
HETATM   15  C   UNL     1      -9.297  18.346  68.210  1.00  0.00    -0.326 C  
BRANCH  11  16
HETATM   16  C   UNL     1      -9.579  14.730  68.937  1.00  0.00    -0.210 A  
HETATM   17  C   UNL     1      -9.439  13.393  70.967  1.00  0.00     8.164 A  
HETATM   18  C   UNL     1      -9.573  14.649  70.350  1.00  0.00     1.235 A  
HETATM   19  C   UNL     1      -9.416  13.557  68.181  1.00  0.00    -0.214 A  
HETATM   20  C   UNL     1      -9.289  12.234  70.210  1.00  0.00     4.576 A  
HETATM   21  C   UNL     1      -9.275  12.322  68.823  1.00  0.00     0.116 A  
BRANCH  18  22
HETATM   22  O   UNL     1      -9.723  15.808  71.070  1.00  0.00     1.139 OA 
BRANCH  22  23
HETATM   23  C   UNL     1      -9.653  17.043  70.355  1.00  0.00     2.246 C  
HETATM   24  C   UNL     1     -10.749  17.077  69.308  1.00  0.00    -0.226 C  
ENDBRANCH  22  23
ENDBRANCH  18  22
BRANCH  21  25
HETATM   25  S   UNL     1      -8.855  10.880  67.880  1.00  0.00    -0.138 S  
HETATM   26  O   UNL     1     -10.098  10.255  67.484  1.00  0.00    -0.181 OA 
HETATM   27  O   UNL     1      -7.867  10.150  68.642  1.00  0.00    -0.090 OA 
BRANCH  25  28
HETATM   28  N   UNL     1      -8.117  11.524  66.480  1.00  0.00    -0.147 N  
HETATM   29  C   UNL     1      -6.623  11.442  66.398  1.00  0.00    -0.020 C  
HETATM   30  C   UNL     1      -6.130  10.032  65.982  1.00  0.00    -0.077 C  
HETATM   31  N   UNL     1      -6.776   9.462  64.776  1.00  0.00    -0.084 NA 
HETATM   32  C   UNL     1      -8.245   9.587  64.905  1.00  0.00    -0.140 C  
HETATM   33  C   UNL     1      -8.722  11.021  65.204  1.00  0.00    -0.061 C  
BRANCH  31  34
HETATM   34  C   UNL     1      -6.229  10.065  63.553  1.00  0.00    -0.130 C  
HETATM   35  C   UNL     1      -7.292  10.626  62.615  1.00  0.00    -0.075 C  
ENDBRANCH  31  34
ENDBRANCH  25  28
ENDBRANCH  21  25
ENDBRANCH  11  16
ENDBRANCH   3   4
ENDBRANCH   2   3
TORSDOF 8
ENDMDL
MODEL      242
REMARK 921   NORMALIZED FREE ENERGY PREDICTED BY IDOCK:   36.31 KCAL/MOL
REMARK 922        TOTAL FREE ENERGY PREDICTED BY IDOCK:   52.29 KCAL/MOL
REMARK 923 INTER-LIGAND FREE ENERGY PREDICTED BY IDOCK:   50.57 KCAL/MOL
REMARK 924 INTRA-LIGAND FREE ENERGY PREDICTED BY IDOCK:    1.72 KCAL/MOL
REMARK 927      BINDING AFFINITY PREDICTED BY RF-SCORE:    0.00 PKD
ROOT
HETATM    1  C   UNL     1     -12.804  11.771  63.849  1.00  0.00    -0.252 C  
HETATM    2  C   UNL     1     -13.064  11.898  65.345  1.00  0.00     2.619 C  
ENDROOT
BRANCH   2   3
HETATM    3  C   UNL     1     -13.122  10.556  66.078  1.00  0.00    10.938 C  
BRANCH   3   4
HETATM    4  C   UNL     1     -11.775  10.038  66.462  1.00  0.00     2.537 A  
HETATM    5  N   UNL     1     -11.221   8.940  65.983  1.00  0.00     2.293 NA 
HETATM    6  C   UNL     1      -9.989   8.843  66.580  1.00  0.00    -0.276 A  
HETATM    7  C   UNL     1      -9.803   9.901  67.445  1.00  0.00    -0.179 A  
HETATM    8  C   UNL     1      -9.072   7.725  66.264  1.00  0.00    -0.221 C  
HETATM    9  N   UNL     1     -10.926  10.651  67.356  1.00  0.00    -0.301 NA 
HETATM   10  N   UNL     1     -11.077  11.831  68.031  1.00  0.00    -0.225 NA 
HETATM   11  C   UNL     1     -10.064  12.085  68.948  1.00  0.00    -0.015 C  
HETATM   12  N   UNL     1      -8.983  11.380  69.082  1.00  0.00    -0.376 N  
HETATM   13  O   UNL     1      -7.670   9.661  68.360  1.00  0.00    -0.081 OA 
HETATM   14  H   UNL     1      -8.302  11.654  69.790  1.00  0.00     0.000 HD 
HETATM   15  C   UNL     1      -8.724  10.279  68.303  1.00  0.00    -0.126 C  
BRANCH  11  16
HETATM   16  C   UNL     1     -10.225  13.273  69.874  1.00  0.00     1.477 A  
HETATM   17  C   UNL     1     -10.318  14.305  72.078  1.00  0.00     4.348 A  
HETATM   18  C   UNL     1     -10.154  13.157  71.284  1.00  0.00     8.283 A  
HETATM   19  C   UNL     1     -10.493  14.527  69.301  1.00  0.00    -0.185 A  
HETATM   20  C   UNL     1     -10.572  15.546  71.501  1.00  0.00     0.494 A  
HETATM   21  C   UNL     1     -10.661  15.651  70.117  1.00  0.00    -0.342 A  
BRANCH  18  22
HETATM   22  O   UNL     1      -9.902  11.921  71.824  1.00  0.00    10.473 OA 
BRANCH  22  23
HETATM   23  C   UNL     1     -11.025  11.143  72.244  1.00  0.00     7.133 C  
HETATM   24  C   UNL     1     -11.091   9.874  71.418  1.00  0.00    -0.207 C  
ENDBRANCH  22  23
ENDBRANCH  18  22
BRANCH  21  25
HETATM   25  S   UNL     1     -11.211  17.182  69.410  1.00  0.00     0.759 S  
HETATM   26  O   UNL     1     -11.051  18.199  70.425  1.00  0.00     1.774 OA 
HETATM   27  O   UNL     1     -12.500  16.929  68.807  1.00  0.00     1.135 OA 
BRANCH  25  28
HETATM   28  N   UNL     1     -10.066  17.480  68.176  1.00  0.00    -0.321 N  
HETATM   29  C   UNL     1      -9.103  18.606  68.399  1.00  0.00    -0.324 C  
HETATM   30  C   UNL     1      -7.943  18.213  69.350  1.00  0.00     0.357 C  
HETATM   31  N   UNL     1      -7.241  16.952  69.011  1.00  0.00    -0.232 NA 
HETATM   32  C   UNL     1      -8.241  15.884  68.786  1.00  0.00    -0.196 C  
HETATM   33  C   UNL     1      -9.319  16.253  67.750  1.00  0.00    -0.216 C  
BRANCH  31  34
HETATM   34  C   UNL     1      -6.315  17.152  67.888  1.00  0.00    -0.144 C  
HETATM   35  C   UNL     1      -6.091  15.901  67.046  1.00  0.00     0.168 C  
ENDBRANCH  31  34
ENDBRANCH  25  28
ENDBRANCH  21  25
ENDBRANCH  11  16
ENDBRANCH   3   4
ENDBRANCH   2   3
TORSDOF 8
ENDMDL
MODEL      243
REMARK 921   NORMALIZED FREE ENERGY PREDICTED BY IDOCK:   41.29 KCAL/MOL
REMARK 922        TOTAL FREE ENERGY PREDICTED BY IDOCK:   59.59 KCAL/MOL
REMARK 923 INTER-LIGAND FREE ENERGY PREDICTED BY IDOCK:   50.54 KCAL/MOL
REMARK 924 INTRA-LIGAND FREE ENERGY PREDICTED BY IDOCK:    9.05 KCAL/MOL
REMARK 927      BINDING AFFINITY PREDICTED BY RF-SCORE:    0.00 PKD
ROOT
HETATM    1  C   UNL     1     -13.618  14.413  72.106  1.00  0.00    -0.529 C  
HETATM    2  C   UNL     1     -13.049  13.886  70.794  1.00  0.00    -0.204 C  
ENDROOT
BRANCH   2   3
HETATM    3  C   UNL     1     -13.327  14.791  69.592  1.00  0.00     1.164 C  
BRANCH   3   4
HETATM    4  C   UNL     1     -13.076  14.122  68.282  1.00  0.00     2.559 A  
HETATM    5  N   UNL     1     -13.661  13.011  67.874  1.00  0.00     5.093 NA 
HETATM    6  C   UNL     1     -13.162  12.756  66.620  1.00  0.00     3.346 A  
HETATM    7  C   UNL     1     -12.250  13.729  66.272  1.00  0.00    -0.447 A  
HETATM    8  C   UNL     1     -13.613  11.579  65.844  1.00  0.00     8.760 C  
HETATM    9  N   UNL     1     -12.210  14.588  67.318  1.00  0.00    -0.268 NA 
HETATM   10  N   UNL     1     -11.454  15.727  67.305  1.00  0.00    -0.066 NA 
HETATM   11  C   UNL     1     -10.599  15.819  66.213  1.00  0.00    -0.310 C  
HETATM   12  N   UNL     1     -10.588  15.007  65.201  1.00  0.00    -0.392 N  
HETATM   13  O   UNL     1     -11.509  13.224  64.119  1.00  0.00    -0.374 OA 
HETATM   14  H   UNL     1      -9.916  15.165  64.451  1.00  0.00     0.000 HD 
HETATM   15  C   UNL     1     -11.451  13.942  65.107  1.00  0.00    -0.321 C  
BRANCH  11  16
HETATM   16  C   UNL     1      -9.592  16.951  66.192  1.00  0.00    -0.280 A  
HETATM   17  C   UNL     1      -8.555  18.908  65.181  1.00  0.00     2.187 A  
HETATM   18  C   UNL     1      -9.521  17.889  65.133  1.00  0.00     2.147 A  
HETATM   19  C   UNL     1      -8.672  17.039  67.250  1.00  0.00    -0.212 A  
HETATM   20  C   UNL     1      -7.655  18.995  66.239  1.00  0.00    -0.291 A  
HETATM   21  C   UNL     1      -7.715  18.060  67.266  1.00  0.00    -0.209 A  
BRANCH  18  22
HETATM   22  O   UNL     1     -10.421  17.778  64.103  1.00  0.00     2.325 OA 
BRANCH  22  23
HETATM   23  C   UNL     1     -11.751  18.245  64.336  1.00  0.00     5.468 C  
HETATM   24  C   UNL     1     -12.618  17.082  64.779  1.00  0.00     4.980 C  
ENDBRANCH  22  23
ENDBRANCH  18  22
BRANCH  21  25
HETATM   25  S   UNL     1      -6.426  18.041  68.483  1.00  0.00    -0.217 S  
HETATM   26  O   UNL     1      -6.381  19.361  69.073  1.00  0.00    -0.253 OA 
HETATM   27  O   UNL     1      -5.257  17.470  67.851  1.00  0.00    -0.126 OA 
BRANCH  25  28
HETATM   28  N   UNL     1      -7.012  16.953  69.664  1.00  0.00    -0.066 N  
HETATM   29  C   UNL     1      -7.459  17.538  70.967  1.00  0.00     5.251 C  
HETATM   30  C   UNL     1      -8.873  18.168  70.879  1.00  0.00     5.980 C  
HETATM   31  N   UNL     1      -9.918  17.305  70.280  1.00  0.00     1.100 NA 
HETATM   32  C   UNL     1      -9.415  16.742  69.007  1.00  0.00    -0.217 C  
HETATM   33  C   UNL     1      -8.061  16.019  69.141  1.00  0.00    -0.238 C  
BRANCH  31  34
HETATM   34  C   UNL     1     -10.378  16.293  71.240  1.00  0.00     1.712 C  
HETATM   35  C   UNL     1      -9.332  15.233  71.567  1.00  0.00     3.492 C  
ENDBRANCH  31  34
ENDBRANCH  25  28
ENDBRANCH  21  25
ENDBRANCH  11  16
ENDBRANCH   3   4
ENDBRANCH   2   3
TORSDOF 8
ENDMDL
MODEL      244
REMARK 921   NORMALIZED FREE ENERGY PREDICTED BY IDOCK:   43.33 KCAL/MOL
REMARK 922        TOTAL FREE ENERGY PREDICTED BY IDOCK:   62.58 KCAL/MOL
REMARK 923 INTER-LIGAND FREE ENERGY PREDICTED BY IDOCK:   59.43 KCAL/MOL
REMARK 924 INTRA-LIGAND FREE ENERGY PREDICTED BY IDOCK:    3.15 KCAL/MOL
REMARK 927      BINDING AFFINITY PREDICTED BY RF-SCORE:    0.00 PKD
ROOT
HETATM    1  C   UNL     1      -6.206  18.873  69.669  1.00  0.00    -0.280 C  
HETATM    2  C   UNL     1      -5.319  18.351  70.793  1.00  0.00    -0.253 C  
ENDROOT
BRANCH   2   3
HETATM    3  C   UNL     1      -6.085  17.604  71.887  1.00  0.00     2.274 C  
BRANCH   3   4
HETATM    4  C   UNL     1      -7.527  17.984  71.960  1.00  0.00     8.999 A  
HETATM    5  N   UNL     1      -8.012  18.982  72.675  1.00  0.00     6.344 NA 
HETATM    6  C   UNL     1      -9.365  18.993  72.444  1.00  0.00     6.887 A  
HETATM    7  C   UNL     1      -9.702  17.973  71.580  1.00  0.00     6.605 A  
HETATM    8  C   UNL     1     -10.240  20.002  73.081  1.00  0.00     4.163 C  
HETATM    9  N   UNL     1      -8.538  17.352  71.273  1.00  0.00     7.899 NA 
HETATM   10  N   UNL     1      -8.470  16.318  70.380  1.00  0.00     1.871 NA 
HETATM   11  C   UNL     1      -9.713  15.851  69.969  1.00  0.00     0.126 C  
HETATM   12  N   UNL     1     -10.852  16.402  70.257  1.00  0.00    -0.273 N  
HETATM   13  O   UNL     1     -12.002  18.118  71.223  1.00  0.00     5.181 OA 
HETATM   14  H   UNL     1     -11.708  15.975  69.904  1.00  0.00     0.000 HD 
HETATM   15  C   UNL     1     -10.943  17.541  71.020  1.00  0.00     1.792 C  
BRANCH  11  16
HETATM   16  C   UNL     1      -9.756  14.597  69.120  1.00  0.00    -0.108 A  
HETATM   17  C   UNL     1     -10.840  12.583  68.285  1.00  0.00    -0.258 A  
HETATM   18  C   UNL     1     -10.877  13.732  69.094  1.00  0.00    -0.170 A  
HETATM   19  C   UNL     1      -8.618  14.270  68.363  1.00  0.00    -0.175 A  
HETATM   20  C   UNL     1      -9.712  12.273  67.529  1.00  0.00    -0.190 A  
HETATM   21  C   UNL     1      -8.607  13.115  67.574  1.00  0.00    -0.196 A  
BRANCH  18  22
HETATM   22  O   UNL     1     -11.974  14.063  69.849  1.00  0.00    -0.296 OA 
BRANCH  22  23
HETATM   23  C   UNL     1     -12.189  13.331  71.057  1.00  0.00    -0.197 C  
HETATM   24  C   UNL     1     -13.637  12.887  71.122  1.00  0.00     0.455 C  
ENDBRANCH  22  23
ENDBRANCH  18  22
BRANCH  21  25
HETATM   25  S   UNL     1      -7.103  12.593  66.794  1.00  0.00     0.700 S  
HETATM   26  O   UNL     1      -6.258  13.761  66.677  1.00  0.00     1.043 OA 
HETATM   27  O   UNL     1      -7.477  11.826  65.626  1.00  0.00     0.686 OA 
BRANCH  25  28
HETATM   28  N   UNL     1      -6.402  11.546  67.949  1.00  0.00    -0.054 N  
HETATM   29  C   UNL     1      -5.610  12.180  69.051  1.00  0.00    -0.059 C  
HETATM   30  C   UNL     1      -6.513  12.768  70.166  1.00  0.00     0.180 C  
HETATM   31  N   UNL     1      -7.550  11.851  70.695  1.00  0.00     2.870 NA 
HETATM   32  C   UNL     1      -8.286  11.243  69.564  1.00  0.00     0.457 C  
HETATM   33  C   UNL     1      -7.375  10.562  68.526  1.00  0.00    -0.088 C  
BRANCH  31  34
HETATM   34  C   UNL     1      -6.963  10.874  71.622  1.00  0.00     3.558 C  
HETATM   35  C   UNL     1      -5.647  10.278  71.136  1.00  0.00    -0.062 C  
ENDBRANCH  31  34
ENDBRANCH  25  28
ENDBRANCH  21  25
ENDBRANCH  11  16
ENDBRANCH   3   4
ENDBRANCH   2   3
TORSDOF 8
ENDMDL
MODEL      245
REMARK 921   NORMALIZED FREE ENERGY PREDICTED BY IDOCK:   43.62 KCAL/MOL
REMARK 922        TOTAL FREE ENERGY PREDICTED BY IDOCK:   63.02 KCAL/MOL
REMARK 923 INTER-LIGAND FREE ENERGY PREDICTED BY IDOCK:   54.78 KCAL/MOL
REMARK 924 INTRA-LIGAND FREE ENERGY PREDICTED BY IDOCK:    8.24 KCAL/MOL
REMARK 927      BINDING AFFINITY PREDICTED BY RF-SCORE:    0.00 PKD
ROOT
HETATM    1  C   UNL     1     -10.504  14.876  64.511  1.00  0.00     0.075 C  
HETATM    2  C   UNL     1     -11.915  15.338  64.169  1.00  0.00    -0.145 C  
ENDROOT
BRANCH   2   3
HETATM    3  C   UNL     1     -12.811  14.229  63.613  1.00  0.00     0.901 C  
BRANCH   3   4
HETATM    4  C   UNL     1     -12.667  12.936  64.346  1.00  0.00    -0.245 A  
HETATM    5  N   UNL     1     -13.565  11.969  64.358  1.00  0.00    -0.077 NA 
HETATM    6  C   UNL     1     -13.032  10.964  65.128  1.00  0.00     5.963 A  
HETATM    7  C   UNL     1     -11.792  11.342  65.597  1.00  0.00     0.860 A  
HETATM    8  C   UNL     1     -13.769   9.701  65.352  1.00  0.00    21.034 C  
HETATM    9  N   UNL     1     -11.567  12.577  65.092  1.00  0.00    -0.338 NA 
HETATM   10  N   UNL     1     -10.395  13.252  65.294  1.00  0.00    -0.307 NA 
HETATM   11  C   UNL     1      -9.547  12.639  66.209  1.00  0.00    -0.244 C  
HETATM   12  N   UNL     1      -9.734  11.468  66.733  1.00  0.00    -0.196 N  
HETATM   13  O   UNL     1     -10.966   9.552  66.844  1.00  0.00    -0.093 OA 
HETATM   14  H   UNL     1      -9.048  11.111  67.399  1.00  0.00     0.000 HD 
HETATM   15  C   UNL     1     -10.825  10.692  66.424  1.00  0.00    -0.062 C  
BRANCH  11  16
HETATM   16  C   UNL     1      -8.303  13.390  66.639  1.00  0.00     0.234 A  
HETATM   17  C   UNL     1      -5.948  13.976  66.437  1.00  0.00     4.103 A  
HETATM   18  C   UNL     1      -7.060  13.250  65.975  1.00  0.00     4.080 A  
HETATM   19  C   UNL     1      -8.390  14.224  67.767  1.00  0.00    -0.174 A  
HETATM   20  C   UNL     1      -6.046  14.809  67.548  1.00  0.00     0.017 A  
HETATM   21  C   UNL     1      -7.264  14.927  68.209  1.00  0.00    -0.113 A  
BRANCH  18  22
HETATM   22  O   UNL     1      -6.994  12.422  64.883  1.00  0.00     4.220 OA 
BRANCH  22  23
HETATM   23  C   UNL     1      -6.294  11.185  65.034  1.00  0.00     0.686 C  
HETATM   24  C   UNL     1      -7.194  10.183  65.730  1.00  0.00    -0.128 C  
ENDBRANCH  22  23
ENDBRANCH  18  22
BRANCH  21  25
HETATM   25  S   UNL     1      -7.319  15.804  69.749  1.00  0.00     0.109 S  
HETATM   26  O   UNL     1      -8.558  16.551  69.766  1.00  0.00     0.322 OA 
HETATM   27  O   UNL     1      -6.046  16.472  69.900  1.00  0.00    -0.208 OA 
BRANCH  25  28
HETATM   28  N   UNL     1      -7.437  14.555  70.911  1.00  0.00     1.327 N  
HETATM   29  C   UNL     1      -8.452  13.483  70.657  1.00  0.00     5.295 C  
HETATM   30  C   UNL     1      -7.964  12.440  69.619  1.00  0.00     1.364 C  
HETATM   31  N   UNL     1      -6.618  11.872  69.871  1.00  0.00    -0.041 NA 
HETATM   32  C   UNL     1      -5.665  12.973  70.132  1.00  0.00    -0.145 C  
HETATM   33  C   UNL     1      -6.116  13.933  71.249  1.00  0.00     0.017 C  
BRANCH  31  34
HETATM   34  C   UNL     1      -6.667  10.859  70.934  1.00  0.00     0.973 C  
HETATM   35  C   UNL     1      -6.681  11.445  72.342  1.00  0.00     5.714 C  
ENDBRANCH  31  34
ENDBRANCH  25  28
ENDBRANCH  21  25
ENDBRANCH  11  16
ENDBRANCH   3   4
ENDBRANCH   2   3
TORSDOF 8
ENDMDL
MODEL      246
REMARK 921   NORMALIZED FREE ENERGY PREDICTED BY IDOCK:   45.12 KCAL/MOL
REMARK 922        TOTAL FREE ENERGY PREDICTED BY IDOCK:   65.21 KCAL/MOL
REMARK 923 INTER-LIGAND FREE ENERGY PREDICTED BY IDOCK:   56.53 KCAL/MOL
REMARK 924 INTRA-LIGAND FREE ENERGY PREDICTED BY IDOCK:    8.67 KCAL/MOL
REMARK 927      BINDING AFFINITY PREDICTED BY RF-SCORE:    0.00 PKD
ROOT
HETATM    1  C   UNL     1     -10.841  14.790  64.298  1.00  0.00     0.239 C  
HETATM    2  C   UNL     1     -12.160  15.510  64.045  1.00  0.00     0.058 C  
ENDROOT
BRANCH   2   3
HETATM    3  C   UNL     1     -13.122  14.737  63.140  1.00  0.00     2.932 C  
BRANCH   3   4
HETATM    4  C   UNL     1     -13.061  13.260  63.344  1.00  0.00     1.177 A  
HETATM    5  N   UNL     1     -13.997  12.405  62.978  1.00  0.00     2.346 NA 
HETATM    6  C   UNL     1     -13.537  11.160  63.332  1.00  0.00     2.660 A  
HETATM    7  C   UNL     1     -12.302  11.272  63.934  1.00  0.00     0.684 A  
HETATM    8  C   UNL     1     -14.334   9.944  63.055  1.00  0.00    12.666 C  
HETATM    9  N   UNL     1     -12.007  12.593  63.928  1.00  0.00    -0.437 NA 
HETATM   10  N   UNL     1     -10.816  13.082  64.391  1.00  0.00    -0.366 NA 
HETATM   11  C   UNL     1     -10.031  12.131  65.031  1.00  0.00    -0.220 C  
HETATM   12  N   UNL     1     -10.288  10.860  65.080  1.00  0.00    -0.286 N  
HETATM   13  O   UNL     1     -11.600   9.107  64.446  1.00  0.00     8.583 OA 
HETATM   14  H   UNL     1      -9.644  10.247  65.581  1.00  0.00     0.000 HD 
HETATM   15  C   UNL     1     -11.396  10.312  64.482  1.00  0.00     2.652 C  
BRANCH  11  16
HETATM   16  C   UNL     1      -8.776  12.603  65.736  1.00  0.00     0.727 A  
HETATM   17  C   UNL     1      -6.429  13.252  65.778  1.00  0.00     6.569 A  
HETATM   18  C   UNL     1      -7.554  12.820  65.054  1.00  0.00     5.962 A  
HETATM   19  C   UNL     1      -8.829  12.790  67.128  1.00  0.00    -0.202 A  
HETATM   20  C   UNL     1      -6.493  13.447  67.155  1.00  0.00     0.419 A  
HETATM   21  C   UNL     1      -7.690  13.213  67.823  1.00  0.00    -0.153 A  
BRANCH  18  22
HETATM   22  O   UNL     1      -7.521  12.620  63.697  1.00  0.00     5.616 OA 
BRANCH  22  23
HETATM   23  C   UNL     1      -6.838  11.460  63.217  1.00  0.00     1.526 C  
HETATM   24  C   UNL     1      -7.735  10.249  63.378  1.00  0.00    -0.126 C  
ENDBRANCH  22  23
ENDBRANCH  18  22
BRANCH  21  25
HETATM   25  S   UNL     1      -7.698  13.241  69.596  1.00  0.00     1.211 S  
HETATM   26  O   UNL     1      -8.826  14.051  70.002  1.00  0.00     1.313 OA 
HETATM   27  O   UNL     1      -6.355  13.570  70.019  1.00  0.00    -0.121 OA 
BRANCH  25  28
HETATM   28  N   UNL     1      -8.034  11.618  70.015  1.00  0.00     1.521 N  
HETATM   29  C   UNL     1      -9.214  10.974  69.353  1.00  0.00     0.209 C  
HETATM   30  C   UNL     1      -8.902  10.512  67.907  1.00  0.00    -0.133 C  
HETATM   31  N   UNL     1      -7.674   9.697  67.750  1.00  0.00    -0.094 NA 
HETATM   32  C   UNL     1      -6.549  10.372  68.436  1.00  0.00    -0.059 C  
HETATM   33  C   UNL     1      -6.840  10.718  69.908  1.00  0.00    -0.146 C  
BRANCH  31  34
HETATM   34  C   UNL     1      -7.901   8.314  68.191  1.00  0.00    -0.118 C  
HETATM   35  C   UNL     1      -6.809   7.343  67.758  1.00  0.00    -0.074 C  
ENDBRANCH  31  34
ENDBRANCH  25  28
ENDBRANCH  21  25
ENDBRANCH  11  16
ENDBRANCH   3   4
ENDBRANCH   2   3
TORSDOF 8
ENDMDL
MODEL      247
REMARK 921   NORMALIZED FREE ENERGY PREDICTED BY IDOCK:   55.81 KCAL/MOL
REMARK 922        TOTAL FREE ENERGY PREDICTED BY IDOCK:   80.91 KCAL/MOL
REMARK 923 INTER-LIGAND FREE ENERGY PREDICTED BY IDOCK:   63.87 KCAL/MOL
REMARK 924 INTRA-LIGAND FREE ENERGY PREDICTED BY IDOCK:   17.04 KCAL/MOL
REMARK 927      BINDING AFFINITY PREDICTED BY RF-SCORE:    0.00 PKD
ROOT
HETATM    1  C   UNL     1     -13.902  14.419  72.426  1.00  0.00    -0.595 C  
HETATM    2  C   UNL     1     -13.373  13.729  71.175  1.00  0.00    -0.218 C  
ENDROOT
BRANCH   2   3
HETATM    3  C   UNL     1     -13.580  14.534  69.890  1.00  0.00     1.449 C  
BRANCH   3   4
HETATM    4  C   UNL     1     -13.008  13.870  68.682  1.00  0.00     1.789 A  
HETATM    5  N   UNL     1     -13.607  12.925  67.981  1.00  0.00     5.181 NA 
HETATM    6  C   UNL     1     -12.750  12.611  66.955  1.00  0.00     1.551 A  
HETATM    7  C   UNL     1     -11.607  13.376  67.048  1.00  0.00    -0.356 A  
HETATM    8  C   UNL     1     -13.107  11.585  65.949  1.00  0.00     5.375 C  
HETATM    9  N   UNL     1     -11.783  14.171  68.129  1.00  0.00    -0.336 NA 
HETATM   10  N   UNL     1     -10.871  15.121  68.500  1.00  0.00    -0.239 NA 
HETATM   11  C   UNL     1      -9.681  15.063  67.784  1.00  0.00    -0.215 C  
HETATM   12  N   UNL     1      -9.463  14.301  66.756  1.00  0.00    -0.264 N  
HETATM   13  O   UNL     1     -10.255  12.796  65.238  1.00  0.00    -0.285 OA 
HETATM   14  H   UNL     1      -8.549  14.336  66.304  1.00  0.00     0.000 HD 
HETATM   15  C   UNL     1     -10.419  13.451  66.257  1.00  0.00    -0.289 C  
BRANCH  11  16
HETATM   16  C   UNL     1      -8.538  15.951  68.231  1.00  0.00    -0.176 A  
HETATM   17  C   UNL     1      -6.683  17.471  67.809  1.00  0.00    -0.182 A  
HETATM   18  C   UNL     1      -7.729  16.671  67.318  1.00  0.00    -0.169 A  
HETATM   19  C   UNL     1      -8.256  16.025  69.606  1.00  0.00     0.140 A  
HETATM   20  C   UNL     1      -6.417  17.547  69.174  1.00  0.00    -0.240 A  
HETATM   21  C   UNL     1      -7.202  16.823  70.064  1.00  0.00     0.890 A  
BRANCH  18  22
HETATM   22  O   UNL     1      -8.015  16.576  65.980  1.00  0.00    -0.256 OA 
BRANCH  22  23
HETATM   23  C   UNL     1      -9.297  17.033  65.545  1.00  0.00     0.527 C  
HETATM   24  C   UNL     1     -10.291  15.890  65.632  1.00  0.00    -0.413 C  
ENDBRANCH  22  23
ENDBRANCH  18  22
BRANCH  21  25
HETATM   25  S   UNL     1      -6.713  16.746  71.767  1.00  0.00     5.415 S  
HETATM   26  O   UNL     1      -6.772  18.094  72.286  1.00  0.00     3.703 OA 
HETATM   27  O   UNL     1      -5.485  15.982  71.819  1.00  0.00     0.187 OA 
BRANCH  25  28
HETATM   28  N   UNL     1      -7.965  15.840  72.497  1.00  0.00     9.222 N  
HETATM   29  C   UNL     1      -8.878  16.573  73.433  1.00  0.00    17.620 C  
HETATM   30  C   UNL     1      -9.948  17.407  72.684  1.00  0.00     8.628 C  
HETATM   31  N   UNL     1     -10.706  16.679  71.638  1.00  0.00     1.358 NA 
HETATM   32  C   UNL     1      -9.756  15.963  70.757  1.00  0.00     1.502 C  
HETATM   33  C   UNL     1      -8.775  15.049  71.516  1.00  0.00     4.334 C  
BRANCH  31  34
HETATM   34  C   UNL     1     -11.732  15.816  72.239  1.00  0.00    -0.478 C  
HETATM   35  C   UNL     1     -12.619  16.529  73.253  1.00  0.00    -0.291 C  
ENDBRANCH  31  34
ENDBRANCH  25  28
ENDBRANCH  21  25
ENDBRANCH  11  16
ENDBRANCH   3   4
ENDBRANCH   2   3
TORSDOF 8
ENDMDL
MODEL      248
REMARK 921   NORMALIZED FREE ENERGY PREDICTED BY IDOCK:   56.67 KCAL/MOL
REMARK 922        TOTAL FREE ENERGY PREDICTED BY IDOCK:   82.17 KCAL/MOL
REMARK 923 INTER-LIGAND FREE ENERGY PREDICTED BY IDOCK:   70.91 KCAL/MOL
REMARK 924 INTRA-LIGAND FREE ENERGY PREDICTED BY IDOCK:   11.25 KCAL/MOL
REMARK 927      BINDING AFFINITY PREDICTED BY RF-SCORE:    0.00 PKD
ROOT
HETATM    1  C   UNL     1     -10.421  13.997  63.977  1.00  0.00     0.756 C  
HETATM    2  C   UNL     1     -11.808  14.564  63.701  1.00  0.00     0.405 C  
ENDROOT
BRANCH   2   3
HETATM    3  C   UNL     1     -12.655  13.697  62.766  1.00  0.00     1.265 C  
BRANCH   3   4
HETATM    4  C   UNL     1     -12.342  12.241  62.872  1.00  0.00     0.292 A  
HETATM    5  N   UNL     1     -13.114  11.266  62.431  1.00  0.00     1.629 NA 
HETATM    6  C   UNL     1     -12.450  10.098  62.709  1.00  0.00     6.993 A  
HETATM    7  C   UNL     1     -11.257  10.376  63.342  1.00  0.00     2.330 A  
HETATM    8  C   UNL     1     -13.023   8.785  62.336  1.00  0.00    17.089 C  
HETATM    9  N   UNL     1     -11.194  11.726  63.430  1.00  0.00    -0.386 NA 
HETATM   10  N   UNL     1     -10.109  12.379  63.949  1.00  0.00    -0.367 NA 
HETATM   11  C   UNL     1      -9.177  11.534  64.539  1.00  0.00     0.079 C  
HETATM   12  N   UNL     1      -9.211  10.237  64.498  1.00  0.00    -0.227 N  
HETATM   13  O   UNL     1     -10.198   8.333  63.722  1.00  0.00     4.970 OA 
HETATM   14  H   UNL     1      -8.476   9.710  64.969  1.00  0.00     0.000 HD 
HETATM   15  C   UNL     1     -10.204   9.550  63.842  1.00  0.00     2.152 C  
BRANCH  11  16
HETATM   16  C   UNL     1      -8.027  12.163  65.299  1.00  0.00     2.065 A  
HETATM   17  C   UNL     1      -5.881  13.306  65.422  1.00  0.00     9.293 A  
HETATM   18  C   UNL     1      -6.912  12.746  64.649  1.00  0.00     9.777 A  
HETATM   19  C   UNL     1      -8.061  12.125  66.703  1.00  0.00     0.016 A  
HETATM   20  C   UNL     1      -5.928  13.274  66.813  1.00  0.00     1.559 A  
HETATM   21  C   UNL     1      -7.015  12.682  67.446  1.00  0.00    -0.142 A  
BRANCH  18  22
HETATM   22  O   UNL     1      -6.893  12.763  63.277  1.00  0.00     6.689 OA 
BRANCH  22  23
HETATM   23  C   UNL     1      -5.983  11.880  62.619  1.00  0.00     1.877 C  
HETATM   24  C   UNL     1      -6.102  10.496  63.226  1.00  0.00    -0.085 C  
ENDBRANCH  22  23
ENDBRANCH  18  22
BRANCH  21  25
HETATM   25  S   UNL     1      -6.955  12.443  69.202  1.00  0.00     0.022 S  
HETATM   26  O   UNL     1      -6.297  13.600  69.766  1.00  0.00    -0.121 OA 
HETATM   27  O   UNL     1      -6.440  11.111  69.429  1.00  0.00    -0.076 OA 
BRANCH  25  28
HETATM   28  N   UNL     1      -8.600  12.492  69.664  1.00  0.00     1.636 N  
HETATM   29  C   UNL     1      -9.126  13.799  70.172  1.00  0.00     2.799 C  
HETATM   30  C   UNL     1      -9.442  14.795  69.027  1.00  0.00    -0.167 C  
HETATM   31  N   UNL     1     -10.279  14.258  67.928  1.00  0.00    -0.234 NA 
HETATM   32  C   UNL     1      -9.723  12.961  67.481  1.00  0.00    -0.205 C  
HETATM   33  C   UNL     1      -9.526  11.944  68.620  1.00  0.00    -0.080 C  
BRANCH  31  34
HETATM   34  C   UNL     1     -11.692  14.198  68.327  1.00  0.00    -0.348 C  
HETATM   35  C   UNL     1     -12.031  15.077  69.525  1.00  0.00    -0.346 C  
ENDBRANCH  31  34
ENDBRANCH  25  28
ENDBRANCH  21  25
ENDBRANCH  11  16
ENDBRANCH   3   4
ENDBRANCH   2   3
TORSDOF 8
ENDMDL
MODEL      249
REMARK 921   NORMALIZED FREE ENERGY PREDICTED BY IDOCK:   88.15 KCAL/MOL
REMARK 922        TOTAL FREE ENERGY PREDICTED BY IDOCK:  128.37 KCAL/MOL
REMARK 923 INTER-LIGAND FREE ENERGY PREDICTED BY IDOCK:  116.15 KCAL/MOL
REMARK 924 INTRA-LIGAND FREE ENERGY PREDICTED BY IDOCK:   12.21 KCAL/MOL
REMARK 927      BINDING AFFINITY PREDICTED BY RF-SCORE:    0.00 PKD
ROOT
HETATM    1  C   UNL     1     -10.502  13.806  64.236  1.00  0.00    -0.088 C  
HETATM    2  C   UNL     1     -11.968  14.207  64.132  1.00  0.00    -0.421 C  
ENDROOT
BRANCH   2   3
HETATM    3  C   UNL     1     -12.866  13.118  63.541  1.00  0.00     0.188 C  
BRANCH   3   4
HETATM    4  C   UNL     1     -12.690  11.791  64.201  1.00  0.00    -0.047 A  
HETATM    5  N   UNL     1     -13.338  10.689  63.871  1.00  0.00     3.978 NA 
HETATM    6  C   UNL     1     -12.868   9.706  64.707  1.00  0.00    14.629 A  
HETATM    7  C   UNL     1     -11.925  10.231  65.564  1.00  0.00     4.296 A  
HETATM    8  C   UNL     1     -13.370   8.317  64.610  1.00  0.00    23.777 C  
HETATM    9  N   UNL     1     -11.813  11.539  65.232  1.00  0.00    -0.042 NA 
HETATM   10  N   UNL     1     -10.913  12.376  65.833  1.00  0.00    -0.278 NA 
HETATM   11  C   UNL     1     -10.270  11.812  66.929  1.00  0.00    -0.209 C  
HETATM   12  N   UNL     1     -10.367  10.571  67.295  1.00  0.00    -0.215 N  
HETATM   13  O   UNL     1     -11.165   8.473  66.896  1.00  0.00     0.363 OA 
HETATM   14  H   UNL     1      -9.852  10.260  68.119  1.00  0.00     0.000 HD 
HETATM   15  C   UNL     1     -11.137   9.662  66.612  1.00  0.00     0.449 C  
BRANCH  11  16
HETATM   16  C   UNL     1      -9.387  12.708  67.773  1.00  0.00    -0.198 A  
HETATM   17  C   UNL     1      -7.543  14.268  68.075  1.00  0.00    -0.144 A  
HETATM   18  C   UNL     1      -8.323  13.464  67.226  1.00  0.00    -0.176 A  
HETATM   19  C   UNL     1      -9.619  12.749  69.158  1.00  0.00     0.561 A  
HETATM   20  C   UNL     1      -7.786  14.313  69.445  1.00  0.00     0.171 A  
HETATM   21  C   UNL     1      -8.820  13.552  69.980  1.00  0.00     2.825 A  
BRANCH  18  22
HETATM   22  O   UNL     1      -8.106  13.400  65.872  1.00  0.00     1.590 OA 
BRANCH  22  23
HETATM   23  C   UNL     1      -6.917  12.747  65.424  1.00  0.00     6.074 C  
HETATM   24  C   UNL     1      -7.279  11.716  64.374  1.00  0.00     2.665 C  
ENDBRANCH  22  23
ENDBRANCH  18  22
BRANCH  21  25
HETATM   25  S   UNL     1      -8.973  13.439  71.743  1.00  0.00    15.520 S  
HETATM   26  O   UNL     1     -10.176  14.151  72.111  1.00  0.00     4.174 OA 
HETATM   27  O   UNL     1      -7.691  13.806  72.302  1.00  0.00     5.406 OA 
BRANCH  25  28
HETATM   28  N   UNL     1      -9.242  11.772  72.010  1.00  0.00    16.350 N  
HETATM   29  C   UNL     1     -10.660  11.336  72.216  1.00  0.00     9.881 C  
HETATM   30  C   UNL     1     -11.446  11.226  70.883  1.00  0.00     0.532 C  
HETATM   31  N   UNL     1     -10.782  10.442  69.816  1.00  0.00    -0.267 NA 
HETATM   32  C   UNL     1      -9.383  10.903  69.669  1.00  0.00     0.380 C  
HETATM   33  C   UNL     1      -8.586  10.894  70.987  1.00  0.00     4.922 C  
BRANCH  31  34
HETATM   34  C   UNL     1     -10.913   9.000  70.065  1.00  0.00    -0.214 C  
HETATM   35  C   UNL     1     -12.025   8.643  71.045  1.00  0.00    -0.278 C  
ENDBRANCH  31  34
ENDBRANCH  25  28
ENDBRANCH  21  25
ENDBRANCH  11  16
ENDBRANCH   3   4
ENDBRANCH   2   3
TORSDOF 8
ENDMDL
