MODEL        1
REMARK 921   NORMALIZED FREE ENERGY PREDICTED BY IDOCK:   -7.06 KCAL/MOL
REMARK 922        TOTAL FREE ENERGY PREDICTED BY IDOCK:  -11.20 KCAL/MOL
REMARK 923 INTER-LIGAND FREE ENERGY PREDICTED BY IDOCK:   -9.53 KCAL/MOL
REMARK 924 INTRA-LIGAND FREE ENERGY PREDICTED BY IDOCK:   -1.67 KCAL/MOL
REMARK 927      BINDING AFFINITY PREDICTED BY RF-SCORE:    0.00 PKD
ROOT
HETATM    1  C   UNL     1      -9.929  10.189  66.251  1.00  0.00    -0.304 C  
HETATM    2  C   UNL     1      -8.621  10.755  65.961  1.00  0.00    -0.181 C  
HETATM    3  C   UNL     1      -8.553  10.546  67.459  1.00  0.00    -0.121 C  
HETATM    4  C   UNL     1     -11.980  14.454  68.313  1.00  0.00    -0.323 C  
HETATM    5  C   UNL     1     -10.463  10.137  68.248  1.00  0.00    -0.211 C  
HETATM    6  C   UNL     1      -9.445   9.380  67.885  1.00  0.00    -0.150 C  
HETATM    7  C   UNL     1     -10.866  14.239  67.242  1.00  0.00    -0.285 C  
HETATM    8  C   UNL     1      -9.623  15.258  67.632  1.00  0.00    -0.206 C  
HETATM    9  C   UNL     1      -9.081  16.216  66.517  1.00  0.00    -0.277 C  
HETATM   10  C   UNL     1     -10.398  16.713  65.875  1.00  0.00    -0.340 C  
HETATM   11  C   UNL     1     -10.885  15.603  64.948  1.00  0.00    -0.438 C  
HETATM   12  C   UNL     1      -9.161   7.891  67.978  1.00  0.00    -0.132 C  
HETATM   13  C   UNL     1      -9.433  10.711  69.329  1.00  0.00    -0.152 C  
HETATM   14  C   UNL     1     -11.593  14.574  65.857  1.00  0.00    -0.349 C  
HETATM   15  C   UNL     1     -12.189  13.386  65.101  1.00  0.00    -0.473 C  
HETATM   16  C   UNL     1     -10.265  12.236  68.943  1.00  0.00    -0.041 C  
HETATM   17  C   UNL     1     -11.268  12.184  64.991  1.00  0.00    -0.372 C  
HETATM   18  C   UNL     1     -10.337  12.734  67.384  1.00  0.00    -0.222 C  
HETATM   19  C   UNL     1     -10.938  11.632  66.381  1.00  0.00    -0.345 C  
ENDROOT
BRANCH   3  20
HETATM   20  N   UNL     1      -7.001  11.260  68.157  1.00  0.00    -0.067 N  
HETATM   21  C   UNL     1      -6.696  11.365  69.793  1.00  0.00    -0.076 C  
HETATM   22  C   UNL     1      -5.378  12.087  70.076  1.00  0.00    -0.097 C  
HETATM   23  C   UNL     1      -6.828  12.629  67.571  1.00  0.00    -0.151 C  
HETATM   24  C   UNL     1      -5.356  13.454  69.401  1.00  0.00    -0.076 C  
HETATM   25  C   UNL     1      -5.850  10.271  67.694  1.00  0.00    -0.045 C  
HETATM   26  C   UNL     1      -5.501  13.269  67.903  1.00  0.00    -0.118 C  
ENDBRANCH   3  20
BRANCH   5  27
HETATM   27  O   UNL     1     -10.863   8.948  69.259  1.00  0.00    -0.197 OA 
BRANCH  27  28
HETATM   28  C   UNL     1     -11.526   9.023  70.437  1.00  0.00    -0.173 C  
HETATM   29  C   UNL     1     -10.876   8.083  71.425  1.00  0.00    -0.271 C  
HETATM   30  O   UNL     1     -12.370   9.860  70.709  1.00  0.00    -0.295 OA 
ENDBRANCH  27  28
ENDBRANCH   5  27
BRANCH  10  31
HETATM   31  O   UNL     1     -10.589  18.072  65.534  1.00  0.00    -0.639 OA 
BRANCH  31  32
HETATM   32  C   UNL     1     -10.618  19.118  66.365  1.00  0.00    -0.435 C  
HETATM   33  C   UNL     1      -9.834  20.215  65.707  1.00  0.00    -0.292 C  
HETATM   34  O   UNL     1     -11.139  19.161  67.453  1.00  0.00    -0.426 OA 
ENDBRANCH  31  32
ENDBRANCH  10  31
BRANCH   9  35
HETATM   35  N   UNL     1      -8.101  17.258  66.861  1.00  0.00    -0.213 NA 
HETATM   36  C   UNL     1      -6.732  16.951  68.874  1.00  0.00    -0.199 C  
HETATM   37  C   UNL     1      -7.921  17.661  68.243  1.00  0.00    -0.272 C  
HETATM   38  C   UNL     1      -5.449  17.302  68.133  1.00  0.00    -0.125 C  
HETATM   39  C   UNL     1      -5.614  16.976  66.659  1.00  0.00    -0.178 C  
HETATM   40  C   UNL     1      -6.917  17.501  66.038  1.00  0.00    -0.261 C  
ENDBRANCH   9  35
TORSDOF 6
ENDMDL
MODEL        2
REMARK 921   NORMALIZED FREE ENERGY PREDICTED BY IDOCK:   -6.97 KCAL/MOL
REMARK 922        TOTAL FREE ENERGY PREDICTED BY IDOCK:  -11.08 KCAL/MOL
REMARK 923 INTER-LIGAND FREE ENERGY PREDICTED BY IDOCK:  -10.04 KCAL/MOL
REMARK 924 INTRA-LIGAND FREE ENERGY PREDICTED BY IDOCK:   -1.04 KCAL/MOL
REMARK 927      BINDING AFFINITY PREDICTED BY RF-SCORE:    0.00 PKD
ROOT
HETATM    1  C   UNL     1      -7.188  10.632  67.849  1.00  0.00    -0.087 C  
HETATM    2  C   UNL     1      -7.766  10.621  69.184  1.00  0.00    -0.138 C  
HETATM    3  C   UNL     1      -8.834   9.924  68.369  1.00  0.00    -0.120 C  
HETATM    4  C   UNL     1     -10.138  14.418  65.952  1.00  0.00    -0.344 C  
HETATM    5  C   UNL     1      -8.483  10.166  66.306  1.00  0.00    -0.128 C  
HETATM    6  C   UNL     1      -8.217   9.205  67.170  1.00  0.00    -0.113 C  
HETATM    7  C   UNL     1      -9.643  14.099  67.396  1.00  0.00    -0.229 C  
HETATM    8  C   UNL     1     -10.948  14.273  68.399  1.00  0.00    -0.267 C  
HETATM    9  C   UNL     1     -10.793  15.200  69.652  1.00  0.00    -0.286 C  
HETATM   10  C   UNL     1     -10.039  16.408  69.047  1.00  0.00    -0.262 C  
HETATM   11  C   UNL     1      -8.572  16.001  68.932  1.00  0.00    -0.229 C  
HETATM   12  C   UNL     1      -7.642   7.806  67.035  1.00  0.00    -0.100 C  
HETATM   13  C   UNL     1     -10.007   9.836  66.662  1.00  0.00    -0.292 C  
HETATM   14  C   UNL     1      -8.468  15.156  67.643  1.00  0.00    -0.171 C  
HETATM   15  C   UNL     1      -7.050  14.676  67.330  1.00  0.00    -0.157 C  
HETATM   16  C   UNL     1     -10.162  11.602  66.523  1.00  0.00    -0.249 C  
HETATM   17  C   UNL     1      -6.714  13.303  67.882  1.00  0.00    -0.143 C  
HETATM   18  C   UNL     1      -9.193  12.563  67.429  1.00  0.00    -0.186 C  
HETATM   19  C   UNL     1      -7.627  12.239  67.266  1.00  0.00    -0.152 C  
ENDROOT
BRANCH   3  20
HETATM   20  N   UNL     1     -10.340   9.605  69.387  1.00  0.00    -0.201 N  
HETATM   21  C   UNL     1     -11.709  10.553  69.319  1.00  0.00    -0.209 C  
HETATM   22  C   UNL     1     -12.756  10.107  70.340  1.00  0.00    -0.191 C  
HETATM   23  C   UNL     1      -9.909   9.528  70.821  1.00  0.00    -0.239 C  
HETATM   24  C   UNL     1     -12.158  10.068  71.742  1.00  0.00    -0.323 C  
HETATM   25  C   UNL     1     -10.901   8.216  68.865  1.00  0.00     0.035 C  
HETATM   26  C   UNL     1     -11.005   9.084  71.761  1.00  0.00    -0.443 C  
ENDBRANCH   3  20
BRANCH   5  27
HETATM   27  O   UNL     1      -8.496   9.018  65.176  1.00  0.00    -0.147 OA 
BRANCH  27  28
HETATM   28  C   UNL     1      -8.614   9.150  63.834  1.00  0.00    -0.170 C  
HETATM   29  C   UNL     1      -7.883   8.009  63.165  1.00  0.00    -0.148 C  
HETATM   30  O   UNL     1      -9.360   9.936  63.275  1.00  0.00    -0.277 OA 
ENDBRANCH  27  28
ENDBRANCH   5  27
BRANCH  10  31
HETATM   31  O   UNL     1     -10.395  17.739  69.366  1.00  0.00    -0.253 OA 
BRANCH  31  32
HETATM   32  C   UNL     1     -10.021  18.850  68.726  1.00  0.00    -0.408 C  
HETATM   33  C   UNL     1     -10.645  18.796  67.363  1.00  0.00    -0.505 C  
HETATM   34  O   UNL     1      -9.290  19.715  69.147  1.00  0.00    -0.326 OA 
ENDBRANCH  31  32
ENDBRANCH  10  31
BRANCH   9  35
HETATM   35  N   UNL     1     -11.971  15.524  70.472  1.00  0.00    -0.340 NA 
HETATM   36  C   UNL     1     -13.111  13.696  71.646  1.00  0.00    -0.455 C  
HETATM   37  C   UNL     1     -13.129  14.650  70.461  1.00  0.00    -0.202 C  
HETATM   38  C   UNL     1     -13.148  14.473  72.955  1.00  0.00    -0.614 C  
HETATM   39  C   UNL     1     -11.999  15.466  72.983  1.00  0.00    -0.557 C  
HETATM   40  C   UNL     1     -11.858  16.305  71.703  1.00  0.00    -0.416 C  
ENDBRANCH   9  35
TORSDOF 6
ENDMDL
MODEL        3
REMARK 921   NORMALIZED FREE ENERGY PREDICTED BY IDOCK:   -6.94 KCAL/MOL
REMARK 922        TOTAL FREE ENERGY PREDICTED BY IDOCK:  -11.04 KCAL/MOL
REMARK 923 INTER-LIGAND FREE ENERGY PREDICTED BY IDOCK:  -10.23 KCAL/MOL
REMARK 924 INTRA-LIGAND FREE ENERGY PREDICTED BY IDOCK:   -0.81 KCAL/MOL
REMARK 927      BINDING AFFINITY PREDICTED BY RF-SCORE:    0.00 PKD
ROOT
HETATM    1  C   UNL     1      -7.731   9.035  69.235  1.00  0.00    -0.090 C  
HETATM    2  C   UNL     1      -8.312   9.430  70.509  1.00  0.00    -0.233 C  
HETATM    3  C   UNL     1      -9.358   8.484  69.961  1.00  0.00    -0.163 C  
HETATM    4  C   UNL     1     -10.778  11.953  66.260  1.00  0.00    -0.309 C  
HETATM    5  C   UNL     1      -9.009   8.074  67.924  1.00  0.00    -0.129 C  
HETATM    6  C   UNL     1      -8.719   7.441  69.045  1.00  0.00    -0.133 C  
HETATM    7  C   UNL     1     -10.278  12.118  67.729  1.00  0.00    -0.207 C  
HETATM    8  C   UNL     1     -11.590  12.563  68.633  1.00  0.00    -0.357 C  
HETATM    9  C   UNL     1     -11.463  13.841  69.531  1.00  0.00    -0.267 C  
HETATM   10  C   UNL     1     -10.741  14.817  68.572  1.00  0.00    -0.247 C  
HETATM   11  C   UNL     1      -9.263  14.434  68.582  1.00  0.00    -0.181 C  
HETATM   12  C   UNL     1      -8.106   6.086  69.354  1.00  0.00    -0.111 C  
HETATM   13  C   UNL     1     -10.524   7.832  68.375  1.00  0.00    -0.207 C  
HETATM   14  C   UNL     1      -9.132  13.230  67.623  1.00  0.00    -0.204 C  
HETATM   15  C   UNL     1      -7.701  12.713  67.469  1.00  0.00    -0.161 C  
HETATM   16  C   UNL     1     -10.727   9.460  67.688  1.00  0.00    -0.295 C  
HETATM   17  C   UNL     1      -7.329  11.593  68.423  1.00  0.00    -0.096 C  
HETATM   18  C   UNL     1      -9.786  10.682  68.240  1.00  0.00    -0.169 C  
HETATM   19  C   UNL     1      -8.212  10.366  68.178  1.00  0.00    -0.116 C  
ENDROOT
BRANCH   3  20
HETATM   20  N   UNL     1     -10.858   8.461  71.036  1.00  0.00    -0.231 N  
HETATM   21  C   UNL     1     -12.074   7.330  70.888  1.00  0.00    -0.288 C  
HETATM   22  C   UNL     1     -13.230   7.616  71.846  1.00  0.00    -0.293 C  
HETATM   23  C   UNL     1     -11.487   9.820  70.966  1.00  0.00    -0.383 C  
HETATM   24  C   UNL     1     -13.746   9.039  71.658  1.00  0.00    -0.442 C  
HETATM   25  C   UNL     1     -10.314   8.137  72.491  1.00  0.00    -0.330 C  
HETATM   26  C   UNL     1     -12.622  10.015  71.943  1.00  0.00    -0.454 C  
ENDBRANCH   3  20
BRANCH   5  27
HETATM   27  O   UNL     1      -8.987   6.629  67.213  1.00  0.00    -0.115 OA 
BRANCH  27  28
HETATM   28  C   UNL     1      -8.754   6.326  65.914  1.00  0.00    -0.149 C  
HETATM   29  C   UNL     1      -8.191   7.544  65.221  1.00  0.00    -0.130 C  
HETATM   30  O   UNL     1      -8.796   5.202  65.443  1.00  0.00    -0.148 OA 
ENDBRANCH  27  28
ENDBRANCH   5  27
BRANCH  10  31
HETATM   31  O   UNL     1     -11.133  16.171  68.458  1.00  0.00    -0.322 OA 
BRANCH  31  32
HETATM   32  C   UNL     1     -10.550  17.122  67.724  1.00  0.00    -0.360 C  
HETATM   33  C   UNL     1     -10.058  18.167  68.681  1.00  0.00    -0.406 C  
HETATM   34  O   UNL     1     -10.467  17.157  66.519  1.00  0.00    -0.312 OA 
ENDBRANCH  31  32
ENDBRANCH  10  31
BRANCH   9  35
HETATM   35  N   UNL     1     -12.652  14.375  70.214  1.00  0.00    -0.348 NA 
HETATM   36  C   UNL     1     -13.189  13.525  72.452  1.00  0.00    -0.577 C  
HETATM   37  C   UNL     1     -13.519  13.489  70.967  1.00  0.00     0.102 C  
HETATM   38  C   UNL     1     -13.390  14.928  73.008  1.00  0.00    -0.556 C  
HETATM   39  C   UNL     1     -12.564  15.913  72.198  1.00  0.00    -0.522 C  
HETATM   40  C   UNL     1     -12.713  15.761  70.676  1.00  0.00    -0.290 C  
ENDBRANCH   9  35
TORSDOF 6
ENDMDL
MODEL        4
REMARK 921   NORMALIZED FREE ENERGY PREDICTED BY IDOCK:   -6.91 KCAL/MOL
REMARK 922        TOTAL FREE ENERGY PREDICTED BY IDOCK:  -11.01 KCAL/MOL
REMARK 923 INTER-LIGAND FREE ENERGY PREDICTED BY IDOCK:   -9.92 KCAL/MOL
REMARK 924 INTRA-LIGAND FREE ENERGY PREDICTED BY IDOCK:   -1.09 KCAL/MOL
REMARK 927      BINDING AFFINITY PREDICTED BY RF-SCORE:    0.00 PKD
ROOT
HETATM    1  C   UNL     1      -7.785   7.895  69.386  1.00  0.00    -0.105 C  
HETATM    2  C   UNL     1      -8.291   8.685  70.498  1.00  0.00    -0.147 C  
HETATM    3  C   UNL     1      -9.489   7.832  70.142  1.00  0.00    -0.160 C  
HETATM    4  C   UNL     1     -10.234  10.484  65.652  1.00  0.00    -0.315 C  
HETATM    5  C   UNL     1      -9.210   6.882  68.283  1.00  0.00    -0.123 C  
HETATM    6  C   UNL     1      -9.047   6.501  69.535  1.00  0.00    -0.140 C  
HETATM    7  C   UNL     1      -9.720  10.913  67.061  1.00  0.00    -0.203 C  
HETATM    8  C   UNL     1     -10.933  11.790  67.767  1.00  0.00    -0.277 C  
HETATM    9  C   UNL     1     -10.580  13.205  68.337  1.00  0.00    -0.251 C  
HETATM   10  C   UNL     1      -9.686  13.775  67.209  1.00  0.00    -0.242 C  
HETATM   11  C   UNL     1      -8.303  13.153  67.384  1.00  0.00    -0.188 C  
HETATM   12  C   UNL     1      -8.693   5.178  70.189  1.00  0.00    -0.128 C  
HETATM   13  C   UNL     1     -10.746   7.027  68.703  1.00  0.00    -0.225 C  
HETATM   14  C   UNL     1      -8.390  11.746  66.749  1.00  0.00    -0.165 C  
HETATM   15  C   UNL     1      -7.076  10.965  66.794  1.00  0.00    -0.129 C  
HETATM   16  C   UNL     1     -10.645   8.447  67.636  1.00  0.00    -0.265 C  
HETATM   17  C   UNL     1      -6.920  10.064  68.006  1.00  0.00    -0.080 C  
HETATM   18  C   UNL     1      -9.500   9.583  67.925  1.00  0.00    -0.149 C  
HETATM   19  C   UNL     1      -8.010   8.989  68.019  1.00  0.00    -0.101 C  
ENDROOT
BRANCH   3  20
HETATM   20  N   UNL     1     -10.973   8.337  71.116  1.00  0.00    -0.239 N  
HETATM   21  C   UNL     1     -12.426   7.521  71.061  1.00  0.00    -0.212 C  
HETATM   22  C   UNL     1     -13.499   8.221  71.895  1.00  0.00    -0.372 C  
HETATM   23  C   UNL     1     -11.248   9.778  70.809  1.00  0.00    -0.348 C  
HETATM   24  C   UNL     1     -13.646   9.678  71.470  1.00  0.00    -0.376 C  
HETATM   25  C   UNL     1     -10.560   8.125  72.633  1.00  0.00    -0.344 C  
HETATM   26  C   UNL     1     -12.323  10.390  71.676  1.00  0.00    -0.402 C  
ENDBRANCH   3  20
BRANCH   5  27
HETATM   27  O   UNL     1      -9.449   5.326  67.940  1.00  0.00    -0.116 OA 
BRANCH  27  28
HETATM   28  C   UNL     1      -9.391   4.703  66.740  1.00  0.00    -0.146 C  
HETATM   29  C   UNL     1      -8.845   5.668  65.713  1.00  0.00    -0.156 C  
HETATM   30  O   UNL     1      -9.554   3.507  66.568  1.00  0.00    -0.181 OA 
ENDBRANCH  27  28
ENDBRANCH   5  27
BRANCH  10  31
HETATM   31  O   UNL     1      -9.825  15.107  66.755  1.00  0.00    -0.231 OA 
BRANCH  31  32
HETATM   32  C   UNL     1     -10.318  15.513  65.582  1.00  0.00    -0.384 C  
HETATM   33  C   UNL     1     -10.742  14.280  64.840  1.00  0.00    -0.448 C  
HETATM   34  O   UNL     1     -10.376  16.649  65.177  1.00  0.00    -0.630 OA 
ENDBRANCH  31  32
ENDBRANCH  10  31
BRANCH   9  35
HETATM   35  N   UNL     1     -11.654  14.091  68.813  1.00  0.00    -0.307 NA 
HETATM   36  C   UNL     1     -12.291  13.981  71.180  1.00  0.00    -0.443 C  
HETATM   37  C   UNL     1     -12.644  13.596  69.751  1.00  0.00    -0.001 C  
HETATM   38  C   UNL     1     -12.251  15.496  71.328  1.00  0.00    -0.447 C  
HETATM   39  C   UNL     1     -11.286  16.076  70.307  1.00  0.00    -0.391 C  
HETATM   40  C   UNL     1     -11.481  15.541  68.880  1.00  0.00    -0.354 C  
ENDBRANCH   9  35
TORSDOF 6
ENDMDL
MODEL        5
REMARK 921   NORMALIZED FREE ENERGY PREDICTED BY IDOCK:   -6.59 KCAL/MOL
REMARK 922        TOTAL FREE ENERGY PREDICTED BY IDOCK:  -10.57 KCAL/MOL
REMARK 923 INTER-LIGAND FREE ENERGY PREDICTED BY IDOCK:   -9.31 KCAL/MOL
REMARK 924 INTRA-LIGAND FREE ENERGY PREDICTED BY IDOCK:   -1.26 KCAL/MOL
REMARK 927      BINDING AFFINITY PREDICTED BY RF-SCORE:    0.00 PKD
ROOT
HETATM    1  C   UNL     1     -10.753  10.191  66.628  1.00  0.00    -0.156 C  
HETATM    2  C   UNL     1      -9.377  10.447  66.232  1.00  0.00    -0.202 C  
HETATM    3  C   UNL     1      -9.245  10.239  67.726  1.00  0.00    -0.141 C  
HETATM    4  C   UNL     1     -11.641  14.822  68.729  1.00  0.00    -0.347 C  
HETATM    5  C   UNL     1     -11.134  10.274  68.659  1.00  0.00    -0.239 C  
HETATM    6  C   UNL     1     -10.340   9.306  68.242  1.00  0.00    -0.257 C  
HETATM    7  C   UNL     1     -10.686  14.355  67.586  1.00  0.00    -0.263 C  
HETATM    8  C   UNL     1      -9.222  15.073  67.862  1.00  0.00    -0.182 C  
HETATM    9  C   UNL     1      -8.565  15.877  66.689  1.00  0.00    -0.285 C  
HETATM   10  C   UNL     1      -9.782  16.651  66.131  1.00  0.00    -0.303 C  
HETATM   11  C   UNL     1     -10.573  15.672  65.267  1.00  0.00    -0.448 C  
HETATM   12  C   UNL     1     -10.389   7.792  68.351  1.00  0.00    -0.231 C  
HETATM   13  C   UNL     1      -9.924  10.611  69.649  1.00  0.00    -0.090 C  
HETATM   14  C   UNL     1     -11.423  14.834  66.249  1.00  0.00    -0.316 C  
HETATM   15  C   UNL     1     -12.323  13.804  65.566  1.00  0.00    -0.507 C  
HETATM   16  C   UNL     1     -10.422  12.281  69.288  1.00  0.00     0.149 C  
HETATM   17  C   UNL     1     -11.704  12.426  65.419  1.00  0.00    -0.452 C  
HETATM   18  C   UNL     1     -10.498  12.771  67.726  1.00  0.00    -0.228 C  
HETATM   19  C   UNL     1     -11.402  11.825  66.795  1.00  0.00    -0.385 C  
ENDROOT
BRANCH   3  20
HETATM   20  N   UNL     1      -7.525  10.592  68.294  1.00  0.00    -0.088 N  
HETATM   21  C   UNL     1      -7.099  10.715  69.901  1.00  0.00    -0.129 C  
HETATM   22  C   UNL     1      -5.631  11.108  70.067  1.00  0.00    -0.087 C  
HETATM   23  C   UNL     1      -7.068  11.842  67.604  1.00  0.00    -0.107 C  
HETATM   24  C   UNL     1      -5.325  12.387  69.295  1.00  0.00    -0.069 C  
HETATM   25  C   UNL     1      -6.678   9.328  67.848  1.00  0.00    -0.071 C  
HETATM   26  C   UNL     1      -5.607  12.157  67.824  1.00  0.00    -0.081 C  
ENDBRANCH   3  20
BRANCH   5  27
HETATM   27  O   UNL     1     -11.712   9.213  69.724  1.00  0.00     0.109 OA 
BRANCH  27  28
HETATM   28  C   UNL     1     -11.947   9.380  71.046  1.00  0.00    -0.315 C  
HETATM   29  C   UNL     1     -13.099  10.342  71.220  1.00  0.00    -0.494 C  
HETATM   30  O   UNL     1     -11.450   8.705  71.932  1.00  0.00    -0.302 OA 
ENDBRANCH  27  28
ENDBRANCH   5  27
BRANCH  10  31
HETATM   31  O   UNL     1      -9.691  18.016  65.772  1.00  0.00    -0.521 OA 
BRANCH  31  32
HETATM   32  C   UNL     1     -10.617  18.962  65.951  1.00  0.00    -0.373 C  
HETATM   33  C   UNL     1     -10.889  19.027  67.424  1.00  0.00    -0.496 C  
HETATM   34  O   UNL     1     -11.160  19.615  65.091  1.00  0.00    -0.355 OA 
ENDBRANCH  31  32
ENDBRANCH  10  31
BRANCH   9  35
HETATM   35  N   UNL     1      -7.355  16.675  66.937  1.00  0.00    -0.201 NA 
HETATM   36  C   UNL     1      -7.237  18.001  68.999  1.00  0.00    -0.216 C  
HETATM   37  C   UNL     1      -7.465  18.010  67.494  1.00  0.00    -0.211 C  
HETATM   38  C   UNL     1      -5.838  17.494  69.321  1.00  0.00    -0.215 C  
HETATM   39  C   UNL     1      -5.640  16.128  68.688  1.00  0.00    -0.105 C  
HETATM   40  C   UNL     1      -6.064  16.048  67.213  1.00  0.00    -0.097 C  
ENDBRANCH   9  35
TORSDOF 6
ENDMDL
MODEL        6
REMARK 921   NORMALIZED FREE ENERGY PREDICTED BY IDOCK:   -6.22 KCAL/MOL
REMARK 922        TOTAL FREE ENERGY PREDICTED BY IDOCK:  -10.07 KCAL/MOL
REMARK 923 INTER-LIGAND FREE ENERGY PREDICTED BY IDOCK:   -9.12 KCAL/MOL
REMARK 924 INTRA-LIGAND FREE ENERGY PREDICTED BY IDOCK:   -0.95 KCAL/MOL
REMARK 927      BINDING AFFINITY PREDICTED BY RF-SCORE:    0.00 PKD
ROOT
HETATM    1  C   UNL     1      -9.920   9.862  65.510  1.00  0.00    -0.363 C  
HETATM    2  C   UNL     1      -8.647  10.532  65.292  1.00  0.00    -0.185 C  
HETATM    3  C   UNL     1      -8.457   9.926  66.666  1.00  0.00    -0.125 C  
HETATM    4  C   UNL     1     -11.863  13.328  68.805  1.00  0.00    -0.371 C  
HETATM    5  C   UNL     1     -10.292   9.249  67.449  1.00  0.00    -0.263 C  
HETATM    6  C   UNL     1      -9.295   8.657  66.819  1.00  0.00    -0.229 C  
HETATM    7  C   UNL     1     -10.835  13.452  67.638  1.00  0.00    -0.273 C  
HETATM    8  C   UNL     1      -9.580  14.372  68.202  1.00  0.00    -0.218 C  
HETATM    9  C   UNL     1      -9.143  15.616  67.356  1.00  0.00    -0.194 C  
HETATM   10  C   UNL     1     -10.514  16.221  66.972  1.00  0.00    -0.306 C  
HETATM   11  C   UNL     1     -11.057  15.388  65.814  1.00  0.00    -0.260 C  
HETATM   12  C   UNL     1      -8.982   7.210  66.480  1.00  0.00    -0.172 C  
HETATM   13  C   UNL     1      -9.188   9.544  68.568  1.00  0.00    -0.131 C  
HETATM   14  C   UNL     1     -11.675  14.125  66.455  1.00  0.00    -0.404 C  
HETATM   15  C   UNL     1     -12.311  13.167  65.447  1.00  0.00    -0.532 C  
HETATM   16  C   UNL     1     -10.071  11.085  68.677  1.00  0.00    -0.207 C  
HETATM   17  C   UNL     1     -11.384  12.075  64.945  1.00  0.00    -0.366 C  
HETATM   18  C   UNL     1     -10.274  11.986  67.324  1.00  0.00    -0.221 C  
HETATM   19  C   UNL     1     -10.937  11.178  66.103  1.00  0.00    -0.203 C  
ENDROOT
BRANCH   3  20
HETATM   20  N   UNL     1      -6.865  10.478  67.419  1.00  0.00    -0.075 N  
HETATM   21  C   UNL     1      -6.480  10.242  69.023  1.00  0.00    -0.045 C  
HETATM   22  C   UNL     1      -5.142  10.888  69.384  1.00  0.00    -0.038 C  
HETATM   23  C   UNL     1      -6.707  11.939  67.122  1.00  0.00    -0.142 C  
HETATM   24  C   UNL     1      -5.138  12.365  69.007  1.00  0.00    -0.055 C  
HETATM   25  C   UNL     1      -5.749   9.607  66.704  1.00  0.00    -0.054 C  
HETATM   26  C   UNL     1      -5.358  12.496  67.513  1.00  0.00    -0.111 C  
ENDBRANCH   3  20
BRANCH   5  27
HETATM   27  O   UNL     1     -10.593   7.816  68.122  1.00  0.00    -0.193 OA 
BRANCH  27  28
HETATM   28  C   UNL     1     -10.890   7.529  69.410  1.00  0.00    -0.150 C  
HETATM   29  C   UNL     1     -10.451   6.115  69.711  1.00  0.00    -0.299 C  
HETATM   30  O   UNL     1     -11.257   8.346  70.239  1.00  0.00    -0.245 OA 
ENDBRANCH  27  28
ENDBRANCH   5  27
BRANCH  10  31
HETATM   31  O   UNL     1     -10.752  17.614  67.031  1.00  0.00    -0.291 OA 
BRANCH  31  32
HETATM   32  C   UNL     1     -10.764  18.475  66.011  1.00  0.00    -0.212 C  
HETATM   33  C   UNL     1     -10.315  19.798  66.557  1.00  0.00    -0.621 C  
HETATM   34  O   UNL     1     -11.106  18.246  64.876  1.00  0.00    -0.615 OA 
ENDBRANCH  31  32
ENDBRANCH  10  31
BRANCH   9  35
HETATM   35  N   UNL     1      -8.155  16.560  67.900  1.00  0.00    -0.161 NA 
HETATM   36  C   UNL     1      -6.281  15.661  69.205  1.00  0.00    -0.119 C  
HETATM   37  C   UNL     1      -7.627  16.370  69.238  1.00  0.00    -0.180 C  
HETATM   38  C   UNL     1      -5.262  16.488  68.434  1.00  0.00    -0.106 C  
HETATM   39  C   UNL     1      -5.804  16.787  67.046  1.00  0.00    -0.206 C  
HETATM   40  C   UNL     1      -7.249  17.309  67.031  1.00  0.00    -0.183 C  
ENDBRANCH   9  35
TORSDOF 6
ENDMDL
MODEL        7
REMARK 921   NORMALIZED FREE ENERGY PREDICTED BY IDOCK:   -6.05 KCAL/MOL
REMARK 922        TOTAL FREE ENERGY PREDICTED BY IDOCK:   -9.84 KCAL/MOL
REMARK 923 INTER-LIGAND FREE ENERGY PREDICTED BY IDOCK:   -9.92 KCAL/MOL
REMARK 924 INTRA-LIGAND FREE ENERGY PREDICTED BY IDOCK:    0.08 KCAL/MOL
REMARK 927      BINDING AFFINITY PREDICTED BY RF-SCORE:    0.00 PKD
ROOT
HETATM    1  C   UNL     1     -11.074  14.302  66.106  1.00  0.00    -0.324 C  
HETATM    2  C   UNL     1     -12.176  13.951  66.989  1.00  0.00    -0.392 C  
HETATM    3  C   UNL     1     -11.262  14.728  67.913  1.00  0.00    -0.306 C  
HETATM    4  C   UNL     1      -7.718  10.831  67.933  1.00  0.00    -0.100 C  
HETATM    5  C   UNL     1      -9.367  15.005  67.036  1.00  0.00    -0.224 C  
HETATM    6  C   UNL     1     -10.447  15.757  67.129  1.00  0.00    -0.309 C  
HETATM    7  C   UNL     1      -9.277  10.844  67.858  1.00  0.00    -0.152 C  
HETATM    8  C   UNL     1      -9.831  10.332  69.330  1.00  0.00    -0.247 C  
HETATM    9  C   UNL     1     -10.864   9.154  69.358  1.00  0.00    -0.151 C  
HETATM   10  C   UNL     1     -10.252   8.188  68.315  1.00  0.00    -0.206 C  
HETATM   11  C   UNL     1     -10.624   8.731  66.937  1.00  0.00    -0.263 C  
HETATM   12  C   UNL     1     -10.761  17.191  66.743  1.00  0.00    -0.097 C  
HETATM   13  C   UNL     1      -9.356  15.115  68.631  1.00  0.00    -0.199 C  
HETATM   14  C   UNL     1      -9.612   9.860  66.641  1.00  0.00    -0.235 C  
HETATM   15  C   UNL     1      -9.799  10.517  65.273  1.00  0.00    -0.345 C  
HETATM   16  C   UNL     1      -8.823  13.423  68.496  1.00  0.00    -0.068 C  
HETATM   17  C   UNL     1     -10.689  11.746  65.281  1.00  0.00    -0.338 C  
HETATM   18  C   UNL     1      -9.742  12.362  67.652  1.00  0.00    -0.195 C  
HETATM   19  C   UNL     1     -10.079  12.844  66.157  1.00  0.00    -0.281 C  
ENDROOT
BRANCH   3  20
HETATM   20  N   UNL     1     -11.877  14.674  69.652  1.00  0.00    -0.301 N  
HETATM   21  C   UNL     1     -13.409  15.158  70.097  1.00  0.00     0.231 C  
HETATM   22  C   UNL     1     -13.605  15.092  71.612  1.00  0.00    -0.530 C  
HETATM   23  C   UNL     1     -10.897  15.423  70.503  1.00  0.00    -0.300 C  
HETATM   24  C   UNL     1     -12.522  15.890  72.329  1.00  0.00    -0.543 C  
HETATM   25  C   UNL     1     -11.923  13.133  70.023  1.00  0.00    -0.321 C  
HETATM   26  C   UNL     1     -11.166  15.307  71.985  1.00  0.00    -0.323 C  
ENDBRANCH   3  20
BRANCH   5  27
HETATM   27  O   UNL     1      -8.534  16.381  66.934  1.00  0.00    -0.184 OA 
BRANCH  27  28
HETATM   28  C   UNL     1      -7.211  16.557  66.711  1.00  0.00    -0.225 C  
HETATM   29  C   UNL     1      -6.989  17.941  66.149  1.00  0.00    -0.336 C  
HETATM   30  O   UNL     1      -6.333  15.803  67.097  1.00  0.00    -0.305 OA 
ENDBRANCH  27  28
ENDBRANCH   5  27
BRANCH  10  31
HETATM   31  O   UNL     1     -10.185   6.795  68.545  1.00  0.00    -0.159 OA 
BRANCH  31  32
HETATM   32  C   UNL     1      -9.084   6.056  68.710  1.00  0.00    -0.124 C  
HETATM   33  C   UNL     1      -7.954   7.011  68.951  1.00  0.00    -0.120 C  
HETATM   34  O   UNL     1      -9.005   4.852  68.641  1.00  0.00    -0.100 OA 
ENDBRANCH  31  32
ENDBRANCH  10  31
BRANCH   9  35
HETATM   35  N   UNL     1     -11.250   8.550  70.642  1.00  0.00    -0.254 NA 
HETATM   36  C   UNL     1     -12.936   9.696  72.008  1.00  0.00    -0.518 C  
HETATM   37  C   UNL     1     -11.459   9.388  71.808  1.00  0.00    -0.343 C  
HETATM   38  C   UNL     1     -13.721   8.412  72.233  1.00  0.00    -0.327 C  
HETATM   39  C   UNL     1     -13.472   7.460  71.075  1.00  0.00    -0.132 C  
HETATM   40  C   UNL     1     -11.989   7.290  70.707  1.00  0.00    -0.272 C  
ENDBRANCH   9  35
TORSDOF 6
ENDMDL
MODEL        8
REMARK 921   NORMALIZED FREE ENERGY PREDICTED BY IDOCK:   -5.87 KCAL/MOL
REMARK 922        TOTAL FREE ENERGY PREDICTED BY IDOCK:   -9.60 KCAL/MOL
REMARK 923 INTER-LIGAND FREE ENERGY PREDICTED BY IDOCK:   -8.30 KCAL/MOL
REMARK 924 INTRA-LIGAND FREE ENERGY PREDICTED BY IDOCK:   -1.31 KCAL/MOL
REMARK 927      BINDING AFFINITY PREDICTED BY RF-SCORE:    0.00 PKD
ROOT
HETATM    1  C   UNL     1      -7.092   7.581  68.577  1.00  0.00    -0.081 C  
HETATM    2  C   UNL     1      -7.619   8.185  69.791  1.00  0.00    -0.090 C  
HETATM    3  C   UNL     1      -8.716   7.210  69.418  1.00  0.00    -0.134 C  
HETATM    4  C   UNL     1     -10.120  10.140  65.272  1.00  0.00    -0.344 C  
HETATM    5  C   UNL     1      -8.443   6.486  67.459  1.00  0.00    -0.120 C  
HETATM    6  C   UNL     1      -8.143   6.017  68.655  1.00  0.00    -0.107 C  
HETATM    7  C   UNL     1      -9.570  10.503  66.687  1.00  0.00    -0.210 C  
HETATM    8  C   UNL     1     -10.837  11.132  67.545  1.00  0.00    -0.303 C  
HETATM    9  C   UNL     1     -10.637  12.523  68.236  1.00  0.00    -0.231 C  
HETATM   10  C   UNL     1      -9.909  13.314  67.124  1.00  0.00    -0.237 C  
HETATM   11  C   UNL     1      -8.446  12.878  67.155  1.00  0.00    -0.179 C  
HETATM   12  C   UNL     1      -7.570   4.700  69.150  1.00  0.00    -0.056 C  
HETATM   13  C   UNL     1      -9.951   6.376  67.978  1.00  0.00    -0.144 C  
HETATM   14  C   UNL     1      -8.389  11.539  66.386  1.00  0.00    -0.118 C  
HETATM   15  C   UNL     1      -6.983  10.948  66.276  1.00  0.00    -0.120 C  
HETATM   16  C   UNL     1     -10.116   7.889  67.059  1.00  0.00    -0.347 C  
HETATM   17  C   UNL     1      -6.623   9.969  67.379  1.00  0.00    -0.069 C  
HETATM   18  C   UNL     1      -9.115   9.141  67.396  1.00  0.00    -0.142 C  
HETATM   19  C   UNL     1      -7.557   8.756  67.344  1.00  0.00    -0.090 C  
ENDROOT
BRANCH   3  20
HETATM   20  N   UNL     1     -10.181   7.410  70.522  1.00  0.00    -0.192 N  
HETATM   21  C   UNL     1     -11.673   6.742  70.193  1.00  0.00    -0.313 C  
HETATM   22  C   UNL     1     -12.717   7.153  71.231  1.00  0.00    -0.412 C  
HETATM   23  C   UNL     1     -10.380   8.878  70.751  1.00  0.00    -0.226 C  
HETATM   24  C   UNL     1     -12.785   8.671  71.354  1.00  0.00    -0.308 C  
HETATM   25  C   UNL     1      -9.794   6.651  71.860  1.00  0.00    -0.166 C  
HETATM   26  C   UNL     1     -11.431   9.194  71.788  1.00  0.00    -0.452 C  
ENDBRANCH   3  20
BRANCH   5  27
HETATM   27  O   UNL     1      -8.496   4.951  66.974  1.00  0.00    -0.107 OA 
BRANCH  27  28
HETATM   28  C   UNL     1      -8.194   4.434  65.760  1.00  0.00    -0.109 C  
HETATM   29  C   UNL     1      -8.169   5.553  64.744  1.00  0.00    -0.133 C  
HETATM   30  O   UNL     1      -7.805   3.295  65.565  1.00  0.00    -0.084 OA 
ENDBRANCH  27  28
ENDBRANCH   5  27
BRANCH  10  31
HETATM   31  O   UNL     1     -10.255  14.651  66.816  1.00  0.00    -0.261 OA 
BRANCH  31  32
HETATM   32  C   UNL     1     -10.468  15.172  65.605  1.00  0.00    -0.359 C  
HETATM   33  C   UNL     1     -10.991  14.062  64.742  1.00  0.00    -0.410 C  
HETATM   34  O   UNL     1     -10.247  16.307  65.257  1.00  0.00    -0.548 OA 
ENDBRANCH  31  32
ENDBRANCH  10  31
BRANCH   9  35
HETATM   35  N   UNL     1     -11.783  13.202  68.860  1.00  0.00    -0.306 NA 
HETATM   36  C   UNL     1     -12.338  12.651  71.186  1.00  0.00    -0.245 C  
HETATM   37  C   UNL     1     -12.690  12.461  69.717  1.00  0.00     0.529 C  
HETATM   38  C   UNL     1     -12.452  14.118  71.574  1.00  0.00    -0.423 C  
HETATM   39  C   UNL     1     -11.582  14.952  70.650  1.00  0.00    -0.341 C  
HETATM   40  C   UNL     1     -11.760  14.633  69.157  1.00  0.00    -0.309 C  
ENDBRANCH   9  35
TORSDOF 6
ENDMDL
MODEL        9
REMARK 921   NORMALIZED FREE ENERGY PREDICTED BY IDOCK:   -5.65 KCAL/MOL
REMARK 922        TOTAL FREE ENERGY PREDICTED BY IDOCK:   -9.31 KCAL/MOL
REMARK 923 INTER-LIGAND FREE ENERGY PREDICTED BY IDOCK:   -8.59 KCAL/MOL
REMARK 924 INTRA-LIGAND FREE ENERGY PREDICTED BY IDOCK:   -0.72 KCAL/MOL
REMARK 927      BINDING AFFINITY PREDICTED BY RF-SCORE:    0.00 PKD
ROOT
HETATM    1  C   UNL     1     -11.437  14.454  69.172  1.00  0.00    -0.328 C  
HETATM    2  C   UNL     1     -10.211  14.507  69.954  1.00  0.00     0.276 C  
HETATM    3  C   UNL     1      -9.684  14.507  68.535  1.00  0.00    -0.224 C  
HETATM    4  C   UNL     1     -11.087   9.476  67.851  1.00  0.00    -0.053 C  
HETATM    5  C   UNL     1     -11.205  14.000  67.168  1.00  0.00    -0.313 C  
HETATM    6  C   UNL     1     -10.695  15.144  67.582  1.00  0.00    -0.285 C  
HETATM    7  C   UNL     1     -10.568  10.271  69.089  1.00  0.00    -0.254 C  
HETATM    8  C   UNL     1      -9.007   9.789  69.348  1.00  0.00    -0.197 C  
HETATM    9  C   UNL     1      -8.618   9.299  70.784  1.00  0.00    -0.203 C  
HETATM   10  C   UNL     1      -9.835   8.415  71.146  1.00  0.00    -0.192 C  
HETATM   11  C   UNL     1     -10.957   9.360  71.568  1.00  0.00    -0.429 C  
HETATM   12  C   UNL     1     -10.902  16.592  67.173  1.00  0.00    -0.142 C  
HETATM   13  C   UNL     1      -9.730  13.736  66.611  1.00  0.00    -0.293 C  
HETATM   14  C   UNL     1     -11.590   9.876  70.256  1.00  0.00    -0.319 C  
HETATM   15  C   UNL     1     -12.771  10.823  70.469  1.00  0.00    -0.388 C  
HETATM   16  C   UNL     1     -10.094  12.079  67.147  1.00  0.00    -0.217 C  
HETATM   17  C   UNL     1     -12.402  12.295  70.502  1.00  0.00    -0.349 C  
HETATM   18  C   UNL     1     -10.551  11.824  68.699  1.00  0.00    -0.250 C  
HETATM   19  C   UNL     1     -11.797  12.726  69.162  1.00  0.00    -0.352 C  
ENDROOT
BRANCH   3  20
HETATM   20  N   UNL     1      -7.843  14.381  68.512  1.00  0.00    -0.132 N  
HETATM   21  C   UNL     1      -7.027  12.941  68.314  1.00  0.00    -0.099 C  
HETATM   22  C   UNL     1      -5.514  13.129  68.433  1.00  0.00    -0.079 C  
HETATM   23  C   UNL     1      -7.329  15.028  69.763  1.00  0.00    -0.132 C  
HETATM   24  C   UNL     1      -5.158  13.811  69.750  1.00  0.00    -0.085 C  
HETATM   25  C   UNL     1      -7.393  15.170  67.212  1.00  0.00    -0.181 C  
HETATM   26  C   UNL     1      -5.826  15.171  69.799  1.00  0.00    -0.126 C  
ENDBRANCH   3  20
BRANCH   5  27
HETATM   27  O   UNL     1     -11.585  14.770  65.805  1.00  0.00    -0.347 OA 
BRANCH  27  28
HETATM   28  C   UNL     1     -12.282  14.314  64.739  1.00  0.00    -0.443 C  
HETATM   29  C   UNL     1     -12.867  12.963  65.079  1.00  0.00    -0.348 C  
HETATM   30  O   UNL     1     -12.561  14.977  63.754  1.00  0.00    -0.776 OA 
ENDBRANCH  27  28
ENDBRANCH   5  27
BRANCH  10  31
HETATM   31  O   UNL     1      -9.677   7.158  71.773  1.00  0.00    -0.159 OA 
BRANCH  31  32
HETATM   32  C   UNL     1     -10.419   6.063  71.586  1.00  0.00    -0.228 C  
HETATM   33  C   UNL     1     -10.777   6.026  70.131  1.00  0.00    -0.379 C  
HETATM   34  O   UNL     1     -10.769   5.274  72.432  1.00  0.00    -0.217 OA 
ENDBRANCH  31  32
ENDBRANCH  10  31
BRANCH   9  35
HETATM   35  N   UNL     1      -7.296   8.698  71.018  1.00  0.00    -0.073 NA 
HETATM   36  C   UNL     1      -6.959   7.385  73.063  1.00  0.00    -0.071 C  
HETATM   37  C   UNL     1      -6.716   8.706  72.348  1.00  0.00    -0.036 C  
HETATM   38  C   UNL     1      -6.310   6.239  72.299  1.00  0.00    -0.054 C  
HETATM   39  C   UNL     1      -6.821   6.236  70.869  1.00  0.00    -0.063 C  
HETATM   40  C   UNL     1      -6.788   7.610  70.183  1.00  0.00    -0.050 C  
ENDBRANCH   9  35
TORSDOF 6
ENDMDL
MODEL       10
REMARK 921   NORMALIZED FREE ENERGY PREDICTED BY IDOCK:   -5.57 KCAL/MOL
REMARK 922        TOTAL FREE ENERGY PREDICTED BY IDOCK:   -9.19 KCAL/MOL
REMARK 923 INTER-LIGAND FREE ENERGY PREDICTED BY IDOCK:   -7.88 KCAL/MOL
REMARK 924 INTRA-LIGAND FREE ENERGY PREDICTED BY IDOCK:   -1.31 KCAL/MOL
REMARK 927      BINDING AFFINITY PREDICTED BY RF-SCORE:    0.00 PKD
ROOT
HETATM    1  C   UNL     1     -10.488   5.231  68.772  1.00  0.00    -0.166 C  
HETATM    2  C   UNL     1     -10.756   6.020  67.578  1.00  0.00    -0.383 C  
HETATM    3  C   UNL     1      -9.244   6.040  67.640  1.00  0.00    -0.107 C  
HETATM    4  C   UNL     1      -9.306   9.199  71.855  1.00  0.00     0.052 C  
HETATM    5  C   UNL     1      -8.558   5.343  69.507  1.00  0.00    -0.103 C  
HETATM    6  C   UNL     1      -8.712   4.780  68.323  1.00  0.00    -0.111 C  
HETATM    7  C   UNL     1     -10.234   9.082  70.606  1.00  0.00    -0.284 C  
HETATM    8  C   UNL     1      -9.912  10.389  69.645  1.00  0.00    -0.209 C  
HETATM    9  C   UNL     1     -11.117  11.277  69.183  1.00  0.00    -0.253 C  
HETATM   10  C   UNL     1     -11.935  11.386  70.491  1.00  0.00    -0.356 C  
HETATM   11  C   UNL     1     -12.711  10.079  70.638  1.00  0.00    -0.282 C  
HETATM   12  C   UNL     1      -8.360   3.415  67.759  1.00  0.00    -0.095 C  
HETATM   13  C   UNL     1      -7.503   6.269  68.743  1.00  0.00    -0.088 C  
HETATM   14  C   UNL     1     -11.710   9.058  71.224  1.00  0.00    -0.382 C  
HETATM   15  C   UNL     1     -12.313   7.676  71.480  1.00  0.00    -0.356 C  
HETATM   16  C   UNL     1      -8.193   7.511  69.814  1.00  0.00    -0.128 C  
HETATM   17  C   UNL     1     -12.155   6.697  70.331  1.00  0.00    -0.251 C  
HETATM   18  C   UNL     1      -9.812   7.761  69.807  1.00  0.00    -0.178 C  
HETATM   19  C   UNL     1     -10.673   6.428  70.057  1.00  0.00    -0.316 C  
ENDROOT
BRANCH   3  20
HETATM   20  N   UNL     1      -8.544   7.160  66.352  1.00  0.00    -0.128 N  
HETATM   21  C   UNL     1      -6.967   7.703  66.369  1.00  0.00    -0.066 C  
HETATM   22  C   UNL     1      -6.698   8.691  65.234  1.00  0.00    -0.067 C  
HETATM   23  C   UNL     1      -9.438   8.360  66.261  1.00  0.00    -0.224 C  
HETATM   24  C   UNL     1      -7.698   9.841  65.272  1.00  0.00    -0.121 C  
HETATM   25  C   UNL     1      -8.561   6.309  65.014  1.00  0.00     0.018 C  
HETATM   26  C   UNL     1      -9.099   9.284  65.115  1.00  0.00    -0.263 C  
ENDBRANCH   3  20
BRANCH   5  27
HETATM   27  O   UNL     1      -7.407   4.248  69.773  1.00  0.00    -0.049 OA 
BRANCH  27  28
HETATM   28  C   UNL     1      -6.747   3.972  70.922  1.00  0.00    -0.032 C  
HETATM   29  C   UNL     1      -7.503   4.585  72.078  1.00  0.00    -0.082 C  
HETATM   30  O   UNL     1      -5.819   3.188  71.021  1.00  0.00    -0.013 OA 
ENDBRANCH  27  28
ENDBRANCH   5  27
BRANCH  10  31
HETATM   31  O   UNL     1     -12.503  12.611  70.911  1.00  0.00    -0.369 OA 
BRANCH  31  32
HETATM   32  C   UNL     1     -13.331  12.807  71.941  1.00  0.00    -0.413 C  
HETATM   33  C   UNL     1     -13.144  14.228  72.382  1.00  0.00    -0.519 C  
HETATM   34  O   UNL     1     -14.061  11.989  72.447  1.00  0.00     0.117 OA 
ENDBRANCH  31  32
ENDBRANCH  10  31
BRANCH   9  35
HETATM   35  N   UNL     1     -10.864  12.543  68.478  1.00  0.00    -0.235 NA 
HETATM   36  C   UNL     1      -9.100  12.594  66.773  1.00  0.00    -0.214 C  
HETATM   37  C   UNL     1      -9.504  12.960  68.194  1.00  0.00    -0.218 C  
HETATM   38  C   UNL     1     -10.003  13.295  65.767  1.00  0.00    -0.261 C  
HETATM   39  C   UNL     1     -11.452  12.957  66.071  1.00  0.00    -0.384 C  
HETATM   40  C   UNL     1     -11.840  13.113  67.550  1.00  0.00    -0.360 C  
ENDBRANCH   9  35
TORSDOF 6
ENDMDL
MODEL       11
REMARK 921   NORMALIZED FREE ENERGY PREDICTED BY IDOCK:   -5.33 KCAL/MOL
REMARK 922        TOTAL FREE ENERGY PREDICTED BY IDOCK:   -8.87 KCAL/MOL
REMARK 923 INTER-LIGAND FREE ENERGY PREDICTED BY IDOCK:   -6.84 KCAL/MOL
REMARK 924 INTRA-LIGAND FREE ENERGY PREDICTED BY IDOCK:   -2.03 KCAL/MOL
REMARK 927      BINDING AFFINITY PREDICTED BY RF-SCORE:    0.00 PKD
ROOT
HETATM    1  C   UNL     1     -10.951   6.403  70.314  1.00  0.00    -0.378 C  
HETATM    2  C   UNL     1     -11.063   6.104  68.894  1.00  0.00    -0.417 C  
HETATM    3  C   UNL     1      -9.685   5.571  69.224  1.00  0.00    -0.159 C  
HETATM    4  C   UNL     1      -7.777  10.444  69.823  1.00  0.00    -0.126 C  
HETATM    5  C   UNL     1      -9.052   6.244  71.118  1.00  0.00    -0.146 C  
HETATM    6  C   UNL     1      -9.610   5.129  70.685  1.00  0.00    -0.242 C  
HETATM    7  C   UNL     1      -8.860   9.841  68.876  1.00  0.00    -0.140 C  
HETATM    8  C   UNL     1      -8.192   9.778  67.364  1.00  0.00    -0.114 C  
HETATM    9  C   UNL     1      -8.988  10.426  66.181  1.00  0.00    -0.157 C  
HETATM   10  C   UNL     1      -9.470  11.748  66.826  1.00  0.00    -0.193 C  
HETATM   11  C   UNL     1     -10.675  11.403  67.696  1.00  0.00    -0.261 C  
HETATM   12  C   UNL     1      -9.940   3.800  71.342  1.00  0.00    -0.178 C  
HETATM   13  C   UNL     1      -7.849   5.818  70.155  1.00  0.00    -0.099 C  
HETATM   14  C   UNL     1     -10.097  10.846  69.016  1.00  0.00    -0.212 C  
HETATM   15  C   UNL     1     -11.161  10.469  70.048  1.00  0.00    -0.376 C  
HETATM   16  C   UNL     1      -7.791   7.571  69.862  1.00  0.00    -0.107 C  
HETATM   17  C   UNL     1     -11.602   9.018  69.996  1.00  0.00     0.081 C  
HETATM   18  C   UNL     1      -9.146   8.341  69.357  1.00  0.00    -0.154 C  
HETATM   19  C   UNL     1     -10.423   8.088  70.298  1.00  0.00    -0.222 C  
ENDROOT
BRANCH   3  20
HETATM   20  N   UNL     1      -8.807   5.018  67.698  1.00  0.00    -0.103 N  
HETATM   21  C   UNL     1      -7.193   4.600  67.671  1.00  0.00    -0.066 C  
HETATM   22  C   UNL     1      -6.717   4.277  66.255  1.00  0.00    -0.053 C  
HETATM   23  C   UNL     1      -9.024   6.064  66.646  1.00  0.00    -0.128 C  
HETATM   24  C   UNL     1      -7.024   5.431  65.307  1.00  0.00    -0.064 C  
HETATM   25  C   UNL     1      -9.487   3.640  67.310  1.00  0.00    -0.196 C  
HETATM   26  C   UNL     1      -8.522   5.664  65.279  1.00  0.00    -0.147 C  
ENDBRANCH   3  20
BRANCH   5  27
HETATM   27  O   UNL     1      -8.420   5.356  72.304  1.00  0.00    -0.121 OA 
BRANCH  27  28
HETATM   28  C   UNL     1      -8.001   5.751  73.529  1.00  0.00    -0.108 C  
HETATM   29  C   UNL     1      -8.686   7.050  73.885  1.00  0.00    -0.190 C  
HETATM   30  O   UNL     1      -7.346   5.066  74.295  1.00  0.00    -0.081 OA 
ENDBRANCH  27  28
ENDBRANCH   5  27
BRANCH  10  31
HETATM   31  O   UNL     1      -9.414  12.977  66.128  1.00  0.00    -0.238 OA 
BRANCH  31  32
HETATM   32  C   UNL     1     -10.391  13.549  65.420  1.00  0.00    -0.319 C  
HETATM   33  C   UNL     1     -10.727  14.838  66.110  1.00  0.00    -0.314 C  
HETATM   34  O   UNL     1     -10.930  13.100  64.437  1.00  0.00    -0.350 OA 
ENDBRANCH  31  32
ENDBRANCH  10  31
BRANCH   9  35
HETATM   35  N   UNL     1      -8.359  10.550  64.857  1.00  0.00    -0.162 NA 
HETATM   36  C   UNL     1      -6.485   9.062  64.314  1.00  0.00    -0.079 C  
HETATM   37  C   UNL     1      -6.917  10.463  64.724  1.00  0.00    -0.032 C  
HETATM   38  C   UNL     1      -7.083   8.696  62.963  1.00  0.00    -0.090 C  
HETATM   39  C   UNL     1      -8.593   8.851  63.022  1.00  0.00    -0.136 C  
HETATM   40  C   UNL     1      -9.067  10.179  63.633  1.00  0.00    -0.260 C  
ENDBRANCH   9  35
TORSDOF 6
ENDMDL
MODEL       12
REMARK 921   NORMALIZED FREE ENERGY PREDICTED BY IDOCK:   -5.32 KCAL/MOL
REMARK 922        TOTAL FREE ENERGY PREDICTED BY IDOCK:   -8.85 KCAL/MOL
REMARK 923 INTER-LIGAND FREE ENERGY PREDICTED BY IDOCK:   -7.52 KCAL/MOL
REMARK 924 INTRA-LIGAND FREE ENERGY PREDICTED BY IDOCK:   -1.33 KCAL/MOL
REMARK 927      BINDING AFFINITY PREDICTED BY RF-SCORE:    0.00 PKD
ROOT
HETATM    1  C   UNL     1      -6.093   7.788  69.411  1.00  0.00    -0.034 C  
HETATM    2  C   UNL     1      -6.745   8.436  70.539  1.00  0.00    -0.037 C  
HETATM    3  C   UNL     1      -7.569   7.177  70.375  1.00  0.00    -0.089 C  
HETATM    4  C   UNL     1      -9.683   8.965  65.893  1.00  0.00    -0.259 C  
HETATM    5  C   UNL     1      -7.141   6.232  68.541  1.00  0.00    -0.083 C  
HETATM    6  C   UNL     1      -6.726   6.050  69.781  1.00  0.00    -0.052 C  
HETATM    7  C   UNL     1      -9.230   9.675  67.207  1.00  0.00    -0.154 C  
HETATM    8  C   UNL     1     -10.606  10.109  68.016  1.00  0.00    -0.273 C  
HETATM    9  C   UNL     1     -10.751  11.601  68.471  1.00  0.00    -0.218 C  
HETATM   10  C   UNL     1     -10.248  12.354  67.216  1.00  0.00    -0.215 C  
HETATM   11  C   UNL     1      -8.723  12.296  67.246  1.00  0.00    -0.188 C  
HETATM   12  C   UNL     1      -5.842   5.010  70.447  1.00  0.00    -0.017 C  
HETATM   13  C   UNL     1      -8.571   5.845  69.142  1.00  0.00    -0.115 C  
HETATM   14  C   UNL     1      -8.342  10.904  66.694  1.00  0.00    -0.143 C  
HETATM   15  C   UNL     1      -6.835  10.662  66.611  1.00  0.00    -0.114 C  
HETATM   16  C   UNL     1      -9.111   7.104  68.006  1.00  0.00    -0.132 C  
HETATM   17  C   UNL     1      -6.237   9.991  67.835  1.00  0.00    -0.057 C  
HETATM   18  C   UNL     1      -8.448   8.599  68.098  1.00  0.00    -0.131 C  
HETATM   19  C   UNL     1      -6.843   8.599  68.033  1.00  0.00    -0.070 C  
ENDROOT
BRANCH   3  20
HETATM   20  N   UNL     1      -9.031   7.192  71.501  1.00  0.00    -0.134 N  
HETATM   21  C   UNL     1     -10.201   6.004  71.499  1.00  0.00    -0.204 C  
HETATM   22  C   UNL     1     -11.338   6.329  72.468  1.00  0.00    -0.313 C  
HETATM   23  C   UNL     1      -9.721   8.512  71.331  1.00  0.00    -0.220 C  
HETATM   24  C   UNL     1     -11.921   7.707  72.171  1.00  0.00    -0.344 C  
HETATM   25  C   UNL     1      -8.428   7.025  72.958  1.00  0.00    -0.113 C  
HETATM   26  C   UNL     1     -10.832   8.749  72.327  1.00  0.00    -0.328 C  
ENDBRANCH   3  20
BRANCH   5  27
HETATM   27  O   UNL     1      -6.816   4.672  68.304  1.00  0.00    -0.053 OA 
BRANCH  27  28
HETATM   28  C   UNL     1      -7.333   3.829  67.379  1.00  0.00    -0.067 C  
HETATM   29  C   UNL     1      -7.114   4.418  66.005  1.00  0.00    -0.071 C  
HETATM   30  O   UNL     1      -7.718   2.695  67.609  1.00  0.00    -0.060 OA 
ENDBRANCH  27  28
ENDBRANCH   5  27
BRANCH  10  31
HETATM   31  O   UNL     1     -10.916  13.498  66.721  1.00  0.00    -0.287 OA 
BRANCH  31  32
HETATM   32  C   UNL     1     -11.899  13.532  65.817  1.00  0.00    -0.372 C  
HETATM   33  C   UNL     1     -11.561  12.512  64.771  1.00  0.00    -0.387 C  
HETATM   34  O   UNL     1     -12.858  14.267  65.820  1.00  0.00    -0.460 OA 
ENDBRANCH  31  32
ENDBRANCH  10  31
BRANCH   9  35
HETATM   35  N   UNL     1     -12.025  12.073  69.035  1.00  0.00    -0.295 NA 
HETATM   36  C   UNL     1     -12.597  11.418  71.329  1.00  0.00    -0.480 C  
HETATM   37  C   UNL     1     -12.837  11.185  69.844  1.00  0.00     0.120 C  
HETATM   38  C   UNL     1     -12.974  12.842  71.711  1.00  0.00    -0.416 C  
HETATM   39  C   UNL     1     -12.210  13.818  70.832  1.00  0.00    -0.427 C  
HETATM   40  C   UNL     1     -12.256  13.486  69.333  1.00  0.00    -0.228 C  
ENDBRANCH   9  35
TORSDOF 6
ENDMDL
MODEL       13
REMARK 921   NORMALIZED FREE ENERGY PREDICTED BY IDOCK:   -5.28 KCAL/MOL
REMARK 922        TOTAL FREE ENERGY PREDICTED BY IDOCK:   -8.80 KCAL/MOL
REMARK 923 INTER-LIGAND FREE ENERGY PREDICTED BY IDOCK:   -7.67 KCAL/MOL
REMARK 924 INTRA-LIGAND FREE ENERGY PREDICTED BY IDOCK:   -1.13 KCAL/MOL
REMARK 927      BINDING AFFINITY PREDICTED BY RF-SCORE:    0.00 PKD
ROOT
HETATM    1  C   UNL     1      -8.828  15.014  67.933  1.00  0.00    -0.171 C  
HETATM    2  C   UNL     1      -8.761  14.597  66.540  1.00  0.00    -0.115 C  
HETATM    3  C   UNL     1     -10.250  14.566  66.811  1.00  0.00    -0.266 C  
HETATM    4  C   UNL     1      -9.755  10.337  69.912  1.00  0.00    -0.119 C  
HETATM    5  C   UNL     1     -10.642  14.706  68.876  1.00  0.00    -0.253 C  
HETATM    6  C   UNL     1     -10.626  15.581  67.889  1.00  0.00    -0.274 C  
HETATM    7  C   UNL     1      -9.001  10.801  68.627  1.00  0.00    -0.162 C  
HETATM    8  C   UNL     1      -9.510   9.823  67.394  1.00  0.00    -0.178 C  
HETATM    9  C   UNL     1      -8.420   9.098  66.533  1.00  0.00    -0.123 C  
HETATM   10  C   UNL     1      -7.437   8.619  67.626  1.00  0.00    -0.090 C  
HETATM   11  C   UNL     1      -6.591   9.826  68.021  1.00  0.00    -0.061 C  
HETATM   12  C   UNL     1     -10.991  17.052  67.788  1.00  0.00    -0.199 C  
HETATM   13  C   UNL     1     -11.833  14.039  68.042  1.00  0.00    -0.403 C  
HETATM   14  C   UNL     1      -7.455  10.642  69.008  1.00  0.00    -0.117 C  
HETATM   15  C   UNL     1      -6.761  11.891  69.553  1.00  0.00    -0.054 C  
HETATM   16  C   UNL     1     -11.059  12.542  68.610  1.00  0.00    -0.305 C  
HETATM   17  C   UNL     1      -7.031  13.157  68.761  1.00  0.00    -0.103 C  
HETATM   18  C   UNL     1      -9.469  12.297  68.301  1.00  0.00    -0.209 C  
HETATM   19  C   UNL     1      -8.523  13.500  68.789  1.00  0.00     0.079 C  
ENDROOT
BRANCH   3  20
HETATM   20  N   UNL     1     -11.169  13.861  65.373  1.00  0.00    -0.300 N  
HETATM   21  C   UNL     1     -12.654  13.118  65.512  1.00  0.00    -0.408 C  
HETATM   22  C   UNL     1     -13.127  12.548  64.174  1.00  0.00    -0.086 C  
HETATM   23  C   UNL     1     -10.247  12.912  64.668  1.00  0.00    -0.298 C  
HETATM   24  C   UNL     1     -12.075  11.616  63.583  1.00  0.00    -0.359 C  
HETATM   25  C   UNL     1     -11.535  15.111  64.468  1.00  0.00    -0.316 C  
HETATM   26  C   UNL     1     -10.794  12.395  63.358  1.00  0.00    -0.417 C  
ENDBRANCH   3  20
BRANCH   5  27
HETATM   27  O   UNL     1     -11.696  15.684  69.601  1.00  0.00    -0.319 OA 
BRANCH  27  28
HETATM   28  C   UNL     1     -12.408  15.475  70.733  1.00  0.00    -0.414 C  
HETATM   29  C   UNL     1     -11.450  15.225  71.875  1.00  0.00    -0.504 C  
HETATM   30  O   UNL     1     -13.607  15.666  70.846  1.00  0.00    -0.568 OA 
ENDBRANCH  27  28
ENDBRANCH   5  27
BRANCH  10  31
HETATM   31  O   UNL     1      -6.872   7.322  67.598  1.00  0.00    -0.068 OA 
BRANCH  31  32
HETATM   32  C   UNL     1      -6.807   6.448  68.606  1.00  0.00    -0.074 C  
HETATM   33  C   UNL     1      -8.018   6.680  69.460  1.00  0.00    -0.117 C  
HETATM   34  O   UNL     1      -5.925   5.650  68.814  1.00  0.00    -0.021 OA 
ENDBRANCH  31  32
ENDBRANCH  10  31
BRANCH   9  35
HETATM   35  N   UNL     1      -8.823   8.087  65.544  1.00  0.00    -0.113 NA 
HETATM   36  C   UNL     1      -7.076   6.709  64.509  1.00  0.00    -0.060 C  
HETATM   37  C   UNL     1      -8.031   7.883  64.346  1.00  0.00    -0.132 C  
HETATM   38  C   UNL     1      -7.853   5.423  64.757  1.00  0.00    -0.103 C  
HETATM   39  C   UNL     1      -8.765   5.610  65.957  1.00  0.00    -0.144 C  
HETATM   40  C   UNL     1      -9.593   6.904  65.925  1.00  0.00     0.272 C  
ENDBRANCH   9  35
TORSDOF 6
ENDMDL
MODEL       14
REMARK 921   NORMALIZED FREE ENERGY PREDICTED BY IDOCK:   -5.15 KCAL/MOL
REMARK 922        TOTAL FREE ENERGY PREDICTED BY IDOCK:   -8.62 KCAL/MOL
REMARK 923 INTER-LIGAND FREE ENERGY PREDICTED BY IDOCK:   -6.77 KCAL/MOL
REMARK 924 INTRA-LIGAND FREE ENERGY PREDICTED BY IDOCK:   -1.85 KCAL/MOL
REMARK 927      BINDING AFFINITY PREDICTED BY RF-SCORE:    0.00 PKD
ROOT
HETATM    1  C   UNL     1      -7.903  10.008  69.950  1.00  0.00    -0.185 C  
HETATM    2  C   UNL     1      -6.922   9.099  69.376  1.00  0.00    -0.052 C  
HETATM    3  C   UNL     1      -7.840   9.361  68.201  1.00  0.00    -0.087 C  
HETATM    4  C   UNL     1     -11.717   6.561  70.409  1.00  0.00    -0.439 C  
HETATM    5  C   UNL     1      -9.615  10.307  68.830  1.00  0.00    -0.190 C  
HETATM    6  C   UNL     1      -8.482  10.743  68.313  1.00  0.00    -0.130 C  
HETATM    7  C   UNL     1     -10.163   6.414  70.426  1.00  0.00    -0.233 C  
HETATM    8  C   UNL     1      -9.794   5.121  69.462  1.00  0.00    -0.278 C  
HETATM    9  C   UNL     1      -8.882   3.996  70.059  1.00  0.00    -0.080 C  
HETATM   10  C   UNL     1      -9.483   3.836  71.475  1.00  0.00    -0.151 C  
HETATM   11  C   UNL     1      -8.940   4.985  72.320  1.00  0.00    -0.142 C  
HETATM   12  C   UNL     1      -8.003  12.105  67.841  1.00  0.00    -0.150 C  
HETATM   13  C   UNL     1      -9.759   9.536  67.436  1.00  0.00    -0.201 C  
HETATM   14  C   UNL     1      -9.812   6.213  71.974  1.00  0.00    -0.174 C  
HETATM   15  C   UNL     1      -9.442   7.475  72.753  1.00  0.00    -0.223 C  
HETATM   16  C   UNL     1     -10.432   8.271  68.490  1.00  0.00    -0.199 C  
HETATM   17  C   UNL     1      -8.447   8.380  72.051  1.00  0.00    -0.245 C  
HETATM   18  C   UNL     1      -9.543   7.729  69.755  1.00  0.00    -0.167 C  
HETATM   19  C   UNL     1      -9.029   8.896  70.732  1.00  0.00    -0.254 C  
ENDROOT
BRANCH   3  20
HETATM   20  N   UNL     1      -7.392   8.297  66.762  1.00  0.00    -0.082 N  
HETATM   21  C   UNL     1      -8.310   8.201  65.373  1.00  0.00    -0.155 C  
HETATM   22  C   UNL     1      -7.747   7.170  64.395  1.00  0.00    -0.117 C  
HETATM   23  C   UNL     1      -7.194   6.902  67.274  1.00  0.00    -0.089 C  
HETATM   24  C   UNL     1      -7.593   5.813  65.072  1.00  0.00    -0.087 C  
HETATM   25  C   UNL     1      -6.046   8.915  66.197  1.00  0.00    -0.056 C  
HETATM   26  C   UNL     1      -6.639   5.949  66.242  1.00  0.00    -0.055 C  
ENDBRANCH   3  20
BRANCH   5  27
HETATM   27  O   UNL     1     -10.304  11.611  68.182  1.00  0.00    -0.182 OA 
BRANCH  27  28
HETATM   28  C   UNL     1     -11.618  11.865  67.982  1.00  0.00    -0.332 C  
HETATM   29  C   UNL     1     -11.768  12.713  66.740  1.00  0.00    -0.460 C  
HETATM   30  O   UNL     1     -12.531  11.325  68.583  1.00  0.00    -0.442 OA 
ENDBRANCH  27  28
ENDBRANCH   5  27
BRANCH  10  31
HETATM   31  O   UNL     1      -9.700   2.561  72.049  1.00  0.00    -0.120 OA 
BRANCH  31  32
HETATM   32  C   UNL     1      -9.882   2.277  73.341  1.00  0.00    -0.096 C  
HETATM   33  C   UNL     1     -11.359   2.341  73.594  1.00  0.00    -0.318 C  
HETATM   34  O   UNL     1      -9.023   2.050  74.159  1.00  0.00    -0.064 OA 
ENDBRANCH  31  32
ENDBRANCH  10  31
BRANCH   9  35
HETATM   35  N   UNL     1      -8.671   2.750  69.307  1.00  0.00    -0.074 NA 
HETATM   36  C   UNL     1      -8.889   2.813  66.863  1.00  0.00    -0.154 C  
HETATM   37  C   UNL     1      -9.531   2.421  68.186  1.00  0.00    -0.158 C  
HETATM   38  C   UNL     1      -7.583   2.058  66.662  1.00  0.00    -0.066 C  
HETATM   39  C   UNL     1      -6.672   2.303  67.853  1.00  0.00    -0.039 C  
HETATM   40  C   UNL     1      -7.354   2.120  69.218  1.00  0.00    -0.043 C  
ENDBRANCH   9  35
TORSDOF 6
ENDMDL
MODEL       15
REMARK 921   NORMALIZED FREE ENERGY PREDICTED BY IDOCK:   -5.12 KCAL/MOL
REMARK 922        TOTAL FREE ENERGY PREDICTED BY IDOCK:   -8.59 KCAL/MOL
REMARK 923 INTER-LIGAND FREE ENERGY PREDICTED BY IDOCK:   -7.05 KCAL/MOL
REMARK 924 INTRA-LIGAND FREE ENERGY PREDICTED BY IDOCK:   -1.54 KCAL/MOL
REMARK 927      BINDING AFFINITY PREDICTED BY RF-SCORE:    0.00 PKD
ROOT
HETATM    1  C   UNL     1      -8.894  15.275  68.223  1.00  0.00    -0.171 C  
HETATM    2  C   UNL     1      -8.739  15.024  66.798  1.00  0.00    -0.293 C  
HETATM    3  C   UNL     1     -10.184  14.639  67.034  1.00  0.00    -0.261 C  
HETATM    4  C   UNL     1      -8.757  10.336  69.716  1.00  0.00    -0.069 C  
HETATM    5  C   UNL     1     -10.592  14.482  69.095  1.00  0.00    -0.234 C  
HETATM    6  C   UNL     1     -10.773  15.434  68.199  1.00  0.00    -0.271 C  
HETATM    7  C   UNL     1      -8.128  11.081  68.498  1.00  0.00    -0.140 C  
HETATM    8  C   UNL     1      -8.411  10.142  67.165  1.00  0.00    -0.125 C  
HETATM    9  C   UNL     1      -7.190   9.766  66.259  1.00  0.00    -0.099 C  
HETATM   10  C   UNL     1      -6.122   9.408  67.320  1.00  0.00    -0.056 C  
HETATM   11  C   UNL     1      -5.563  10.727  67.848  1.00  0.00    -0.042 C  
HETATM   12  C   UNL     1     -11.454  16.790  68.236  1.00  0.00     0.094 C  
HETATM   13  C   UNL     1     -11.608  13.656  68.176  1.00  0.00    -0.367 C  
HETATM   14  C   UNL     1      -6.584  11.229  68.893  1.00  0.00    -0.068 C  
HETATM   15  C   UNL     1      -6.183  12.540  69.570  1.00  0.00    -0.120 C  
HETATM   16  C   UNL     1     -10.521  12.317  68.611  1.00  0.00    -0.228 C  
HETATM   17  C   UNL     1      -6.728  13.788  68.901  1.00  0.00    -0.108 C  
HETATM   18  C   UNL     1      -8.917  12.461  68.311  1.00  0.00    -0.178 C  
HETATM   19  C   UNL     1      -8.259  13.789  68.933  1.00  0.00     0.089 C  
ENDROOT
BRANCH   3  20
HETATM   20  N   UNL     1     -10.927  13.896  65.517  1.00  0.00    -0.295 N  
HETATM   21  C   UNL     1     -12.429  13.173  65.493  1.00  0.00    -0.458 C  
HETATM   22  C   UNL     1     -12.740  12.564  64.126  1.00  0.00    -0.417 C  
HETATM   23  C   UNL     1      -9.939  12.915  64.963  1.00  0.00    -0.143 C  
HETATM   24  C   UNL     1     -11.636  11.602  63.701  1.00  0.00    -0.435 C  
HETATM   25  C   UNL     1     -11.160  15.118  64.534  1.00  0.00    -0.237 C  
HETATM   26  C   UNL     1     -10.327  12.360  63.612  1.00  0.00    -0.434 C  
ENDBRANCH   3  20
BRANCH   5  27
HETATM   27  O   UNL     1     -11.835  15.127  69.892  1.00  0.00    -0.288 OA 
BRANCH  27  28
HETATM   28  C   UNL     1     -12.243  14.892  71.161  1.00  0.00    -0.320 C  
HETATM   29  C   UNL     1     -11.890  16.085  72.018  1.00  0.00    -0.623 C  
HETATM   30  O   UNL     1     -12.960  13.966  71.501  1.00  0.00    -0.327 OA 
ENDBRANCH  27  28
ENDBRANCH   5  27
BRANCH  10  31
HETATM   31  O   UNL     1      -5.284   8.277  67.177  1.00  0.00    -0.031 OA 
BRANCH  31  32
HETATM   32  C   UNL     1      -5.543   7.026  67.566  1.00  0.00    -0.024 C  
HETATM   33  C   UNL     1      -6.171   7.117  68.925  1.00  0.00    -0.027 C  
HETATM   34  O   UNL     1      -5.286   6.013  66.961  1.00  0.00    -0.005 OA 
ENDBRANCH  31  32
ENDBRANCH  10  31
BRANCH   9  35
HETATM   35  N   UNL     1      -7.361   8.794  65.168  1.00  0.00    -0.087 NA 
HETATM   36  C   UNL     1      -9.084   9.233  63.477  1.00  0.00     0.046 C  
HETATM   37  C   UNL     1      -8.691   8.436  64.713  1.00  0.00     0.024 C  
HETATM   38  C   UNL     1      -8.125   8.943  62.331  1.00  0.00    -0.155 C  
HETATM   39  C   UNL     1      -6.702   9.223  62.783  1.00  0.00    -0.092 C  
HETATM   40  C   UNL     1      -6.338   8.604  64.141  1.00  0.00    -0.071 C  
ENDBRANCH   9  35
TORSDOF 6
ENDMDL
MODEL       16
REMARK 921   NORMALIZED FREE ENERGY PREDICTED BY IDOCK:   -5.07 KCAL/MOL
REMARK 922        TOTAL FREE ENERGY PREDICTED BY IDOCK:   -8.52 KCAL/MOL
REMARK 923 INTER-LIGAND FREE ENERGY PREDICTED BY IDOCK:   -7.51 KCAL/MOL
REMARK 924 INTRA-LIGAND FREE ENERGY PREDICTED BY IDOCK:   -1.01 KCAL/MOL
REMARK 927      BINDING AFFINITY PREDICTED BY RF-SCORE:    0.00 PKD
ROOT
HETATM    1  C   UNL     1      -8.754  16.333  69.643  1.00  0.00     0.291 C  
HETATM    2  C   UNL     1      -7.944  15.242  70.162  1.00  0.00     0.466 C  
HETATM    3  C   UNL     1      -7.585  15.234  68.692  1.00  0.00    -0.129 C  
HETATM    4  C   UNL     1     -12.343  13.389  67.386  1.00  0.00    -0.113 C  
HETATM    5  C   UNL     1      -8.924  16.425  67.585  1.00  0.00    -0.196 C  
HETATM    6  C   UNL     1      -7.724  16.632  68.092  1.00  0.00    -0.173 C  
HETATM    7  C   UNL     1     -11.420  13.154  68.622  1.00  0.00    -0.342 C  
HETATM    8  C   UNL     1     -10.800  11.627  68.473  1.00  0.00    -0.257 C  
HETATM    9  C   UNL     1     -10.951  10.651  69.688  1.00  0.00    -0.278 C  
HETATM   10  C   UNL     1     -12.413  10.919  70.115  1.00  0.00    -0.283 C  
HETATM   11  C   UNL     1     -12.409  12.218  70.918  1.00  0.00    -0.363 C  
HETATM   12  C   UNL     1      -6.735  17.781  68.006  1.00  0.00    -0.193 C  
HETATM   13  C   UNL     1      -8.178  15.316  66.707  1.00  0.00    -0.215 C  
HETATM   14  C   UNL     1     -12.394  13.358  69.875  1.00  0.00    -0.259 C  
HETATM   15  C   UNL     1     -12.422  14.758  70.488  1.00  0.00    -0.411 C  
HETATM   16  C   UNL     1      -9.694  14.429  66.990  1.00  0.00    -0.256 C  
HETATM   17  C   UNL     1     -11.053  15.374  70.717  1.00  0.00    -0.371 C  
HETATM   18  C   UNL     1     -10.207  14.195  68.528  1.00  0.00    -0.247 C  
HETATM   19  C   UNL     1     -10.315  15.548  69.387  1.00  0.00    -0.258 C  
ENDROOT
BRANCH   3  20
HETATM   20  N   UNL     1      -6.508  13.792  68.282  1.00  0.00    -0.097 N  
HETATM   21  C   UNL     1      -6.874  12.685  67.091  1.00  0.00    -0.020 C  
HETATM   22  C   UNL     1      -5.851  11.550  67.042  1.00  0.00    -0.120 C  
HETATM   23  C   UNL     1      -6.265  13.033  69.551  1.00  0.00    -0.117 C  
HETATM   24  C   UNL     1      -5.711  10.892  68.410  1.00  0.00    -0.043 C  
HETATM   25  C   UNL     1      -5.172  14.428  67.710  1.00  0.00     0.018 C  
HETATM   26  C   UNL     1      -5.244  11.928  69.413  1.00  0.00    -0.057 C  
ENDBRANCH   3  20
BRANCH   5  27
HETATM   27  O   UNL     1      -8.551  17.545  66.489  1.00  0.00    -0.246 OA 
BRANCH  27  28
HETATM   28  C   UNL     1      -9.164  18.727  66.241  1.00  0.00    -0.247 C  
HETATM   29  C   UNL     1     -10.512  18.731  66.923  1.00  0.00    -0.472 C  
HETATM   30  O   UNL     1      -8.627  19.696  65.732  1.00  0.00    -0.395 OA 
ENDBRANCH  27  28
ENDBRANCH   5  27
BRANCH  10  31
HETATM   31  O   UNL     1     -13.291   9.864  70.457  1.00  0.00    -0.167 OA 
BRANCH  31  32
HETATM   32  C   UNL     1     -13.350   9.207  71.618  1.00  0.00    -0.383 C  
HETATM   33  C   UNL     1     -13.121   7.757  71.306  1.00  0.00    -0.247 C  
HETATM   34  O   UNL     1     -13.582   9.679  72.705  1.00  0.00    -0.327 OA 
ENDBRANCH  31  32
ENDBRANCH  10  31
BRANCH   9  35
HETATM   35  N   UNL     1     -10.574   9.237  69.541  1.00  0.00    -0.221 NA 
HETATM   36  C   UNL     1      -8.926   8.642  67.823  1.00  0.00    -0.140 C  
HETATM   37  C   UNL     1     -10.395   8.664  68.220  1.00  0.00    -0.207 C  
HETATM   38  C   UNL     1      -8.125   7.787  68.794  1.00  0.00    -0.126 C  
HETATM   39  C   UNL     1      -8.344   8.295  70.209  1.00  0.00    -0.123 C  
HETATM   40  C   UNL     1      -9.817   8.532  70.575  1.00  0.00    -0.180 C  
ENDBRANCH   9  35
TORSDOF 6
ENDMDL
MODEL       17
REMARK 921   NORMALIZED FREE ENERGY PREDICTED BY IDOCK:   -5.06 KCAL/MOL
REMARK 922        TOTAL FREE ENERGY PREDICTED BY IDOCK:   -8.51 KCAL/MOL
REMARK 923 INTER-LIGAND FREE ENERGY PREDICTED BY IDOCK:   -8.65 KCAL/MOL
REMARK 924 INTRA-LIGAND FREE ENERGY PREDICTED BY IDOCK:    0.14 KCAL/MOL
REMARK 927      BINDING AFFINITY PREDICTED BY RF-SCORE:    0.00 PKD
ROOT
HETATM    1  C   UNL     1     -11.006  15.310  66.361  1.00  0.00    -0.299 C  
HETATM    2  C   UNL     1     -12.103  14.720  67.112  1.00  0.00    -0.121 C  
HETATM    3  C   UNL     1     -11.241  15.302  68.212  1.00  0.00    -0.314 C  
HETATM    4  C   UNL     1      -7.519  11.658  67.430  1.00  0.00    -0.135 C  
HETATM    5  C   UNL     1      -9.348  15.853  67.470  1.00  0.00    -0.217 C  
HETATM    6  C   UNL     1     -10.464  16.517  67.705  1.00  0.00    -0.308 C  
HETATM    7  C   UNL     1      -9.075  11.622  67.320  1.00  0.00    -0.167 C  
HETATM    8  C   UNL     1      -9.626  10.762  68.621  1.00  0.00    -0.187 C  
HETATM    9  C   UNL     1     -10.602   9.567  68.352  1.00  0.00    -0.219 C  
HETATM   10  C   UNL     1      -9.931   8.894  67.132  1.00  0.00    -0.226 C  
HETATM   11  C   UNL     1     -10.307   9.722  65.906  1.00  0.00    -0.148 C  
HETATM   12  C   UNL     1     -10.839  17.987  67.650  1.00  0.00    -0.257 C  
HETATM   13  C   UNL     1      -9.366  15.594  69.048  1.00  0.00    -0.243 C  
HETATM   14  C   UNL     1      -9.345  10.931  65.902  1.00  0.00    -0.226 C  
HETATM   15  C   UNL     1      -9.542  11.876  64.716  1.00  0.00    -0.063 C  
HETATM   16  C   UNL     1      -8.752  14.003  68.542  1.00  0.00    -0.156 C  
HETATM   17  C   UNL     1     -10.489  13.032  64.982  1.00  0.00    -0.345 C  
HETATM   18  C   UNL     1      -9.608  13.126  67.455  1.00  0.00    -0.219 C  
HETATM   19  C   UNL     1      -9.944  13.924  66.102  1.00  0.00    -0.322 C  
ENDROOT
BRANCH   3  20
HETATM   20  N   UNL     1     -11.879  14.824  69.876  1.00  0.00    -0.297 N  
HETATM   21  C   UNL     1     -13.465  15.035  70.344  1.00  0.00     0.096 C  
HETATM   22  C   UNL     1     -13.680  14.637  71.804  1.00  0.00    -0.502 C  
HETATM   23  C   UNL     1     -11.008  15.484  70.902  1.00  0.00    -0.292 C  
HETATM   24  C   UNL     1     -12.711  15.384  72.714  1.00  0.00    -0.510 C  
HETATM   25  C   UNL     1     -11.753  13.243  69.925  1.00  0.00    -0.259 C  
HETATM   26  C   UNL     1     -11.291  15.037  72.317  1.00  0.00    -0.177 C  
ENDBRANCH   3  20
BRANCH   5  27
HETATM   27  O   UNL     1      -8.579  17.249  67.707  1.00  0.00    -0.218 OA 
BRANCH  27  28
HETATM   28  C   UNL     1      -7.444  17.702  67.125  1.00  0.00    -0.193 C  
HETATM   29  C   UNL     1      -6.402  17.927  68.196  1.00  0.00    -0.184 C  
HETATM   30  O   UNL     1      -7.237  17.722  65.924  1.00  0.00    -0.402 OA 
ENDBRANCH  27  28
ENDBRANCH   5  27
BRANCH  10  31
HETATM   31  O   UNL     1      -9.801   7.488  67.039  1.00  0.00    -0.179 OA 
BRANCH  31  32
HETATM   32  C   UNL     1      -8.677   6.792  66.853  1.00  0.00    -0.117 C  
HETATM   33  C   UNL     1      -8.959   5.798  65.765  1.00  0.00    -0.144 C  
HETATM   34  O   UNL     1      -7.644   6.910  67.466  1.00  0.00    -0.104 OA 
ENDBRANCH  31  32
ENDBRANCH  10  31
BRANCH   9  35
HETATM   35  N   UNL     1     -10.979   8.668  69.454  1.00  0.00    -0.096 NA 
HETATM   36  C   UNL     1      -9.468   8.488  71.379  1.00  0.00    -0.279 C  
HETATM   37  C   UNL     1      -9.974   7.842  70.097  1.00  0.00    -0.190 C  
HETATM   38  C   UNL     1     -10.607   8.662  72.372  1.00  0.00    -0.310 C  
HETATM   39  C   UNL     1     -11.728   9.453  71.719  1.00  0.00    -0.444 C  
HETATM   40  C   UNL     1     -12.122   8.953  70.321  1.00  0.00     0.328 C  
ENDBRANCH   9  35
TORSDOF 6
ENDMDL
MODEL       18
REMARK 921   NORMALIZED FREE ENERGY PREDICTED BY IDOCK:   -4.97 KCAL/MOL
REMARK 922        TOTAL FREE ENERGY PREDICTED BY IDOCK:   -8.39 KCAL/MOL
REMARK 923 INTER-LIGAND FREE ENERGY PREDICTED BY IDOCK:   -7.21 KCAL/MOL
REMARK 924 INTRA-LIGAND FREE ENERGY PREDICTED BY IDOCK:   -1.17 KCAL/MOL
REMARK 927      BINDING AFFINITY PREDICTED BY RF-SCORE:    0.00 PKD
ROOT
HETATM    1  C   UNL     1     -10.640   5.574  70.307  1.00  0.00    -0.357 C  
HETATM    2  C   UNL     1     -10.882   5.573  68.872  1.00  0.00    -0.132 C  
HETATM    3  C   UNL     1      -9.436   5.133  68.952  1.00  0.00    -0.134 C  
HETATM    4  C   UNL     1      -7.897   9.944  70.446  1.00  0.00    -0.066 C  
HETATM    5  C   UNL     1      -8.659   5.453  70.883  1.00  0.00    -0.126 C  
HETATM    6  C   UNL     1      -9.163   4.402  70.266  1.00  0.00    -0.193 C  
HETATM    7  C   UNL     1      -9.022   9.443  69.488  1.00  0.00    -0.167 C  
HETATM    8  C   UNL     1      -8.522   9.774  67.947  1.00  0.00    -0.125 C  
HETATM    9  C   UNL     1      -9.497  10.570  67.013  1.00  0.00    -0.163 C  
HETATM   10  C   UNL     1     -10.015  11.665  67.975  1.00  0.00    -0.188 C  
HETATM   11  C   UNL     1     -11.083  11.015  68.851  1.00  0.00    -0.295 C  
HETATM   12  C   UNL     1      -9.304   2.936  70.637  1.00  0.00    -0.220 C  
HETATM   13  C   UNL     1      -7.536   5.372  69.747  1.00  0.00    -0.070 C  
HETATM   14  C   UNL     1     -10.318  10.257  69.958  1.00  0.00    -0.255 C  
HETATM   15  C   UNL     1     -11.225   9.557  70.970  1.00  0.00    -0.432 C  
HETATM   16  C   UNL     1      -7.662   7.144  69.847  1.00  0.00    -0.108 C  
HETATM   17  C   UNL     1     -11.544   8.111  70.637  1.00  0.00    -0.199 C  
HETATM   18  C   UNL     1      -9.125   7.853  69.647  1.00  0.00    -0.153 C  
HETATM   19  C   UNL     1     -10.264   7.270  70.619  1.00  0.00    -0.202 C  
ENDROOT
BRANCH   3  20
HETATM   20  N   UNL     1      -8.687   5.014  67.269  1.00  0.00    -0.104 N  
HETATM   21  C   UNL     1      -7.120   4.515  66.998  1.00  0.00    -0.068 C  
HETATM   22  C   UNL     1      -6.747   4.608  65.518  1.00  0.00    -0.052 C  
HETATM   23  C   UNL     1      -8.865   6.344  66.599  1.00  0.00    -0.130 C  
HETATM   24  C   UNL     1      -6.998   6.015  64.987  1.00  0.00    -0.059 C  
HETATM   25  C   UNL     1      -9.505   3.870  66.536  1.00  0.00    -0.195 C  
HETATM   26  C   UNL     1      -8.469   6.347  65.142  1.00  0.00    -0.072 C  
ENDBRANCH   3  20
BRANCH   5  27
HETATM   27  O   UNL     1      -7.826   4.406  71.782  1.00  0.00    -0.082 OA 
BRANCH  27  28
HETATM   28  C   UNL     1      -7.076   4.643  72.883  1.00  0.00    -0.077 C  
HETATM   29  C   UNL     1      -7.460   5.987  73.457  1.00  0.00    -0.093 C  
HETATM   30  O   UNL     1      -6.365   3.818  73.432  1.00  0.00    -0.025 OA 
ENDBRANCH  27  28
ENDBRANCH   5  27
BRANCH  10  31
HETATM   31  O   UNL     1     -10.141  13.013  67.565  1.00  0.00    -0.214 OA 
BRANCH  31  32
HETATM   32  C   UNL     1     -11.230  13.782  67.643  1.00  0.00    -0.293 C  
HETATM   33  C   UNL     1     -11.048  14.670  68.837  1.00  0.00    -0.268 C  
HETATM   34  O   UNL     1     -12.195  13.745  66.917  1.00  0.00    -0.410 OA 
ENDBRANCH  31  32
ENDBRANCH  10  31
BRANCH   9  35
HETATM   35  N   UNL     1      -9.030  11.039  65.699  1.00  0.00    -0.200 NA 
HETATM   36  C   UNL     1      -8.617   9.371  63.947  1.00  0.00    -0.225 C  
HETATM   37  C   UNL     1      -8.005  10.302  64.984  1.00  0.00    -0.144 C  
HETATM   38  C   UNL     1      -9.399  10.169  62.913  1.00  0.00    -0.320 C  
HETATM   39  C   UNL     1     -10.436  11.025  63.618  1.00  0.00    -0.388 C  
HETATM   40  C   UNL     1      -9.891  11.822  64.813  1.00  0.00    -0.211 C  
ENDBRANCH   9  35
TORSDOF 6
ENDMDL
MODEL       19
REMARK 921   NORMALIZED FREE ENERGY PREDICTED BY IDOCK:   -4.63 KCAL/MOL
REMARK 922        TOTAL FREE ENERGY PREDICTED BY IDOCK:   -7.93 KCAL/MOL
REMARK 923 INTER-LIGAND FREE ENERGY PREDICTED BY IDOCK:   -7.24 KCAL/MOL
REMARK 924 INTRA-LIGAND FREE ENERGY PREDICTED BY IDOCK:   -0.69 KCAL/MOL
REMARK 927      BINDING AFFINITY PREDICTED BY RF-SCORE:    0.00 PKD
ROOT
HETATM    1  C   UNL     1      -6.348   5.073  68.170  1.00  0.00    -0.036 C  
HETATM    2  C   UNL     1      -6.399   5.348  69.598  1.00  0.00    -0.030 C  
HETATM    3  C   UNL     1      -7.392   4.215  69.457  1.00  0.00    -0.050 C  
HETATM    4  C   UNL     1     -10.829   7.337  66.969  1.00  0.00    -0.350 C  
HETATM    5  C   UNL     1      -7.866   3.880  67.432  1.00  0.00    -0.087 C  
HETATM    6  C   UNL     1      -7.025   3.316  68.277  1.00  0.00    -0.050 C  
HETATM    7  C   UNL     1      -9.795   7.597  68.109  1.00  0.00    -0.186 C  
HETATM    8  C   UNL     1     -10.660   7.779  69.507  1.00  0.00    -0.221 C  
HETATM    9  C   UNL     1     -10.396   9.058  70.373  1.00  0.00    -0.212 C  
HETATM   10  C   UNL     1     -10.330  10.155  69.285  1.00  0.00    -0.223 C  
HETATM   11  C   UNL     1      -8.944  10.069  68.652  1.00  0.00    -0.136 C  
HETATM   12  C   UNL     1      -6.109   2.108  68.193  1.00  0.00    -0.024 C  
HETATM   13  C   UNL     1      -8.981   3.347  68.447  1.00  0.00    -0.185 C  
HETATM   14  C   UNL     1      -9.018   8.912  67.630  1.00  0.00    -0.141 C  
HETATM   15  C   UNL     1      -7.719   8.685  66.857  1.00  0.00    -0.091 C  
HETATM   16  C   UNL     1      -9.740   4.903  68.040  1.00  0.00    -0.202 C  
HETATM   17  C   UNL     1      -6.787   7.659  67.477  1.00  0.00    -0.069 C  
HETATM   18  C   UNL     1      -8.888   6.286  68.252  1.00  0.00    -0.114 C  
HETATM   19  C   UNL     1      -7.458   6.283  67.520  1.00  0.00    -0.088 C  
ENDROOT
BRANCH   3  20
HETATM   20  N   UNL     1      -8.269   3.901  71.050  1.00  0.00    -0.066 N  
HETATM   21  C   UNL     1      -9.622   2.936  71.176  1.00  0.00    -0.156 C  
HETATM   22  C   UNL     1     -10.187   2.937  72.597  1.00  0.00    -0.234 C  
HETATM   23  C   UNL     1      -8.600   5.232  71.656  1.00  0.00    -0.134 C  
HETATM   24  C   UNL     1     -10.455   4.362  73.068  1.00  0.00    -0.250 C  
HETATM   25  C   UNL     1      -7.232   3.091  71.936  1.00  0.00    -0.039 C  
HETATM   26  C   UNL     1      -9.154   5.140  73.057  1.00  0.00    -0.126 C  
ENDBRANCH   3  20
BRANCH   5  27
HETATM   27  O   UNL     1      -7.891   2.466  66.660  1.00  0.00    -0.070 OA 
BRANCH  27  28
HETATM   28  C   UNL     1      -7.982   2.226  65.331  1.00  0.00    -0.078 C  
HETATM   29  C   UNL     1      -9.249   2.861  64.805  1.00  0.00    -0.146 C  
HETATM   30  O   UNL     1      -7.089   1.760  64.644  1.00  0.00    -0.045 OA 
ENDBRANCH  27  28
ENDBRANCH   5  27
BRANCH  10  31
HETATM   31  O   UNL     1     -10.968  11.407  69.454  1.00  0.00    -0.240 OA 
BRANCH  31  32
HETATM   32  C   UNL     1     -11.587  12.130  68.518  1.00  0.00    -0.315 C  
HETATM   33  C   UNL     1     -11.679  13.532  69.045  1.00  0.00    -0.370 C  
HETATM   34  O   UNL     1     -12.025  11.729  67.466  1.00  0.00    -0.607 OA 
ENDBRANCH  31  32
ENDBRANCH  10  31
BRANCH   9  35
HETATM   35  N   UNL     1     -11.260   9.350  71.527  1.00  0.00    -0.378 NA 
HETATM   36  C   UNL     1     -13.646   9.756  71.123  1.00  0.00    -0.233 C  
HETATM   37  C   UNL     1     -12.288  10.370  71.429  1.00  0.00    -0.397 C  
HETATM   38  C   UNL     1     -14.063   8.806  72.237  1.00  0.00    -0.511 C  
HETATM   39  C   UNL     1     -12.978   7.762  72.440  1.00  0.00     0.037 C  
HETATM   40  C   UNL     1     -11.557   8.338  72.540  1.00  0.00    -0.385 C  
ENDBRANCH   9  35
TORSDOF 6
ENDMDL
MODEL       20
REMARK 921   NORMALIZED FREE ENERGY PREDICTED BY IDOCK:   -4.63 KCAL/MOL
REMARK 922        TOTAL FREE ENERGY PREDICTED BY IDOCK:   -7.92 KCAL/MOL
REMARK 923 INTER-LIGAND FREE ENERGY PREDICTED BY IDOCK:   -6.14 KCAL/MOL
REMARK 924 INTRA-LIGAND FREE ENERGY PREDICTED BY IDOCK:   -1.78 KCAL/MOL
REMARK 927      BINDING AFFINITY PREDICTED BY RF-SCORE:    0.00 PKD
ROOT
HETATM    1  C   UNL     1      -8.191  10.702  69.186  1.00  0.00    -0.142 C  
HETATM    2  C   UNL     1      -7.139   9.889  68.596  1.00  0.00    -0.071 C  
HETATM    3  C   UNL     1      -8.086  10.080  67.431  1.00  0.00    -0.114 C  
HETATM    4  C   UNL     1     -11.683   6.928  69.637  1.00  0.00    -0.076 C  
HETATM    5  C   UNL     1      -9.931  10.859  68.081  1.00  0.00    -0.174 C  
HETATM    6  C   UNL     1      -8.846  11.399  67.561  1.00  0.00    -0.146 C  
HETATM    7  C   UNL     1     -10.123   6.918  69.641  1.00  0.00    -0.195 C  
HETATM    8  C   UNL     1      -9.649   5.673  68.661  1.00  0.00    -0.163 C  
HETATM    9  C   UNL     1      -8.637   4.627  69.240  1.00  0.00    -0.082 C  
HETATM   10  C   UNL     1      -9.210   4.400  70.659  1.00  0.00    -0.131 C  
HETATM   11  C   UNL     1      -8.763   5.585  71.512  1.00  0.00    -0.138 C  
HETATM   12  C   UNL     1      -8.492  12.802  67.100  1.00  0.00    -0.181 C  
HETATM   13  C   UNL     1     -10.019  10.092  66.681  1.00  0.00    -0.272 C  
HETATM   14  C   UNL     1      -9.743   6.734  71.185  1.00  0.00    -0.181 C  
HETATM   15  C   UNL     1      -9.480   8.016  71.974  1.00  0.00    -0.257 C  
HETATM   16  C   UNL     1     -10.569   8.763  67.727  1.00  0.00    -0.256 C  
HETATM   17  C   UNL     1      -8.573   9.012  71.274  1.00  0.00    -0.221 C  
HETATM   18  C   UNL     1      -9.626   8.289  68.979  1.00  0.00    -0.156 C  
HETATM   19  C   UNL     1      -9.209   9.487  69.964  1.00  0.00    -0.264 C  
ENDROOT
BRANCH   3  20
HETATM   20  N   UNL     1      -7.557   9.073  65.977  1.00  0.00    -0.094 N  
HETATM   21  C   UNL     1      -8.453   8.946  64.577  1.00  0.00    -0.161 C  
HETATM   22  C   UNL     1      -7.817   7.971  63.586  1.00  0.00    -0.142 C  
HETATM   23  C   UNL     1      -7.277   7.684  66.466  1.00  0.00    -0.082 C  
HETATM   24  C   UNL     1      -7.584   6.614  64.241  1.00  0.00    -0.104 C  
HETATM   25  C   UNL     1      -6.246   9.785  65.439  1.00  0.00    -0.080 C  
HETATM   26  C   UNL     1      -6.652   6.787  65.423  1.00  0.00    -0.050 C  
ENDBRANCH   3  20
BRANCH   5  27
HETATM   27  O   UNL     1     -10.738  12.104  67.452  1.00  0.00    -0.223 OA 
BRANCH  27  28
HETATM   28  C   UNL     1     -11.748  12.823  67.995  1.00  0.00    -0.356 C  
HETATM   29  C   UNL     1     -11.975  12.353  69.413  1.00  0.00    -0.319 C  
HETATM   30  O   UNL     1     -12.243  13.817  67.493  1.00  0.00    -0.355 OA 
ENDBRANCH  27  28
ENDBRANCH   5  27
BRANCH  10  31
HETATM   31  O   UNL     1      -9.310   3.106  71.221  1.00  0.00    -0.112 OA 
BRANCH  31  32
HETATM   32  C   UNL     1      -9.320   2.786  72.517  1.00  0.00    -0.099 C  
HETATM   33  C   UNL     1      -7.963   2.233  72.838  1.00  0.00    -0.054 C  
HETATM   34  O   UNL     1     -10.252   2.886  73.279  1.00  0.00    -0.113 OA 
ENDBRANCH  31  32
ENDBRANCH  10  31
BRANCH   9  35
HETATM   35  N   UNL     1      -8.323   3.411  68.474  1.00  0.00    -0.075 NA 
HETATM   36  C   UNL     1      -8.919   3.348  66.094  1.00  0.00    -0.145 C  
HETATM   37  C   UNL     1      -9.271   2.896  67.504  1.00  0.00    -0.193 C  
HETATM   38  C   UNL     1      -7.545   2.829  65.697  1.00  0.00    -0.076 C  
HETATM   39  C   UNL     1      -6.521   3.272  66.728  1.00  0.00    -0.037 C  
HETATM   40  C   UNL     1      -6.943   3.021  68.184  1.00  0.00    -0.049 C  
ENDBRANCH   9  35
TORSDOF 6
ENDMDL
MODEL       21
REMARK 921   NORMALIZED FREE ENERGY PREDICTED BY IDOCK:   -4.61 KCAL/MOL
REMARK 922        TOTAL FREE ENERGY PREDICTED BY IDOCK:   -7.89 KCAL/MOL
REMARK 923 INTER-LIGAND FREE ENERGY PREDICTED BY IDOCK:   -5.95 KCAL/MOL
REMARK 924 INTRA-LIGAND FREE ENERGY PREDICTED BY IDOCK:   -1.94 KCAL/MOL
REMARK 927      BINDING AFFINITY PREDICTED BY RF-SCORE:    0.00 PKD
ROOT
HETATM    1  C   UNL     1      -8.512   6.114  71.040  1.00  0.00    -0.128 C  
HETATM    2  C   UNL     1      -7.289   6.664  70.476  1.00  0.00    -0.081 C  
HETATM    3  C   UNL     1      -8.203   7.871  70.493  1.00  0.00    -0.118 C  
HETATM    4  C   UNL     1     -11.160   5.880  66.615  1.00  0.00    -0.104 C  
HETATM    5  C   UNL     1     -10.197   7.299  70.859  1.00  0.00    -0.196 C  
HETATM    6  C   UNL     1      -9.226   7.760  71.623  1.00  0.00    -0.168 C  
HETATM    7  C   UNL     1      -9.634   5.801  66.929  1.00  0.00    -0.153 C  
HETATM    8  C   UNL     1      -8.868   6.774  65.831  1.00  0.00    -0.127 C  
HETATM    9  C   UNL     1      -7.687   6.161  65.004  1.00  0.00    -0.099 C  
HETATM   10  C   UNL     1      -8.263   4.774  64.632  1.00  0.00    -0.113 C  
HETATM   11  C   UNL     1      -8.110   3.886  65.864  1.00  0.00    -0.101 C  
HETATM   12  C   UNL     1      -9.152   8.185  73.079  1.00  0.00    -0.344 C  
HETATM   13  C   UNL     1     -10.061   8.712  70.122  1.00  0.00    -0.196 C  
HETATM   14  C   UNL     1      -9.292   4.244  66.792  1.00  0.00    -0.180 C  
HETATM   15  C   UNL     1      -9.335   3.426  68.084  1.00  0.00    -0.240 C  
HETATM   16  C   UNL     1     -10.369   7.711  68.684  1.00  0.00    -0.220 C  
HETATM   17  C   UNL     1      -8.626   4.070  69.261  1.00  0.00    -0.111 C  
HETATM   18  C   UNL     1      -9.403   6.421  68.387  1.00  0.00    -0.121 C  
HETATM   19  C   UNL     1      -9.288   5.402  69.624  1.00  0.00    -0.178 C  
ENDROOT
BRANCH   3  20
HETATM   20  N   UNL     1      -7.414   9.311  69.650  1.00  0.00    -0.072 N  
HETATM   21  C   UNL     1      -8.234  10.711  69.269  1.00  0.00    -0.115 C  
HETATM   22  C   UNL     1      -7.352  11.688  68.491  1.00  0.00    -0.102 C  
HETATM   23  C   UNL     1      -6.769   8.804  68.396  1.00  0.00    -0.064 C  
HETATM   24  C   UNL     1      -6.763  11.016  67.256  1.00  0.00    -0.086 C  
HETATM   25  C   UNL     1      -6.342   9.855  70.685  1.00  0.00    -0.104 C  
HETATM   26  C   UNL     1      -5.919   9.834  67.690  1.00  0.00    -0.047 C  
ENDBRANCH   3  20
BRANCH   5  27
HETATM   27  O   UNL     1     -11.216   7.950  71.923  1.00  0.00    -0.249 OA 
BRANCH  27  28
HETATM   28  C   UNL     1     -12.566   8.034  71.864  1.00  0.00    -0.328 C  
HETATM   29  C   UNL     1     -12.982   9.451  72.186  1.00  0.00    -0.503 C  
HETATM   30  O   UNL     1     -13.299   7.166  71.420  1.00  0.00    -0.381 OA 
ENDBRANCH  27  28
ENDBRANCH   5  27
BRANCH  10  31
HETATM   31  O   UNL     1      -8.116   4.234  63.333  1.00  0.00    -0.082 OA 
BRANCH  31  32
HETATM   32  C   UNL     1      -8.828   3.248  62.782  1.00  0.00    -0.092 C  
HETATM   33  C   UNL     1     -10.264   3.677  62.821  1.00  0.00    -0.180 C  
HETATM   34  O   UNL     1      -8.404   2.195  62.368  1.00  0.00    -0.069 OA 
ENDBRANCH  31  32
ENDBRANCH  10  31
BRANCH   9  35
HETATM   35  N   UNL     1      -7.094   6.927  63.898  1.00  0.00    -0.056 NA 
HETATM   36  C   UNL     1      -7.447   9.355  63.842  1.00  0.00    -0.116 C  
HETATM   37  C   UNL     1      -7.842   8.000  63.271  1.00  0.00    -0.147 C  
HETATM   38  C   UNL     1      -5.972   9.629  63.586  1.00  0.00    -0.103 C  
HETATM   39  C   UNL     1      -5.143   8.488  64.152  1.00  0.00    -0.044 C  
HETATM   40  C   UNL     1      -5.647   7.089  63.765  1.00  0.00    -0.032 C  
ENDBRANCH   9  35
TORSDOF 6
ENDMDL
MODEL       22
REMARK 921   NORMALIZED FREE ENERGY PREDICTED BY IDOCK:   -4.58 KCAL/MOL
REMARK 922        TOTAL FREE ENERGY PREDICTED BY IDOCK:   -7.86 KCAL/MOL
REMARK 923 INTER-LIGAND FREE ENERGY PREDICTED BY IDOCK:   -7.25 KCAL/MOL
REMARK 924 INTRA-LIGAND FREE ENERGY PREDICTED BY IDOCK:   -0.61 KCAL/MOL
REMARK 927      BINDING AFFINITY PREDICTED BY RF-SCORE:    0.00 PKD
ROOT
HETATM    1  C   UNL     1     -11.307  13.365  68.312  1.00  0.00    -0.330 C  
HETATM    2  C   UNL     1     -10.119  13.593  69.122  1.00  0.00     0.153 C  
HETATM    3  C   UNL     1      -9.524  13.233  67.777  1.00  0.00    -0.208 C  
HETATM    4  C   UNL     1     -11.029   8.211  68.282  1.00  0.00     0.163 C  
HETATM    5  C   UNL     1     -10.991  12.425  66.498  1.00  0.00    -0.272 C  
HETATM    6  C   UNL     1     -10.470  13.629  66.643  1.00  0.00    -0.272 C  
HETATM    7  C   UNL     1     -10.549   9.280  69.312  1.00  0.00    -0.234 C  
HETATM    8  C   UNL     1      -9.016   8.855  69.765  1.00  0.00    -0.149 C  
HETATM    9  C   UNL     1      -8.710   8.732  71.297  1.00  0.00    -0.215 C  
HETATM   10  C   UNL     1      -9.967   7.982  71.799  1.00  0.00    -0.187 C  
HETATM   11  C   UNL     1     -11.083   9.018  71.914  1.00  0.00    -0.433 C  
HETATM   12  C   UNL     1     -10.618  14.932  65.879  1.00  0.00    -0.334 C  
HETATM   13  C   UNL     1      -9.498  12.010  66.104  1.00  0.00    -0.241 C  
HETATM   14  C   UNL     1     -11.636   9.202  70.483  1.00  0.00    -0.238 C  
HETATM   15  C   UNL     1     -12.801  10.189  70.392  1.00  0.00    -0.155 C  
HETATM   16  C   UNL     1      -9.932  10.543  67.011  1.00  0.00    -0.244 C  
HETATM   17  C   UNL     1     -12.393  11.617  70.080  1.00  0.00    -0.261 C  
HETATM   18  C   UNL     1     -10.471  10.687  68.552  1.00  0.00    -0.212 C  
HETATM   19  C   UNL     1     -11.713  11.693  68.710  1.00  0.00    -0.392 C  
ENDROOT
BRANCH   3  20
HETATM   20  N   UNL     1      -7.689  13.079  67.885  1.00  0.00    -0.129 N  
HETATM   21  C   UNL     1      -6.781  12.173  66.820  1.00  0.00     0.116 C  
HETATM   22  C   UNL     1      -5.304  12.153  67.212  1.00  0.00    -0.113 C  
HETATM   23  C   UNL     1      -7.354  12.622  69.273  1.00  0.00     0.232 C  
HETATM   24  C   UNL     1      -5.135  11.680  68.652  1.00  0.00    -0.046 C  
HETATM   25  C   UNL     1      -7.136  14.537  67.595  1.00  0.00    -0.183 C  
HETATM   26  C   UNL     1      -5.873  12.629  69.574  1.00  0.00    -0.105 C  
ENDBRANCH   3  20
BRANCH   5  27
HETATM   27  O   UNL     1     -11.282  12.838  64.968  1.00  0.00    -0.287 OA 
BRANCH  27  28
HETATM   28  C   UNL     1     -11.374  12.043  63.878  1.00  0.00    -0.425 C  
HETATM   29  C   UNL     1     -12.786  12.109  63.342  1.00  0.00    -0.508 C  
HETATM   30  O   UNL     1     -10.426  11.529  63.308  1.00  0.00    -0.372 OA 
ENDBRANCH  27  28
ENDBRANCH   5  27
BRANCH  10  31
HETATM   31  O   UNL     1      -9.875   6.918  72.726  1.00  0.00    -0.162 OA 
BRANCH  31  32
HETATM   32  C   UNL     1     -10.792   5.979  72.972  1.00  0.00    -0.260 C  
HETATM   33  C   UNL     1     -10.399   5.316  74.258  1.00  0.00    -0.308 C  
HETATM   34  O   UNL     1     -11.736   5.690  72.275  1.00  0.00    -0.247 OA 
ENDBRANCH  31  32
ENDBRANCH  10  31
BRANCH   9  35
HETATM   35  N   UNL     1      -7.418   8.188  71.743  1.00  0.00    -0.081 NA 
HETATM   36  C   UNL     1      -7.150   7.622  74.115  1.00  0.00    -0.132 C  
HETATM   37  C   UNL     1      -6.844   8.616  73.004  1.00  0.00     0.037 C  
HETATM   38  C   UNL     1      -6.551   6.261  73.789  1.00  0.00    -0.071 C  
HETATM   39  C   UNL     1      -7.057   5.800  72.433  1.00  0.00    -0.085 C  
HETATM   40  C   UNL     1      -6.958   6.864  71.328  1.00  0.00    -0.062 C  
ENDBRANCH   9  35
TORSDOF 6
ENDMDL
MODEL       23
REMARK 921   NORMALIZED FREE ENERGY PREDICTED BY IDOCK:   -4.58 KCAL/MOL
REMARK 922        TOTAL FREE ENERGY PREDICTED BY IDOCK:   -7.86 KCAL/MOL
REMARK 923 INTER-LIGAND FREE ENERGY PREDICTED BY IDOCK:   -6.07 KCAL/MOL
REMARK 924 INTRA-LIGAND FREE ENERGY PREDICTED BY IDOCK:   -1.79 KCAL/MOL
REMARK 927      BINDING AFFINITY PREDICTED BY RF-SCORE:    0.00 PKD
ROOT
HETATM    1  C   UNL     1     -10.794  12.575  66.035  1.00  0.00    -0.309 C  
HETATM    2  C   UNL     1     -11.420  11.357  66.526  1.00  0.00    -0.093 C  
HETATM    3  C   UNL     1     -10.440  11.679  67.633  1.00  0.00    -0.191 C  
HETATM    4  C   UNL     1      -6.339  10.410  64.582  1.00  0.00    -0.066 C  
HETATM    5  C   UNL     1      -9.070  13.157  67.018  1.00  0.00    -0.231 C  
HETATM    6  C   UNL     1     -10.191  13.185  67.715  1.00  0.00    -0.231 C  
HETATM    7  C   UNL     1      -7.791   9.849  64.690  1.00  0.00    -0.142 C  
HETATM    8  C   UNL     1      -7.680   8.374  65.433  1.00  0.00    -0.099 C  
HETATM    9  C   UNL     1      -8.354   7.146  64.732  1.00  0.00     0.021 C  
HETATM   10  C   UNL     1      -7.941   7.371  63.258  1.00  0.00    -0.086 C  
HETATM   11  C   UNL     1      -8.872   8.442  62.696  1.00  0.00     0.207 C  
HETATM   12  C   UNL     1     -10.925  14.277  68.472  1.00  0.00    -0.267 C  
HETATM   13  C   UNL     1      -8.538  12.254  68.226  1.00  0.00    -0.172 C  
HETATM   14  C   UNL     1      -8.297   9.795  63.173  1.00  0.00    -0.166 C  
HETATM   15  C   UNL     1      -9.081  11.010  62.679  1.00  0.00    -0.375 C  
HETATM   16  C   UNL     1      -7.726  11.395  66.898  1.00  0.00    -0.155 C  
HETATM   17  C   UNL     1     -10.162  11.492  63.629  1.00  0.00    -0.450 C  
HETATM   18  C   UNL     1      -8.621  10.827  65.648  1.00  0.00    -0.185 C  
HETATM   19  C   UNL     1      -9.547  11.943  64.957  1.00  0.00    -0.110 C  
ENDROOT
BRANCH   3  20
HETATM   20  N   UNL     1     -10.394  10.329  68.890  1.00  0.00    -0.192 N  
HETATM   21  C   UNL     1      -9.210  10.204  70.057  1.00  0.00     0.005 C  
HETATM   22  C   UNL     1      -9.375   8.936  70.895  1.00  0.00    -0.295 C  
HETATM   23  C   UNL     1     -10.449   9.024  68.155  1.00  0.00    -0.207 C  
HETATM   24  C   UNL     1      -9.428   7.702  70.000  1.00  0.00    -0.161 C  
HETATM   25  C   UNL     1     -11.684  10.557  69.785  1.00  0.00    -0.281 C  
HETATM   26  C   UNL     1     -10.609   7.824  69.059  1.00  0.00    -0.179 C  
ENDBRANCH   3  20
BRANCH   5  27
HETATM   27  O   UNL     1      -8.647  14.487  67.823  1.00  0.00    -0.159 OA 
BRANCH  27  28
HETATM   28  C   UNL     1      -8.025  15.596  67.362  1.00  0.00    -0.178 C  
HETATM   29  C   UNL     1      -6.566  15.535  67.750  1.00  0.00    -0.181 C  
HETATM   30  O   UNL     1      -8.516  16.399  66.587  1.00  0.00    -0.212 OA 
ENDBRANCH  27  28
ENDBRANCH   5  27
BRANCH  10  31
HETATM   31  O   UNL     1      -7.493   6.306  62.443  1.00  0.00    -0.051 OA 
BRANCH  31  32
HETATM   32  C   UNL     1      -6.308   5.692  62.494  1.00  0.00    -0.022 C  
HETATM   33  C   UNL     1      -5.276   6.760  62.698  1.00  0.00    -0.031 C  
HETATM   34  O   UNL     1      -6.101   4.509  62.364  1.00  0.00    -0.016 OA 
ENDBRANCH  31  32
ENDBRANCH  10  31
BRANCH   9  35
HETATM   35  N   UNL     1      -8.134   5.791  65.260  1.00  0.00    -0.123 NA 
HETATM   36  C   UNL     1      -7.813   5.522  67.678  1.00  0.00    -0.097 C  
HETATM   37  C   UNL     1      -7.154   5.567  66.306  1.00  0.00    -0.072 C  
HETATM   38  C   UNL     1      -8.814   4.377  67.749  1.00  0.00    -0.122 C  
HETATM   39  C   UNL     1      -9.820   4.518  66.619  1.00  0.00    -0.244 C  
HETATM   40  C   UNL     1      -9.190   4.779  65.242  1.00  0.00    -0.153 C  
ENDBRANCH   9  35
TORSDOF 6
ENDMDL
MODEL       24
REMARK 921   NORMALIZED FREE ENERGY PREDICTED BY IDOCK:   -4.49 KCAL/MOL
REMARK 922        TOTAL FREE ENERGY PREDICTED BY IDOCK:   -7.73 KCAL/MOL
REMARK 923 INTER-LIGAND FREE ENERGY PREDICTED BY IDOCK:   -6.06 KCAL/MOL
REMARK 924 INTRA-LIGAND FREE ENERGY PREDICTED BY IDOCK:   -1.67 KCAL/MOL
REMARK 927      BINDING AFFINITY PREDICTED BY RF-SCORE:    0.00 PKD
ROOT
HETATM    1  C   UNL     1     -10.057  11.457  66.117  1.00  0.00    -0.271 C  
HETATM    2  C   UNL     1     -10.832  10.364  66.685  1.00  0.00    -0.140 C  
HETATM    3  C   UNL     1      -9.985  10.799  67.862  1.00  0.00    -0.174 C  
HETATM    4  C   UNL     1      -5.625   8.855  65.634  1.00  0.00    -0.049 C  
HETATM    5  C   UNL     1      -8.439  12.088  67.239  1.00  0.00    -0.175 C  
HETATM    6  C   UNL     1      -9.636  12.284  67.759  1.00  0.00    -0.200 C  
HETATM    7  C   UNL     1      -7.117   8.398  65.617  1.00  0.00    -0.075 C  
HETATM    8  C   UNL     1      -7.215   7.051  66.573  1.00  0.00    -0.082 C  
HETATM    9  C   UNL     1      -7.881   5.768  65.969  1.00  0.00    -0.101 C  
HETATM   10  C   UNL     1      -7.262   5.742  64.551  1.00  0.00    -0.062 C  
HETATM   11  C   UNL     1      -8.029   6.762  63.714  1.00  0.00    -0.065 C  
HETATM   12  C   UNL     1     -10.380  13.517  68.239  1.00  0.00    -0.253 C  
HETATM   13  C   UNL     1      -8.140  11.354  68.627  1.00  0.00    -0.141 C  
HETATM   14  C   UNL     1      -7.422   8.139  64.068  1.00  0.00    -0.115 C  
HETATM   15  C   UNL     1      -8.041   9.305  63.297  1.00  0.00    -0.159 C  
HETATM   16  C   UNL     1      -7.226  10.258  67.565  1.00  0.00    -0.088 C  
HETATM   17  C   UNL     1      -9.198   9.985  64.006  1.00  0.00    -0.318 C  
HETATM   18  C   UNL     1      -7.989   9.555  66.297  1.00  0.00    -0.107 C  
HETATM   19  C   UNL     1      -8.730  10.600  65.328  1.00  0.00    -0.198 C  
ENDROOT
BRANCH   3  20
HETATM   20  N   UNL     1     -10.205   9.657  69.294  1.00  0.00    -0.194 N  
HETATM   21  C   UNL     1      -9.066   9.466  70.496  1.00  0.00    -0.256 C  
HETATM   22  C   UNL     1      -9.478   8.386  71.497  1.00  0.00    -0.267 C  
HETATM   23  C   UNL     1     -10.523   8.298  68.746  1.00  0.00    -0.177 C  
HETATM   24  C   UNL     1      -9.779   7.074  70.781  1.00  0.00    -0.170 C  
HETATM   25  C   UNL     1     -11.420  10.260  70.116  1.00  0.00    -0.309 C  
HETATM   26  C   UNL     1     -10.916   7.293  69.803  1.00  0.00    -0.235 C  
ENDBRANCH   3  20
BRANCH   5  27
HETATM   27  O   UNL     1      -8.027  13.501  67.895  1.00  0.00    -0.132 OA 
BRANCH  27  28
HETATM   28  C   UNL     1      -6.923  14.250  67.671  1.00  0.00    -0.184 C  
HETATM   29  C   UNL     1      -7.227  15.688  68.025  1.00  0.00    -0.140 C  
HETATM   30  O   UNL     1      -5.815  13.803  67.426  1.00  0.00    -0.353 OA 
ENDBRANCH  27  28
ENDBRANCH   5  27
BRANCH  10  31
HETATM   31  O   UNL     1      -6.793   4.541  63.970  1.00  0.00    -0.043 OA 
BRANCH  31  32
HETATM   32  C   UNL     1      -7.521   3.594  63.372  1.00  0.00    -0.055 C  
HETATM   33  C   UNL     1      -6.583   2.815  62.497  1.00  0.00    -0.018 C  
HETATM   34  O   UNL     1      -8.711   3.421  63.481  1.00  0.00    -0.093 OA 
ENDBRANCH  31  32
ENDBRANCH  10  31
BRANCH   9  35
HETATM   35  N   UNL     1      -7.835   4.500  66.713  1.00  0.00    -0.098 NA 
HETATM   36  C   UNL     1      -7.245   4.569  69.094  1.00  0.00    -0.052 C  
HETATM   37  C   UNL     1      -6.778   4.261  67.679  1.00  0.00    -0.047 C  
HETATM   38  C   UNL     1      -8.413   3.671  69.476  1.00  0.00    -0.097 C  
HETATM   39  C   UNL     1      -9.520   3.821  68.447  1.00  0.00    -0.211 C  
HETATM   40  C   UNL     1      -9.044   3.727  66.989  1.00  0.00    -0.162 C  
ENDBRANCH   9  35
TORSDOF 6
ENDMDL
MODEL       25
REMARK 921   NORMALIZED FREE ENERGY PREDICTED BY IDOCK:   -4.40 KCAL/MOL
REMARK 922        TOTAL FREE ENERGY PREDICTED BY IDOCK:   -7.62 KCAL/MOL
REMARK 923 INTER-LIGAND FREE ENERGY PREDICTED BY IDOCK:   -6.60 KCAL/MOL
REMARK 924 INTRA-LIGAND FREE ENERGY PREDICTED BY IDOCK:   -1.02 KCAL/MOL
REMARK 927      BINDING AFFINITY PREDICTED BY RF-SCORE:    0.00 PKD
ROOT
HETATM    1  C   UNL     1      -9.093  13.111  68.706  1.00  0.00     0.153 C  
HETATM    2  C   UNL     1      -8.715  13.236  67.306  1.00  0.00    -0.214 C  
HETATM    3  C   UNL     1     -10.210  13.014  67.215  1.00  0.00    -0.239 C  
HETATM    4  C   UNL     1      -9.708   7.986  68.703  1.00  0.00    -0.163 C  
HETATM    5  C   UNL     1     -10.988  12.365  69.062  1.00  0.00    -0.197 C  
HETATM    6  C   UNL     1     -10.913  13.539  68.465  1.00  0.00    -0.291 C  
HETATM    7  C   UNL     1      -8.804   8.934  67.855  1.00  0.00    -0.133 C  
HETATM    8  C   UNL     1      -8.939   8.442  66.281  1.00  0.00    -0.213 C  
HETATM    9  C   UNL     1      -7.620   8.153  65.486  1.00  0.00    -0.087 C  
HETATM   10  C   UNL     1      -6.796   7.371  66.536  1.00  0.00    -0.062 C  
HETATM   11  C   UNL     1      -6.212   8.403  67.498  1.00  0.00    -0.053 C  
HETATM   12  C   UNL     1     -11.454  14.919  68.798  1.00  0.00    -0.328 C  
HETATM   13  C   UNL     1     -11.902  11.974  67.809  1.00  0.00    -0.308 C  
HETATM   14  C   UNL     1      -7.347   8.746  68.489  1.00  0.00    -0.085 C  
HETATM   15  C   UNL     1      -6.944   9.752  69.568  1.00  0.00    -0.064 C  
HETATM   16  C   UNL     1     -11.045  10.425  67.984  1.00  0.00    -0.359 C  
HETATM   17  C   UNL     1      -7.237  11.199  69.221  1.00  0.00    -0.112 C  
HETATM   18  C   UNL     1      -9.407  10.412  67.968  1.00  0.00    -0.145 C  
HETATM   19  C   UNL     1      -8.743  11.412  69.036  1.00  0.00     0.079 C  
ENDROOT
BRANCH   3  20
HETATM   20  N   UNL     1     -10.744  12.825  65.459  1.00  0.00    -0.273 N  
HETATM   21  C   UNL     1     -12.298  12.419  65.013  1.00  0.00    -0.369 C  
HETATM   22  C   UNL     1     -12.423  12.240  63.500  1.00  0.00    -0.642 C  
HETATM   23  C   UNL     1      -9.812  11.850  64.804  1.00  0.00    -0.191 C  
HETATM   24  C   UNL     1     -11.400  11.230  62.990  1.00  0.00     0.347 C  
HETATM   25  C   UNL     1     -10.615  14.276  64.832  1.00  0.00    -0.431 C  
HETATM   26  C   UNL     1     -10.006  11.733  63.311  1.00  0.00    -0.435 C  
ENDBRANCH   3  20
BRANCH   5  27
HETATM   27  O   UNL     1     -12.282  12.942  69.829  1.00  0.00    -0.255 OA 
BRANCH  27  28
HETATM   28  C   UNL     1     -12.653  12.766  71.118  1.00  0.00    -0.271 C  
HETATM   29  C   UNL     1     -12.672  11.286  71.424  1.00  0.00    -0.501 C  
HETATM   30  O   UNL     1     -12.748  13.659  71.943  1.00  0.00    -0.299 OA 
ENDBRANCH  27  28
ENDBRANCH   5  27
BRANCH  10  31
HETATM   31  O   UNL     1      -6.062   6.213  66.190  1.00  0.00    -0.027 OA 
BRANCH  31  32
HETATM   32  C   UNL     1      -6.064   5.036  66.822  1.00  0.00    -0.031 C  
HETATM   33  C   UNL     1      -7.406   4.899  67.476  1.00  0.00    -0.078 C  
HETATM   34  O   UNL     1      -5.149   4.250  66.888  1.00  0.00    -0.007 OA 
ENDBRANCH  31  32
ENDBRANCH  10  31
BRANCH   9  35
HETATM   35  N   UNL     1      -7.691   7.549  64.147  1.00  0.00    -0.126 NA 
HETATM   36  C   UNL     1      -5.593   6.931  63.035  1.00  0.00    -0.036 C  
HETATM   37  C   UNL     1      -6.737   7.931  63.123  1.00  0.00    -0.079 C  
HETATM   38  C   UNL     1      -6.120   5.552  62.664  1.00  0.00    -0.018 C  
HETATM   39  C   UNL     1      -7.188   5.136  63.661  1.00  0.00    -0.049 C  
HETATM   40  C   UNL     1      -8.249   6.213  63.936  1.00  0.00    -0.008 C  
ENDBRANCH   9  35
TORSDOF 6
ENDMDL
MODEL       26
REMARK 921   NORMALIZED FREE ENERGY PREDICTED BY IDOCK:   -4.10 KCAL/MOL
REMARK 922        TOTAL FREE ENERGY PREDICTED BY IDOCK:   -7.21 KCAL/MOL
REMARK 923 INTER-LIGAND FREE ENERGY PREDICTED BY IDOCK:   -5.61 KCAL/MOL
REMARK 924 INTRA-LIGAND FREE ENERGY PREDICTED BY IDOCK:   -1.60 KCAL/MOL
REMARK 927      BINDING AFFINITY PREDICTED BY RF-SCORE:    0.00 PKD
ROOT
HETATM    1  C   UNL     1      -8.932  12.696  65.681  1.00  0.00     0.510 C  
HETATM    2  C   UNL     1     -10.213  12.143  66.094  1.00  0.00    -0.254 C  
HETATM    3  C   UNL     1      -9.987  13.229  67.124  1.00  0.00    -0.238 C  
HETATM    4  C   UNL     1      -6.105  10.482  69.389  1.00  0.00    -0.045 C  
HETATM    5  C   UNL     1      -8.002  13.931  67.054  1.00  0.00     0.069 C  
HETATM    6  C   UNL     1      -9.140  14.360  66.543  1.00  0.00    -0.233 C  
HETATM    7  C   UNL     1      -7.433  10.057  68.688  1.00  0.00    -0.083 C  
HETATM    8  C   UNL     1      -8.465   9.559  69.881  1.00  0.00    -0.198 C  
HETATM    9  C   UNL     1      -9.135   8.150  69.732  1.00  0.00    -0.148 C  
HETATM   10  C   UNL     1      -7.939   7.293  69.252  1.00  0.00    -0.118 C  
HETATM   11  C   UNL     1      -7.763   7.575  67.763  1.00  0.00    -0.115 C  
HETATM   12  C   UNL     1      -9.537  15.607  65.773  1.00  0.00    -0.361 C  
HETATM   13  C   UNL     1      -8.725  14.195  68.456  1.00  0.00    -0.166 C  
HETATM   14  C   UNL     1      -6.981   8.905  67.674  1.00  0.00    -0.075 C  
HETATM   15  C   UNL     1      -6.671   9.347  66.244  1.00  0.00    -0.075 C  
HETATM   16  C   UNL     1      -7.852  12.711  68.903  1.00  0.00     0.137 C  
HETATM   17  C   UNL     1      -7.703  10.277  65.634  1.00  0.00    -0.148 C  
HETATM   18  C   UNL     1      -8.059  11.360  68.000  1.00  0.00    -0.134 C  
HETATM   19  C   UNL     1      -7.787  11.582  66.432  1.00  0.00    -0.020 C  
ENDROOT
BRANCH   3  20
HETATM   20  N   UNL     1     -11.285  13.178  68.435  1.00  0.00    -0.254 N  
HETATM   21  C   UNL     1     -11.294  14.195  69.756  1.00  0.00    -0.204 C  
HETATM   22  C   UNL     1     -12.432  13.859  70.719  1.00  0.00    -0.445 C  
HETATM   23  C   UNL     1     -11.361  11.770  68.943  1.00  0.00    -0.267 C  
HETATM   24  C   UNL     1     -12.376  12.391  71.128  1.00  0.00    -0.243 C  
HETATM   25  C   UNL     1     -12.624  13.614  67.704  1.00  0.00     0.507 C  
HETATM   26  C   UNL     1     -12.512  11.527  69.891  1.00  0.00    -0.159 C  
ENDBRANCH   3  20
BRANCH   5  27
HETATM   27  O   UNL     1      -7.514  15.465  67.014  1.00  0.00    -0.205 OA 
BRANCH  27  28
HETATM   28  C   UNL     1      -6.345  15.995  67.446  1.00  0.00    -0.172 C  
HETATM   29  C   UNL     1      -6.636  16.988  68.548  1.00  0.00    -0.168 C  
HETATM   30  O   UNL     1      -5.239  15.584  67.140  1.00  0.00    -0.320 OA 
ENDBRANCH  27  28
ENDBRANCH   5  27
BRANCH  10  31
HETATM   31  O   UNL     1      -7.696   6.002  69.775  1.00  0.00    -0.092 OA 
BRANCH  31  32
HETATM   32  C   UNL     1      -6.929   5.686  70.822  1.00  0.00    -0.057 C  
HETATM   33  C   UNL     1      -5.847   6.722  70.894  1.00  0.00    -0.028 C  
HETATM   34  O   UNL     1      -7.056   4.729  71.547  1.00  0.00    -0.051 OA 
ENDBRANCH  31  32
ENDBRANCH  10  31
BRANCH   9  35
HETATM   35  N   UNL     1      -9.919   7.592  70.845  1.00  0.00    -0.181 NA 
HETATM   36  C   UNL     1     -11.604   9.020  71.914  1.00  0.00    -0.441 C  
HETATM   37  C   UNL     1     -10.214   8.407  72.009  1.00  0.00    -0.294 C  
HETATM   38  C   UNL     1     -12.663   7.929  71.850  1.00  0.00    -0.341 C  
HETATM   39  C   UNL     1     -12.354   6.995  70.693  1.00  0.00    -0.239 C  
HETATM   40  C   UNL     1     -10.893   6.522  70.637  1.00  0.00    -0.266 C  
ENDBRANCH   9  35
TORSDOF 6
ENDMDL
MODEL       27
REMARK 921   NORMALIZED FREE ENERGY PREDICTED BY IDOCK:   -3.75 KCAL/MOL
REMARK 922        TOTAL FREE ENERGY PREDICTED BY IDOCK:   -6.74 KCAL/MOL
REMARK 923 INTER-LIGAND FREE ENERGY PREDICTED BY IDOCK:   -5.53 KCAL/MOL
REMARK 924 INTRA-LIGAND FREE ENERGY PREDICTED BY IDOCK:   -1.20 KCAL/MOL
REMARK 927      BINDING AFFINITY PREDICTED BY RF-SCORE:    0.00 PKD
ROOT
HETATM    1  C   UNL     1     -11.050  12.960  65.645  1.00  0.00    -0.307 C  
HETATM    2  C   UNL     1     -11.771  11.912  66.352  1.00  0.00    -0.232 C  
HETATM    3  C   UNL     1     -11.008  12.585  67.472  1.00  0.00    -0.251 C  
HETATM    4  C   UNL     1      -6.430  10.659  65.716  1.00  0.00    -0.107 C  
HETATM    5  C   UNL     1      -9.531  13.877  66.705  1.00  0.00    -0.279 C  
HETATM    6  C   UNL     1     -10.759  14.058  67.150  1.00  0.00    -0.283 C  
HETATM    7  C   UNL     1      -7.884  10.092  65.723  1.00  0.00    -0.128 C  
HETATM    8  C   UNL     1      -7.929   8.904  66.874  1.00  0.00    -0.101 C  
HETATM    9  C   UNL     1      -8.478   7.497  66.456  1.00  0.00    -0.131 C  
HETATM   10  C   UNL     1      -7.798   7.300  65.081  1.00  0.00    -0.123 C  
HETATM   11  C   UNL     1      -8.597   8.120  64.071  1.00  0.00     0.197 C  
HETATM   12  C   UNL     1     -11.608  15.291  67.408  1.00  0.00    -0.196 C  
HETATM   13  C   UNL     1      -9.241  13.389  68.200  1.00  0.00    -0.215 C  
HETATM   14  C   UNL     1      -8.103   9.576  64.224  1.00  0.00    -0.142 C  
HETATM   15  C   UNL     1      -8.769  10.560  63.261  1.00  0.00    -0.195 C  
HETATM   16  C   UNL     1      -8.208  12.215  67.352  1.00  0.00    -0.175 C  
HETATM   17  C   UNL     1     -10.000  11.251  63.818  1.00  0.00    -0.388 C  
HETATM   18  C   UNL     1      -8.864  11.270  66.186  1.00  0.00    -0.194 C  
HETATM   19  C   UNL     1      -9.634  12.095  65.042  1.00  0.00    -0.027 C  
ENDROOT
BRANCH   3  20
HETATM   20  N   UNL     1     -11.210  11.663  69.058  1.00  0.00    -0.242 N  
HETATM   21  C   UNL     1     -10.062  10.614  69.659  1.00  0.00    -0.080 C  
HETATM   22  C   UNL     1     -10.543   9.923  70.936  1.00  0.00    -0.254 C  
HETATM   23  C   UNL     1     -12.512  10.924  68.989  1.00  0.00     0.335 C  
HETATM   24  C   UNL     1     -11.882   9.233  70.704  1.00  0.00    -0.246 C  
HETATM   25  C   UNL     1     -11.224  12.780  70.184  1.00  0.00     0.457 C  
HETATM   26  C   UNL     1     -12.908  10.269  70.292  1.00  0.00    -0.125 C  
ENDBRANCH   3  20
BRANCH   5  27
HETATM   27  O   UNL     1      -9.247  15.400  67.145  1.00  0.00    -0.200 OA 
BRANCH  27  28
HETATM   28  C   UNL     1      -8.060  16.032  67.301  1.00  0.00    -0.177 C  
HETATM   29  C   UNL     1      -8.163  16.986  68.468  1.00  0.00    -0.259 C  
HETATM   30  O   UNL     1      -7.028  15.725  66.728  1.00  0.00    -0.218 OA 
ENDBRANCH  27  28
ENDBRANCH   5  27
BRANCH  10  31
HETATM   31  O   UNL     1      -7.220   6.064  64.709  1.00  0.00    -0.058 OA 
BRANCH  31  32
HETATM   32  C   UNL     1      -7.861   4.934  64.399  1.00  0.00    -0.088 C  
HETATM   33  C   UNL     1      -7.030   3.805  64.932  1.00  0.00    -0.053 C  
HETATM   34  O   UNL     1      -8.891   4.835  63.777  1.00  0.00    -0.140 OA 
ENDBRANCH  31  32
ENDBRANCH  10  31
BRANCH   9  35
HETATM   35  N   UNL     1      -8.375   6.366  67.391  1.00  0.00    -0.113 NA 
HETATM   36  C   UNL     1      -8.144   6.850  69.785  1.00  0.00    -0.126 C  
HETATM   37  C   UNL     1      -7.445   6.422  68.503  1.00  0.00    -0.088 C  
HETATM   38  C   UNL     1      -9.230   5.850  70.158  1.00  0.00    -0.169 C  
HETATM   39  C   UNL     1     -10.189   5.690  68.991  1.00  0.00    -0.291 C  
HETATM   40  C   UNL     1      -9.501   5.466  67.635  1.00  0.00    -0.122 C  
ENDBRANCH   9  35
TORSDOF 6
ENDMDL
MODEL       28
REMARK 921   NORMALIZED FREE ENERGY PREDICTED BY IDOCK:   -3.75 KCAL/MOL
REMARK 922        TOTAL FREE ENERGY PREDICTED BY IDOCK:   -6.73 KCAL/MOL
REMARK 923 INTER-LIGAND FREE ENERGY PREDICTED BY IDOCK:   -5.63 KCAL/MOL
REMARK 924 INTRA-LIGAND FREE ENERGY PREDICTED BY IDOCK:   -1.10 KCAL/MOL
REMARK 927      BINDING AFFINITY PREDICTED BY RF-SCORE:    0.00 PKD
ROOT
HETATM    1  C   UNL     1      -7.950  11.321  67.918  1.00  0.00    -0.118 C  
HETATM    2  C   UNL     1      -7.057  10.725  66.936  1.00  0.00    -0.114 C  
HETATM    3  C   UNL     1      -8.322  10.930  66.132  1.00  0.00    -0.168 C  
HETATM    4  C   UNL     1     -10.803   7.104  68.768  1.00  0.00    -0.157 C  
HETATM    5  C   UNL     1      -9.949  11.384  67.391  1.00  0.00    -0.186 C  
HETATM    6  C   UNL     1      -9.121  12.116  66.671  1.00  0.00    -0.206 C  
HETATM    7  C   UNL     1      -9.318   7.294  68.326  1.00  0.00    -0.135 C  
HETATM    8  C   UNL     1      -9.053   6.244  67.075  1.00  0.00    -0.125 C  
HETATM    9  C   UNL     1      -7.826   5.275  67.177  1.00  0.00    -0.100 C  
HETATM   10  C   UNL     1      -7.926   4.810  68.649  1.00  0.00    -0.080 C  
HETATM   11  C   UNL     1      -7.349   5.933  69.507  1.00  0.00    -0.075 C  
HETATM   12  C   UNL     1      -9.045  13.598  66.346  1.00  0.00    -0.073 C  
HETATM   13  C   UNL     1     -10.384  10.784  65.974  1.00  0.00    -0.300 C  
HETATM   14  C   UNL     1      -8.479   6.977  69.651  1.00  0.00    -0.134 C  
HETATM   15  C   UNL     1      -8.103   8.180  70.517  1.00  0.00    -0.104 C  
HETATM   16  C   UNL     1     -10.478   9.280  66.920  1.00  0.00    -0.284 C  
HETATM   17  C   UNL     1      -7.539   9.360  69.747  1.00  0.00    -0.095 C  
HETATM   18  C   UNL     1      -9.164   8.786  67.765  1.00  0.00    -0.146 C  
HETATM   19  C   UNL     1      -8.577   9.902  68.760  1.00  0.00    -0.130 C  
ENDROOT
BRANCH   3  20
HETATM   20  N   UNL     1      -8.168  10.179  64.453  1.00  0.00    -0.161 N  
HETATM   21  C   UNL     1      -8.588   8.602  64.114  1.00  0.00    -0.009 C  
HETATM   22  C   UNL     1      -8.263   8.230  62.667  1.00  0.00    -0.154 C  
HETATM   23  C   UNL     1      -6.756  10.384  63.992  1.00  0.00     0.007 C  
HETATM   24  C   UNL     1      -6.798   8.510  62.355  1.00  0.00    -0.094 C  
HETATM   25  C   UNL     1      -9.204  10.973  63.551  1.00  0.00    -0.221 C  
HETATM   26  C   UNL     1      -6.523   9.988  62.554  1.00  0.00    -0.117 C  
ENDBRANCH   3  20
BRANCH   5  27
HETATM   27  O   UNL     1     -11.012  12.581  67.213  1.00  0.00    -0.245 OA 
BRANCH  27  28
HETATM   28  C   UNL     1     -11.737  13.219  68.161  1.00  0.00    -0.362 C  
HETATM   29  C   UNL     1     -11.880  12.312  69.361  1.00  0.00    -0.370 C  
HETATM   30  O   UNL     1     -12.040  14.400  68.128  1.00  0.00    -0.310 OA 
ENDBRANCH  27  28
ENDBRANCH   5  27
BRANCH  10  31
HETATM   31  O   UNL     1      -7.739   3.456  69.013  1.00  0.00    -0.052 OA 
BRANCH  31  32
HETATM   32  C   UNL     1      -8.648   2.626  69.531  1.00  0.00    -0.068 C  
HETATM   33  C   UNL     1      -8.811   1.499  68.555  1.00  0.00    -0.120 C  
HETATM   34  O   UNL     1      -9.252   2.772  70.567  1.00  0.00    -0.112 OA 
ENDBRANCH  31  32
ENDBRANCH  10  31
BRANCH   9  35
HETATM   35  N   UNL     1      -7.652   4.210  66.178  1.00  0.00    -0.088 NA 
HETATM   36  C   UNL     1      -8.998   4.302  64.128  1.00  0.00    -0.148 C  
HETATM   37  C   UNL     1      -8.805   3.657  65.493  1.00  0.00    -0.125 C  
HETATM   38  C   UNL     1      -7.786   4.047  63.243  1.00  0.00    -0.078 C  
HETATM   39  C   UNL     1      -6.534   4.534  63.952  1.00  0.00    -0.037 C  
HETATM   40  C   UNL     1      -6.414   4.070  65.412  1.00  0.00    -0.036 C  
ENDBRANCH   9  35
TORSDOF 6
ENDMDL
MODEL       29
REMARK 921   NORMALIZED FREE ENERGY PREDICTED BY IDOCK:   -3.63 KCAL/MOL
REMARK 922        TOTAL FREE ENERGY PREDICTED BY IDOCK:   -6.57 KCAL/MOL
REMARK 923 INTER-LIGAND FREE ENERGY PREDICTED BY IDOCK:   -5.41 KCAL/MOL
REMARK 924 INTRA-LIGAND FREE ENERGY PREDICTED BY IDOCK:   -1.16 KCAL/MOL
REMARK 927      BINDING AFFINITY PREDICTED BY RF-SCORE:    0.00 PKD
ROOT
HETATM    1  C   UNL     1     -10.089  12.074  68.235  1.00  0.00    -0.201 C  
HETATM    2  C   UNL     1      -8.734  11.765  68.667  1.00  0.00    -0.059 C  
HETATM    3  C   UNL     1      -8.661  11.504  67.178  1.00  0.00    -0.160 C  
HETATM    4  C   UNL     1     -11.652   7.191  67.634  1.00  0.00     0.791 C  
HETATM    5  C   UNL     1     -10.589  11.448  66.329  1.00  0.00    -0.263 C  
HETATM    6  C   UNL     1      -9.660  12.381  66.424  1.00  0.00    -0.249 C  
HETATM    7  C   UNL     1     -10.586   7.843  68.568  1.00  0.00    -0.146 C  
HETATM    8  C   UNL     1      -9.238   6.887  68.496  1.00  0.00    -0.129 C  
HETATM    9  C   UNL     1      -8.620   6.385  69.846  1.00  0.00    -0.138 C  
HETATM   10  C   UNL     1      -9.890   5.979  70.630  1.00  0.00    -0.181 C  
HETATM   11  C   UNL     1     -10.506   7.266  71.173  1.00  0.00    -0.221 C  
HETATM   12  C   UNL     1      -9.529  13.787  65.867  1.00  0.00    -0.067 C  
HETATM   13  C   UNL     1      -9.486  10.675  65.466  1.00  0.00    -0.261 C  
HETATM   14  C   UNL     1     -11.300   7.882  69.999  1.00  0.00    -0.034 C  
HETATM   15  C   UNL     1     -12.028   9.178  70.357  1.00  0.00     0.018 C  
HETATM   16  C   UNL     1     -10.164   9.269  66.319  1.00  0.00    -0.273 C  
HETATM   17  C   UNL     1     -11.238  10.443  70.073  1.00  0.00    -0.385 C  
HETATM   18  C   UNL     1     -10.213   9.276  67.956  1.00  0.00    -0.255 C  
HETATM   19  C   UNL     1     -10.941  10.566  68.576  1.00  0.00    -0.300 C  
ENDROOT
BRANCH   3  20
HETATM   20  N   UNL     1      -7.032  10.773  66.714  1.00  0.00    -0.111 N  
HETATM   21  C   UNL     1      -6.619  10.374  65.148  1.00  0.00    -0.090 C  
HETATM   22  C   UNL     1      -5.249   9.700  65.080  1.00  0.00    -0.046 C  
HETATM   23  C   UNL     1      -6.822   9.556  67.564  1.00  0.00    -0.083 C  
HETATM   24  C   UNL     1      -5.195   8.493  66.010  1.00  0.00    -0.027 C  
HETATM   25  C   UNL     1      -5.968  11.905  67.032  1.00  0.00    -0.153 C  
HETATM   26  C   UNL     1      -5.444   8.953  67.432  1.00  0.00    -0.038 C  
ENDBRANCH   3  20
BRANCH   5  27
HETATM   27  O   UNL     1     -11.091  12.215  65.005  1.00  0.00    -0.304 OA 
BRANCH  27  28
HETATM   28  C   UNL     1     -11.419  11.698  63.798  1.00  0.00    -0.364 C  
HETATM   29  C   UNL     1     -12.883  11.962  63.534  1.00  0.00    -0.435 C  
HETATM   30  O   UNL     1     -10.618  11.279  62.978  1.00  0.00    -0.242 OA 
ENDBRANCH  27  28
ENDBRANCH   5  27
BRANCH  10  31
HETATM   31  O   UNL     1      -9.947   4.781  71.380  1.00  0.00    -0.181 OA 
BRANCH  31  32
HETATM   32  C   UNL     1      -9.689   4.630  72.682  1.00  0.00    -0.143 C  
HETATM   33  C   UNL     1     -10.982   4.245  73.337  1.00  0.00    -0.366 C  
HETATM   34  O   UNL     1      -8.629   4.807  73.233  1.00  0.00    -0.103 OA 
ENDBRANCH  31  32
ENDBRANCH  10  31
BRANCH   9  35
HETATM   35  N   UNL     1      -7.533   5.395  69.829  1.00  0.00    -0.064 NA 
HETATM   36  C   UNL     1      -6.610   4.715  67.659  1.00  0.00    -0.047 C  
HETATM   37  C   UNL     1      -7.517   4.347  68.825  1.00  0.00    -0.060 C  
HETATM   38  C   UNL     1      -5.177   4.899  68.137  1.00  0.00    -0.010 C  
HETATM   39  C   UNL     1      -5.147   5.931  69.251  1.00  0.00    -0.004 C  
HETATM   40  C   UNL     1      -6.202   5.707  70.347  1.00  0.00    -0.027 C  
ENDBRANCH   9  35
TORSDOF 6
ENDMDL
MODEL       30
REMARK 921   NORMALIZED FREE ENERGY PREDICTED BY IDOCK:   -3.58 KCAL/MOL
REMARK 922        TOTAL FREE ENERGY PREDICTED BY IDOCK:   -6.50 KCAL/MOL
REMARK 923 INTER-LIGAND FREE ENERGY PREDICTED BY IDOCK:   -4.94 KCAL/MOL
REMARK 924 INTRA-LIGAND FREE ENERGY PREDICTED BY IDOCK:   -1.56 KCAL/MOL
REMARK 927      BINDING AFFINITY PREDICTED BY RF-SCORE:    0.00 PKD
ROOT
HETATM    1  C   UNL     1     -11.566   8.062  69.421  1.00  0.00     0.682 C  
HETATM    2  C   UNL     1     -11.447   7.085  70.492  1.00  0.00    -0.363 C  
HETATM    3  C   UNL     1     -10.437   8.134  70.904  1.00  0.00    -0.202 C  
HETATM    4  C   UNL     1      -7.206   6.788  66.967  1.00  0.00    -0.081 C  
HETATM    5  C   UNL     1     -10.062   9.477  69.325  1.00  0.00    -0.198 C  
HETATM    6  C   UNL     1     -10.845   9.512  70.387  1.00  0.00    -0.338 C  
HETATM    7  C   UNL     1      -8.185   5.965  67.861  1.00  0.00    -0.108 C  
HETATM    8  C   UNL     1      -7.252   5.089  68.910  1.00  0.00    -0.057 C  
HETATM    9  C   UNL     1      -7.499   3.545  68.999  1.00  0.00    -0.052 C  
HETATM   10  C   UNL     1      -7.647   3.173  67.504  1.00  0.00    -0.065 C  
HETATM   11  C   UNL     1      -9.062   3.565  67.089  1.00  0.00    -0.191 C  
HETATM   12  C   UNL     1     -11.736  10.581  70.995  1.00  0.00    -0.384 C  
HETATM   13  C   UNL     1      -8.884   9.413  70.405  1.00  0.00    -0.290 C  
HETATM   14  C   UNL     1      -9.016   5.085  66.815  1.00  0.00    -0.113 C  
HETATM   15  C   UNL     1     -10.348   5.671  66.347  1.00  0.00    -0.241 C  
HETATM   16  C   UNL     1      -8.183   8.301  69.206  1.00  0.00    -0.118 C  
HETATM   17  C   UNL     1     -11.222   6.218  67.461  1.00  0.00    -0.234 C  
HETATM   18  C   UNL     1      -9.054   7.003  68.716  1.00  0.00    -0.133 C  
HETATM   19  C   UNL     1     -10.520   7.376  68.175  1.00  0.00    -0.241 C  
ENDROOT
BRANCH   3  20
HETATM   20  N   UNL     1      -9.471   7.581  72.376  1.00  0.00    -0.151 N  
HETATM   21  C   UNL     1      -8.303   8.517  73.110  1.00  0.00    -0.016 C  
HETATM   22  C   UNL     1      -7.605   7.764  74.243  1.00  0.00    -0.207 C  
HETATM   23  C   UNL     1      -8.851   6.258  72.040  1.00  0.00    -0.138 C  
HETATM   24  C   UNL     1      -7.043   6.438  73.742  1.00  0.00    -0.082 C  
HETATM   25  C   UNL     1     -10.538   7.452  73.543  1.00  0.00    -0.338 C  
HETATM   26  C   UNL     1      -8.180   5.585  73.215  1.00  0.00    -0.114 C  
ENDBRANCH   3  20
BRANCH   5  27
HETATM   27  O   UNL     1     -10.046  11.086  69.401  1.00  0.00    -0.157 OA 
BRANCH  27  28
HETATM   28  C   UNL     1     -10.309  11.984  68.422  1.00  0.00    -0.214 C  
HETATM   29  C   UNL     1     -10.828  11.248  67.209  1.00  0.00    -0.317 C  
HETATM   30  O   UNL     1     -10.321  13.194  68.573  1.00  0.00    -0.247 OA 
ENDBRANCH  27  28
ENDBRANCH   5  27
BRANCH  10  31
HETATM   31  O   UNL     1      -7.030   2.022  66.962  1.00  0.00    -0.039 OA 
BRANCH  31  32
HETATM   32  C   UNL     1      -6.336   1.937  65.824  1.00  0.00    -0.023 C  
HETATM   33  C   UNL     1      -7.315   1.578  64.746  1.00  0.00    -0.053 C  
HETATM   34  O   UNL     1      -5.144   2.083  65.692  1.00  0.00    -0.004 OA 
ENDBRANCH  31  32
ENDBRANCH  10  31
BRANCH   9  35
HETATM   35  N   UNL     1      -6.583   2.702  69.782  1.00  0.00    -0.033 NA 
HETATM   36  C   UNL     1      -5.316   3.742  71.607  1.00  0.00    -0.004 C  
HETATM   37  C   UNL     1      -5.285   3.212  70.181  1.00  0.00    -0.008 C  
HETATM   38  C   UNL     1      -5.678   2.630  72.581  1.00  0.00    -0.008 C  
HETATM   39  C   UNL     1      -6.996   2.002  72.159  1.00  0.00    -0.026 C  
HETATM   40  C   UNL     1      -7.077   1.647  70.666  1.00  0.00    -0.033 C  
ENDBRANCH   9  35
TORSDOF 6
ENDMDL
MODEL       31
REMARK 921   NORMALIZED FREE ENERGY PREDICTED BY IDOCK:   -3.53 KCAL/MOL
REMARK 922        TOTAL FREE ENERGY PREDICTED BY IDOCK:   -6.44 KCAL/MOL
REMARK 923 INTER-LIGAND FREE ENERGY PREDICTED BY IDOCK:   -4.95 KCAL/MOL
REMARK 924 INTRA-LIGAND FREE ENERGY PREDICTED BY IDOCK:   -1.49 KCAL/MOL
REMARK 927      BINDING AFFINITY PREDICTED BY RF-SCORE:    0.00 PKD
ROOT
HETATM    1  C   UNL     1      -8.604   9.569  69.494  1.00  0.00    -0.171 C  
HETATM    2  C   UNL     1      -9.605  10.555  69.872  1.00  0.00     0.144 C  
HETATM    3  C   UNL     1      -9.883  10.368  68.396  1.00  0.00    -0.162 C  
HETATM    4  C   UNL     1      -5.419  12.840  67.087  1.00  0.00     0.146 C  
HETATM    5  C   UNL     1      -8.314   9.316  67.463  1.00  0.00    -0.119 C  
HETATM    6  C   UNL     1      -9.491   8.962  67.944  1.00  0.00    -0.160 C  
HETATM    7  C   UNL     1      -6.432  13.034  68.258  1.00  0.00    -0.093 C  
HETATM    8  C   UNL     1      -7.279  14.417  67.934  1.00  0.00    -0.169 C  
HETATM    9  C   UNL     1      -7.350  15.514  69.050  1.00  0.00    -0.162 C  
HETATM   10  C   UNL     1      -5.888  15.531  69.555  1.00  0.00    -0.121 C  
HETATM   11  C   UNL     1      -5.726  14.329  70.483  1.00  0.00    -0.157 C  
HETATM   12  C   UNL     1     -10.277   7.663  67.938  1.00  0.00    -0.250 C  
HETATM   13  C   UNL     1      -9.181  10.201  66.452  1.00  0.00    -0.190 C  
HETATM   14  C   UNL     1      -5.505  13.110  69.560  1.00  0.00    -0.083 C  
HETATM   15  C   UNL     1      -5.285  11.797  70.311  1.00  0.00    -0.098 C  
HETATM   16  C   UNL     1      -7.843  11.347  66.700  1.00  0.00    -0.137 C  
HETATM   17  C   UNL     1      -6.548  10.989  70.550  1.00  0.00     0.255 C  
HETATM   18  C   UNL     1      -7.456  11.804  68.225  1.00  0.00    -0.103 C  
HETATM   19  C   UNL     1      -7.178  10.572  69.218  1.00  0.00    -0.103 C  
ENDROOT
BRANCH   3  20
HETATM   20  N   UNL     1     -11.154  11.569  67.805  1.00  0.00    -0.240 N  
HETATM   21  C   UNL     1     -11.525  11.790  66.195  1.00  0.00    -0.220 C  
HETATM   22  C   UNL     1     -12.543  12.914  66.000  1.00  0.00     0.031 C  
HETATM   23  C   UNL     1     -10.814  12.910  68.383  1.00  0.00    -0.254 C  
HETATM   24  C   UNL     1     -12.057  14.201  66.656  1.00  0.00    -0.480 C  
HETATM   25  C   UNL     1     -12.531  11.017  68.364  1.00  0.00     0.982 C  
HETATM   26  C   UNL     1     -11.872  13.961  68.141  1.00  0.00    -0.407 C  
ENDBRANCH   3  20
BRANCH   5  27
HETATM   27  O   UNL     1      -8.445   8.052  66.472  1.00  0.00    -0.125 OA 
BRANCH  27  28
HETATM   28  C   UNL     1      -7.758   7.790  65.336  1.00  0.00    -0.106 C  
HETATM   29  C   UNL     1      -6.282   7.740  65.658  1.00  0.00    -0.038 C  
HETATM   30  O   UNL     1      -8.262   7.446  64.281  1.00  0.00    -0.093 OA 
ENDBRANCH  27  28
ENDBRANCH   5  27
BRANCH  10  31
HETATM   31  O   UNL     1      -5.209  16.743  69.821  1.00  0.00    -0.148 OA 
BRANCH  31  32
HETATM   32  C   UNL     1      -5.352  17.530  70.890  1.00  0.00    -0.176 C  
HETATM   33  C   UNL     1      -5.761  18.881  70.382  1.00  0.00    -0.209 C  
HETATM   34  O   UNL     1      -5.153  17.228  72.043  1.00  0.00    -0.268 OA 
ENDBRANCH  31  32
ENDBRANCH  10  31
BRANCH   9  35
HETATM   35  N   UNL     1      -7.940  16.828  68.749  1.00  0.00    -0.243 NA 
HETATM   36  C   UNL     1      -8.433  17.373  66.407  1.00  0.00    -0.292 C  
HETATM   37  C   UNL     1      -7.495  17.577  67.589  1.00  0.00    -0.186 C  
HETATM   38  C   UNL     1      -9.833  17.865  66.749  1.00  0.00    -0.333 C  
HETATM   39  C   UNL     1     -10.316  17.170  68.011  1.00  0.00    -0.353 C  
HETATM   40  C   UNL     1      -9.299  17.173  69.162  1.00  0.00    -0.063 C  
ENDBRANCH   9  35
TORSDOF 6
ENDMDL
MODEL       32
REMARK 921   NORMALIZED FREE ENERGY PREDICTED BY IDOCK:   -3.52 KCAL/MOL
REMARK 922        TOTAL FREE ENERGY PREDICTED BY IDOCK:   -6.42 KCAL/MOL
REMARK 923 INTER-LIGAND FREE ENERGY PREDICTED BY IDOCK:   -5.59 KCAL/MOL
REMARK 924 INTRA-LIGAND FREE ENERGY PREDICTED BY IDOCK:   -0.83 KCAL/MOL
REMARK 927      BINDING AFFINITY PREDICTED BY RF-SCORE:    0.00 PKD
ROOT
HETATM    1  C   UNL     1      -9.957   4.417  69.806  1.00  0.00    -0.224 C  
HETATM    2  C   UNL     1      -9.771   4.874  68.437  1.00  0.00    -0.212 C  
HETATM    3  C   UNL     1      -8.347   4.804  68.946  1.00  0.00    -0.082 C  
HETATM    4  C   UNL     1      -9.100   8.972  72.078  1.00  0.00     0.030 C  
HETATM    5  C   UNL     1      -8.307   4.585  71.041  1.00  0.00    -0.093 C  
HETATM    6  C   UNL     1      -8.212   3.739  70.033  1.00  0.00    -0.072 C  
HETATM    7  C   UNL     1      -9.658   8.590  70.672  1.00  0.00    -0.203 C  
HETATM    8  C   UNL     1      -8.899   9.567  69.574  1.00  0.00    -0.185 C  
HETATM    9  C   UNL     1      -9.790  10.381  68.575  1.00  0.00    -0.167 C  
HETATM   10  C   UNL     1     -10.910  10.892  69.511  1.00  0.00    -0.238 C  
HETATM   11  C   UNL     1     -11.877   9.730  69.720  1.00  0.00     0.064 C  
HETATM   12  C   UNL     1      -7.921   2.252  69.939  1.00  0.00    -0.053 C  
HETATM   13  C   UNL     1      -6.960   5.198  70.435  1.00  0.00    -0.049 C  
HETATM   14  C   UNL     1     -11.234   8.836  70.804  1.00  0.00    -0.309 C  
HETATM   15  C   UNL     1     -12.078   7.618  71.183  1.00  0.00    -0.322 C  
HETATM   16  C   UNL     1      -7.729   6.726  70.925  1.00  0.00    -0.093 C  
HETATM   17  C   UNL     1     -11.756   6.359  70.399  1.00  0.00    -0.389 C  
HETATM   18  C   UNL     1      -9.230   7.077  70.371  1.00  0.00    -0.156 C  
HETATM   19  C   UNL     1     -10.311   5.923  70.656  1.00  0.00    -0.296 C  
ENDROOT
BRANCH   3  20
HETATM   20  N   UNL     1      -7.167   5.488  67.703  1.00  0.00    -0.074 N  
HETATM   21  C   UNL     1      -6.335   6.916  67.919  1.00  0.00    -0.042 C  
HETATM   22  C   UNL     1      -5.506   7.279  66.687  1.00  0.00    -0.023 C  
HETATM   23  C   UNL     1      -7.889   5.574  66.392  1.00  0.00    -0.100 C  
HETATM   24  C   UNL     1      -6.382   7.311  65.439  1.00  0.00    -0.038 C  
HETATM   25  C   UNL     1      -5.974   4.444  67.652  1.00  0.00    -0.023 C  
HETATM   26  C   UNL     1      -6.996   5.941  65.230  1.00  0.00    -0.063 C  
ENDBRANCH   3  20
BRANCH   5  27
HETATM   27  O   UNL     1      -7.445   3.524  71.891  1.00  0.00    -0.052 OA 
BRANCH  27  28
HETATM   28  C   UNL     1      -7.054   3.590  73.185  1.00  0.00    -0.046 C  
HETATM   29  C   UNL     1      -6.063   2.482  73.455  1.00  0.00    -0.011 C  
HETATM   30  O   UNL     1      -7.303   4.515  73.941  1.00  0.00    -0.074 OA 
ENDBRANCH  27  28
ENDBRANCH   5  27
BRANCH  10  31
HETATM   31  O   UNL     1     -11.386  12.222  69.440  1.00  0.00    -0.258 OA 
BRANCH  31  32
HETATM   32  C   UNL     1     -12.240  12.820  70.275  1.00  0.00    -0.277 C  
HETATM   33  C   UNL     1     -12.277  14.269  69.891  1.00  0.00    -0.407 C  
HETATM   34  O   UNL     1     -12.837  12.305  71.190  1.00  0.00    -0.319 OA 
ENDBRANCH  31  32
ENDBRANCH  10  31
BRANCH   9  35
HETATM   35  N   UNL     1      -9.173  11.391  67.701  1.00  0.00    -0.156 NA 
HETATM   36  C   UNL     1      -6.936  12.220  68.278  1.00  0.00    -0.082 C  
HETATM   37  C   UNL     1      -8.432  12.498  68.277  1.00  0.00    -0.165 C  
HETATM   38  C   UNL     1      -6.429  12.034  66.855  1.00  0.00    -0.060 C  
HETATM   39  C   UNL     1      -7.230  10.937  66.174  1.00  0.00    -0.101 C  
HETATM   40  C   UNL     1      -8.752  11.074  66.337  1.00  0.00    -0.173 C  
ENDBRANCH   9  35
TORSDOF 6
ENDMDL
MODEL       33
REMARK 921   NORMALIZED FREE ENERGY PREDICTED BY IDOCK:   -3.51 KCAL/MOL
REMARK 922        TOTAL FREE ENERGY PREDICTED BY IDOCK:   -6.41 KCAL/MOL
REMARK 923 INTER-LIGAND FREE ENERGY PREDICTED BY IDOCK:   -7.08 KCAL/MOL
REMARK 924 INTRA-LIGAND FREE ENERGY PREDICTED BY IDOCK:    0.66 KCAL/MOL
REMARK 927      BINDING AFFINITY PREDICTED BY RF-SCORE:    0.00 PKD
ROOT
HETATM    1  C   UNL     1     -11.567   8.016  71.419  1.00  0.00    -0.301 C  
HETATM    2  C   UNL     1     -11.760   7.176  70.246  1.00  0.00    -0.226 C  
HETATM    3  C   UNL     1     -10.430   6.684  70.776  1.00  0.00    -0.216 C  
HETATM    4  C   UNL     1      -8.031  11.147  69.337  1.00  0.00     0.103 C  
HETATM    5  C   UNL     1      -9.666   8.001  72.231  1.00  0.00    -0.229 C  
HETATM    6  C   UNL     1     -10.346   6.872  72.290  1.00  0.00    -0.219 C  
HETATM    7  C   UNL     1      -9.202  10.327  68.713  1.00  0.00    -0.166 C  
HETATM    8  C   UNL     1      -8.599   9.582  67.365  1.00  0.00    -0.125 C  
HETATM    9  C   UNL     1      -9.370   9.770  66.014  1.00  0.00    -0.196 C  
HETATM   10  C   UNL     1      -9.695  11.282  66.057  1.00  0.00    -0.220 C  
HETATM   11  C   UNL     1     -10.896  11.451  66.984  1.00  0.00    -0.331 C  
HETATM   12  C   UNL     1     -10.780   5.970  73.431  1.00  0.00    -0.282 C  
HETATM   13  C   UNL     1      -8.546   7.095  71.537  1.00  0.00    -0.115 C  
HETATM   14  C   UNL     1     -10.328  11.425  68.420  1.00  0.00    -0.209 C  
HETATM   15  C   UNL     1     -11.385  11.616  69.508  1.00  0.00    -0.328 C  
HETATM   16  C   UNL     1      -8.327   8.559  70.551  1.00  0.00    -0.137 C  
HETATM   17  C   UNL     1     -11.969  10.325  70.053  1.00  0.00    -0.273 C  
HETATM   18  C   UNL     1      -9.617   9.193  69.765  1.00  0.00    -0.191 C  
HETATM   19  C   UNL     1     -10.877   9.482  70.718  1.00  0.00    -0.386 C  
ENDROOT
BRANCH   3  20
HETATM   20  N   UNL     1      -9.666   5.467  69.617  1.00  0.00    -0.160 N  
HETATM   21  C   UNL     1      -9.749   3.817  69.837  1.00  0.00    -0.130 C  
HETATM   22  C   UNL     1      -8.946   3.065  68.775  1.00  0.00    -0.189 C  
HETATM   23  C   UNL     1      -8.221   5.835  69.461  1.00  0.00    -0.108 C  
HETATM   24  C   UNL     1      -7.506   3.565  68.734  1.00  0.00    -0.053 C  
HETATM   25  C   UNL     1     -10.468   5.635  68.259  1.00  0.00    -0.192 C  
HETATM   26  C   UNL     1      -7.504   5.042  68.394  1.00  0.00    -0.074 C  
ENDBRANCH   3  20
BRANCH   5  27
HETATM   27  O   UNL     1      -9.081   7.614  73.682  1.00  0.00    -0.225 OA 
BRANCH  27  28
HETATM   28  C   UNL     1      -7.791   7.521  74.080  1.00  0.00    -0.141 C  
HETATM   29  C   UNL     1      -7.231   8.914  74.253  1.00  0.00     0.077 C  
HETATM   30  O   UNL     1      -7.245   6.492  74.438  1.00  0.00    -0.095 OA 
ENDBRANCH  27  28
ENDBRANCH   5  27
BRANCH  10  31
HETATM   31  O   UNL     1      -9.544  12.105  64.917  1.00  0.00    -0.128 OA 
BRANCH  31  32
HETATM   32  C   UNL     1     -10.494  12.810  64.298  1.00  0.00    -0.399 C  
HETATM   33  C   UNL     1     -10.406  14.212  64.824  1.00  0.00    -0.387 C  
HETATM   34  O   UNL     1     -11.297  12.394  63.497  1.00  0.00    -0.438 OA 
ENDBRANCH  31  32
ENDBRANCH  10  31
BRANCH   9  35
HETATM   35  N   UNL     1      -8.781   9.276  64.760  1.00  0.00    -0.184 NA 
HETATM   36  C   UNL     1      -6.411   9.739  64.326  1.00  0.00    -0.117 C  
HETATM   37  C   UNL     1      -7.854  10.106  64.014  1.00  0.00    -0.149 C  
HETATM   38  C   UNL     1      -6.133   8.294  63.935  1.00  0.00    -0.067 C  
HETATM   39  C   UNL     1      -7.133   7.384  64.627  1.00  0.00    -0.057 C  
HETATM   40  C   UNL     1      -8.594   7.847  64.511  1.00  0.00     0.190 C  
ENDBRANCH   9  35
TORSDOF 6
ENDMDL
MODEL       34
REMARK 921   NORMALIZED FREE ENERGY PREDICTED BY IDOCK:   -3.45 KCAL/MOL
REMARK 922        TOTAL FREE ENERGY PREDICTED BY IDOCK:   -6.33 KCAL/MOL
REMARK 923 INTER-LIGAND FREE ENERGY PREDICTED BY IDOCK:   -6.39 KCAL/MOL
REMARK 924 INTRA-LIGAND FREE ENERGY PREDICTED BY IDOCK:    0.06 KCAL/MOL
REMARK 927      BINDING AFFINITY PREDICTED BY RF-SCORE:    0.00 PKD
ROOT
HETATM    1  C   UNL     1     -11.156  13.803  65.583  1.00  0.00    -0.297 C  
HETATM    2  C   UNL     1     -12.080  13.216  66.542  1.00  0.00    -0.423 C  
HETATM    3  C   UNL     1     -11.184  14.052  67.432  1.00  0.00    -0.311 C  
HETATM    4  C   UNL     1      -7.132  10.768  66.697  1.00  0.00    -0.133 C  
HETATM    5  C   UNL     1      -9.470  14.690  66.386  1.00  0.00    -0.299 C  
HETATM    6  C   UNL     1     -10.630  15.253  66.667  1.00  0.00    -0.304 C  
HETATM    7  C   UNL     1      -8.673  10.542  66.792  1.00  0.00    -0.136 C  
HETATM    8  C   UNL     1      -8.964   9.837  68.260  1.00  0.00    -0.119 C  
HETATM    9  C   UNL     1      -9.802   8.513  68.285  1.00  0.00    -0.169 C  
HETATM   10  C   UNL     1      -9.187   7.740  67.095  1.00  0.00    -0.146 C  
HETATM   11  C   UNL     1      -9.798   8.324  65.824  1.00  0.00     0.284 C  
HETATM   12  C   UNL     1     -11.195  16.647  66.456  1.00  0.00     0.437 C  
HETATM   13  C   UNL     1      -9.283  14.675  67.974  1.00  0.00    -0.197 C  
HETATM   14  C   UNL     1      -9.005   9.617  65.530  1.00  0.00    -0.223 C  
HETATM   15  C   UNL     1      -9.451  10.341  64.259  1.00  0.00    -0.365 C  
HETATM   16  C   UNL     1      -8.528  13.103  67.621  1.00  0.00    -0.194 C  
HETATM   17  C   UNL     1     -10.503  11.411  64.480  1.00  0.00    -0.381 C  
HETATM   18  C   UNL     1      -9.377  11.980  66.783  1.00  0.00    -0.206 C  
HETATM   19  C   UNL     1      -9.959  12.519  65.386  1.00  0.00    -0.236 C  
ENDROOT
BRANCH   3  20
HETATM   20  N   UNL     1     -11.570  13.766  69.214  1.00  0.00    -0.291 N  
HETATM   21  C   UNL     1     -11.813  12.252  69.866  1.00  0.00    -0.311 C  
HETATM   22  C   UNL     1     -12.209  12.329  71.341  1.00  0.00     0.160 C  
HETATM   23  C   UNL     1     -12.760  14.609  69.561  1.00  0.00     0.139 C  
HETATM   24  C   UNL     1     -13.423  13.233  71.525  1.00  0.00    -0.257 C  
HETATM   25  C   UNL     1     -10.270  14.231  69.995  1.00  0.00     0.684 C  
HETATM   26  C   UNL     1     -13.083  14.626  71.036  1.00  0.00    -0.427 C  
ENDBRANCH   3  20
BRANCH   5  27
HETATM   27  O   UNL     1      -8.866  16.182  66.327  1.00  0.00    -0.284 OA 
BRANCH  27  28
HETATM   28  C   UNL     1      -7.574  16.577  66.393  1.00  0.00    -0.214 C  
HETATM   29  C   UNL     1      -7.427  17.893  65.663  1.00  0.00     0.066 C  
HETATM   30  O   UNL     1      -6.723  16.063  67.098  1.00  0.00    -0.189 OA 
ENDBRANCH  27  28
ENDBRANCH   5  27
BRANCH  10  31
HETATM   31  O   UNL     1      -8.888   6.360  67.182  1.00  0.00    -0.113 OA 
BRANCH  31  32
HETATM   32  C   UNL     1      -7.691   5.782  67.049  1.00  0.00    -0.101 C  
HETATM   33  C   UNL     1      -6.666   6.854  67.273  1.00  0.00    -0.063 C  
HETATM   34  O   UNL     1      -7.473   4.629  66.766  1.00  0.00    -0.083 OA 
ENDBRANCH  31  32
ENDBRANCH  10  31
BRANCH   9  35
HETATM   35  N   UNL     1      -9.937   7.757  69.540  1.00  0.00    -0.184 NA 
HETATM   36  C   UNL     1     -10.469   8.993  71.592  1.00  0.00    -0.426 C  
HETATM   37  C   UNL     1      -9.394   8.292  70.775  1.00  0.00    -0.161 C  
HETATM   38  C   UNL     1     -11.570   8.014  71.974  1.00  0.00    -0.369 C  
HETATM   39  C   UNL     1     -12.120   7.361  70.718  1.00  0.00    -0.233 C  
HETATM   40  C   UNL     1     -11.043   6.827  69.760  1.00  0.00    -0.316 C  
ENDBRANCH   9  35
TORSDOF 6
ENDMDL
MODEL       35
REMARK 921   NORMALIZED FREE ENERGY PREDICTED BY IDOCK:   -3.45 KCAL/MOL
REMARK 922        TOTAL FREE ENERGY PREDICTED BY IDOCK:   -6.33 KCAL/MOL
REMARK 923 INTER-LIGAND FREE ENERGY PREDICTED BY IDOCK:   -6.66 KCAL/MOL
REMARK 924 INTRA-LIGAND FREE ENERGY PREDICTED BY IDOCK:    0.33 KCAL/MOL
REMARK 927      BINDING AFFINITY PREDICTED BY RF-SCORE:    0.00 PKD
ROOT
HETATM    1  C   UNL     1      -7.441  11.830  68.472  1.00  0.00    -0.110 C  
HETATM    2  C   UNL     1      -7.037  11.003  67.345  1.00  0.00    -0.095 C  
HETATM    3  C   UNL     1      -8.416  11.463  66.924  1.00  0.00    -0.157 C  
HETATM    4  C   UNL     1     -10.707   8.426  70.568  1.00  0.00    -0.247 C  
HETATM    5  C   UNL     1      -9.445  12.332  68.544  1.00  0.00    -0.112 C  
HETATM    6  C   UNL     1      -8.745  12.823  67.539  1.00  0.00    -0.185 C  
HETATM    7  C   UNL     1      -9.425   8.249  69.697  1.00  0.00    -0.163 C  
HETATM    8  C   UNL     1      -9.781   7.116  68.545  1.00  0.00    -0.143 C  
HETATM    9  C   UNL     1      -8.812   5.894  68.392  1.00  0.00    -0.111 C  
HETATM   10  C   UNL     1      -8.550   5.526  69.872  1.00  0.00    -0.120 C  
HETATM   11  C   UNL     1      -7.517   6.519  70.398  1.00  0.00    -0.094 C  
HETATM   12  C   UNL     1      -8.467  14.232  67.046  1.00  0.00    -0.190 C  
HETATM   13  C   UNL     1     -10.410  11.791  67.389  1.00  0.00    -0.228 C  
HETATM   14  C   UNL     1      -8.304   7.801  70.748  1.00  0.00    -0.116 C  
HETATM   15  C   UNL     1      -7.439   8.919  71.331  1.00  0.00    -0.108 C  
HETATM   16  C   UNL     1     -10.519  10.390  68.479  1.00  0.00    -0.210 C  
HETATM   17  C   UNL     1      -6.906   9.904  70.306  1.00  0.00    -0.138 C  
HETATM   18  C   UNL     1      -9.143   9.640  68.956  1.00  0.00    -0.148 C  
HETATM   19  C   UNL     1      -8.060  10.630  69.610  1.00  0.00     0.015 C  
ENDROOT
BRANCH   3  20
HETATM   20  N   UNL     1      -8.945  10.628  65.366  1.00  0.00    -0.183 N  
HETATM   21  C   UNL     1      -7.875   9.950  64.281  1.00  0.00    -0.139 C  
HETATM   22  C   UNL     1      -8.591   9.417  63.040  1.00  0.00    -0.222 C  
HETATM   23  C   UNL     1      -9.814  11.587  64.610  1.00  0.00    -0.246 C  
HETATM   24  C   UNL     1      -9.441  10.508  62.398  1.00  0.00    -0.246 C  
HETATM   25  C   UNL     1      -9.753   9.348  65.839  1.00  0.00    -0.285 C  
HETATM   26  C   UNL     1     -10.479  10.979  63.397  1.00  0.00    -0.320 C  
ENDBRANCH   3  20
BRANCH   5  27
HETATM   27  O   UNL     1     -10.239  13.734  68.552  1.00  0.00    -0.233 OA 
BRANCH  27  28
HETATM   28  C   UNL     1     -11.083  14.226  69.488  1.00  0.00    -0.204 C  
HETATM   29  C   UNL     1     -10.605  15.596  69.908  1.00  0.00    -0.328 C  
HETATM   30  O   UNL     1     -12.159  13.732  69.784  1.00  0.00    -0.315 OA 
ENDBRANCH  27  28
ENDBRANCH   5  27
BRANCH  10  31
HETATM   31  O   UNL     1      -8.546   4.182  70.312  1.00  0.00    -0.067 OA 
BRANCH  31  32
HETATM   32  C   UNL     1      -9.525   3.539  70.954  1.00  0.00    -0.166 C  
HETATM   33  C   UNL     1     -10.272   4.570  71.746  1.00  0.00    -0.226 C  
HETATM   34  O   UNL     1      -9.746   2.352  70.933  1.00  0.00    -0.138 OA 
ENDBRANCH  31  32
ENDBRANCH  10  31
BRANCH   9  35
HETATM   35  N   UNL     1      -9.179   4.777  67.508  1.00  0.00    -0.121 NA 
HETATM   36  C   UNL     1      -9.191   5.165  65.085  1.00  0.00    -0.060 C  
HETATM   37  C   UNL     1     -10.022   5.010  66.351  1.00  0.00    -0.226 C  
HETATM   38  C   UNL     1      -8.397   3.895  64.812  1.00  0.00    -0.101 C  
HETATM   39  C   UNL     1      -7.554   3.558  66.031  1.00  0.00    -0.081 C  
HETATM   40  C   UNL     1      -8.322   3.601  67.361  1.00  0.00    -0.094 C  
ENDBRANCH   9  35
TORSDOF 6
ENDMDL
MODEL       36
REMARK 921   NORMALIZED FREE ENERGY PREDICTED BY IDOCK:   -3.44 KCAL/MOL
REMARK 922        TOTAL FREE ENERGY PREDICTED BY IDOCK:   -6.31 KCAL/MOL
REMARK 923 INTER-LIGAND FREE ENERGY PREDICTED BY IDOCK:   -4.40 KCAL/MOL
REMARK 924 INTRA-LIGAND FREE ENERGY PREDICTED BY IDOCK:   -1.91 KCAL/MOL
REMARK 927      BINDING AFFINITY PREDICTED BY RF-SCORE:    0.00 PKD
ROOT
HETATM    1  C   UNL     1      -5.234   5.600  66.612  1.00  0.00    -0.005 C  
HETATM    2  C   UNL     1      -5.393   5.520  68.056  1.00  0.00    -0.004 C  
HETATM    3  C   UNL     1      -6.421   4.522  67.566  1.00  0.00    -0.045 C  
HETATM    4  C   UNL     1      -9.492   8.370  65.695  1.00  0.00     0.015 C  
HETATM    5  C   UNL     1      -6.736   4.722  65.493  1.00  0.00    -0.052 C  
HETATM    6  C   UNL     1      -5.995   3.917  66.230  1.00  0.00    -0.027 C  
HETATM    7  C   UNL     1      -8.548   8.278  66.934  1.00  0.00    -0.122 C  
HETATM    8  C   UNL     1      -9.520   8.168  68.268  1.00  0.00    -0.148 C  
HETATM    9  C   UNL     1      -9.274   9.177  69.441  1.00  0.00    -0.156 C  
HETATM   10  C   UNL     1      -9.067  10.500  68.667  1.00  0.00    -0.158 C  
HETATM   11  C   UNL     1      -7.637  10.482  68.133  1.00  0.00    -0.091 C  
HETATM   12  C   UNL     1      -5.130   2.709  65.914  1.00  0.00    -0.008 C  
HETATM   13  C   UNL     1      -7.955   4.030  66.262  1.00  0.00    -0.098 C  
HETATM   14  C   UNL     1      -7.675   9.617  66.853  1.00  0.00    -0.098 C  
HETATM   15  C   UNL     1      -6.327   9.503  66.142  1.00  0.00    -0.069 C  
HETATM   16  C   UNL     1      -8.607   5.684  66.202  1.00  0.00    -0.132 C  
HETATM   17  C   UNL     1      -5.498   8.300  66.553  1.00  0.00    -0.028 C  
HETATM   18  C   UNL     1      -7.715   6.916  66.811  1.00  0.00    -0.102 C  
HETATM   19  C   UNL     1      -6.230   7.000  66.205  1.00  0.00    -0.039 C  
ENDROOT
BRANCH   3  20
HETATM   20  N   UNL     1      -7.442   3.885  68.965  1.00  0.00    -0.054 N  
HETATM   21  C   UNL     1      -8.767   2.895  68.755  1.00  0.00    -0.085 C  
HETATM   22  C   UNL     1      -9.472   2.606  70.080  1.00  0.00    -0.161 C  
HETATM   23  C   UNL     1      -7.879   5.064  69.782  1.00  0.00    -0.071 C  
HETATM   24  C   UNL     1      -9.836   3.905  70.791  1.00  0.00    -0.211 C  
HETATM   25  C   UNL     1      -6.473   2.930  69.780  1.00  0.00    -0.029 C  
HETATM   26  C   UNL     1      -8.569   4.688  71.071  1.00  0.00    -0.128 C  
ENDBRANCH   3  20
BRANCH   5  27
HETATM   27  O   UNL     1      -6.757   3.545  64.394  1.00  0.00    -0.041 OA 
BRANCH  27  28
HETATM   28  C   UNL     1      -7.640   3.337  63.390  1.00  0.00    -0.063 C  
HETATM   29  C   UNL     1      -7.920   1.856  63.283  1.00  0.00    -0.061 C  
HETATM   30  O   UNL     1      -8.259   4.216  62.815  1.00  0.00    -0.077 OA 
ENDBRANCH  27  28
ENDBRANCH   5  27
BRANCH  10  31
HETATM   31  O   UNL     1      -9.661  11.710  69.096  1.00  0.00     0.034 OA 
BRANCH  31  32
HETATM   32  C   UNL     1      -9.855  12.815  68.371  1.00  0.00    -0.196 C  
HETATM   33  C   UNL     1     -10.791  12.445  67.259  1.00  0.00    -0.279 C  
HETATM   34  O   UNL     1      -9.348  13.896  68.552  1.00  0.00    -0.203 OA 
ENDBRANCH  31  32
ENDBRANCH  10  31
BRANCH   9  35
HETATM   35  N   UNL     1     -10.219   9.233  70.567  1.00  0.00    -0.231 NA 
HETATM   36  C   UNL     1     -11.896   7.453  70.771  1.00  0.00    -0.288 C  
HETATM   37  C   UNL     1     -11.614   8.893  70.365  1.00  0.00    -0.101 C  
HETATM   38  C   UNL     1     -11.594   7.249  72.249  1.00  0.00    -0.315 C  
HETATM   39  C   UNL     1     -10.163   7.670  72.533  1.00  0.00    -0.298 C  
HETATM   40  C   UNL     1      -9.780   9.039  71.948  1.00  0.00    -0.171 C  
ENDBRANCH   9  35
TORSDOF 6
ENDMDL
MODEL       37
REMARK 921   NORMALIZED FREE ENERGY PREDICTED BY IDOCK:   -3.41 KCAL/MOL
REMARK 922        TOTAL FREE ENERGY PREDICTED BY IDOCK:   -6.28 KCAL/MOL
REMARK 923 INTER-LIGAND FREE ENERGY PREDICTED BY IDOCK:   -6.23 KCAL/MOL
REMARK 924 INTRA-LIGAND FREE ENERGY PREDICTED BY IDOCK:   -0.05 KCAL/MOL
REMARK 927      BINDING AFFINITY PREDICTED BY RF-SCORE:    0.00 PKD
ROOT
HETATM    1  C   UNL     1      -9.781   7.416  66.007  1.00  0.00     0.145 C  
HETATM    2  C   UNL     1     -10.743   7.422  67.098  1.00  0.00    -0.400 C  
HETATM    3  C   UNL     1      -9.884   8.625  67.424  1.00  0.00    -0.192 C  
HETATM    4  C   UNL     1      -5.808   5.553  68.725  1.00  0.00    -0.019 C  
HETATM    5  C   UNL     1      -8.128   8.633  66.260  1.00  0.00    -0.103 C  
HETATM    6  C   UNL     1      -9.298   9.234  66.151  1.00  0.00    -0.270 C  
HETATM    7  C   UNL     1      -7.352   5.382  68.873  1.00  0.00    -0.070 C  
HETATM    8  C   UNL     1      -7.703   5.576  70.478  1.00  0.00    -0.093 C  
HETATM    9  C   UNL     1      -8.542   4.459  71.187  1.00  0.00    -0.098 C  
HETATM   10  C   UNL     1      -7.879   3.178  70.627  1.00  0.00    -0.043 C  
HETATM   11  C   UNL     1      -8.438   2.969  69.222  1.00  0.00    -0.099 C  
HETATM   12  C   UNL     1      -9.853  10.279  65.200  1.00  0.00    -0.389 C  
HETATM   13  C   UNL     1      -8.006   9.483  67.609  1.00  0.00    -0.106 C  
HETATM   14  C   UNL     1      -7.633   3.914  68.303  1.00  0.00    -0.066 C  
HETATM   15  C   UNL     1      -8.025   3.826  66.827  1.00  0.00    -0.095 C  
HETATM   16  C   UNL     1      -7.239   7.987  68.189  1.00  0.00    -0.094 C  
HETATM   17  C   UNL     1      -9.085   4.823  66.397  1.00  0.00    -0.119 C  
HETATM   18  C   UNL     1      -8.054   6.571  68.063  1.00  0.00    -0.113 C  
HETATM   19  C   UNL     1      -8.578   6.256  66.578  1.00  0.00    -0.128 C  
ENDROOT
BRANCH   3  20
HETATM   20  N   UNL     1     -10.342   9.340  69.062  1.00  0.00    -0.210 N  
HETATM   21  C   UNL     1     -10.760   8.411  70.382  1.00  0.00    -0.231 C  
HETATM   22  C   UNL     1     -11.183   9.276  71.570  1.00  0.00    -0.457 C  
HETATM   23  C   UNL     1     -11.446  10.329  68.833  1.00  0.00    -0.127 C  
HETATM   24  C   UNL     1     -12.299  10.234  71.169  1.00  0.00    -0.501 C  
HETATM   25  C   UNL     1      -9.021  10.042  69.588  1.00  0.00    -0.202 C  
HETATM   26  C   UNL     1     -11.802  11.137  70.058  1.00  0.00    -0.441 C  
ENDBRANCH   3  20
BRANCH   5  27
HETATM   27  O   UNL     1      -7.521   9.869  65.424  1.00  0.00    -0.119 OA 
BRANCH  27  28
HETATM   28  C   UNL     1      -6.314   9.974  64.822  1.00  0.00    -0.127 C  
HETATM   29  C   UNL     1      -6.517  10.032  63.325  1.00  0.00    -0.134 C  
HETATM   30  O   UNL     1      -5.264  10.196  65.401  1.00  0.00    -0.051 OA 
ENDBRANCH  27  28
ENDBRANCH   5  27
BRANCH  10  31
HETATM   31  O   UNL     1      -7.586   2.071  71.458  1.00  0.00    -0.039 OA 
BRANCH  31  32
HETATM   32  C   UNL     1      -6.471   1.865  72.164  1.00  0.00    -0.014 C  
HETATM   33  C   UNL     1      -5.319   2.151  71.248  1.00  0.00    -0.004 C  
HETATM   34  O   UNL     1      -6.401   1.483  73.308  1.00  0.00    -0.011 OA 
ENDBRANCH  31  32
ENDBRANCH  10  31
BRANCH   9  35
HETATM   35  N   UNL     1      -8.729   4.499  72.646  1.00  0.00    -0.113 NA 
HETATM   36  C   UNL     1      -9.030   6.684  73.721  1.00  0.00    -0.160 C  
HETATM   37  C   UNL     1      -8.081   5.529  73.435  1.00  0.00    -0.114 C  
HETATM   38  C   UNL     1     -10.233   6.199  74.518  1.00  0.00    -0.318 C  
HETATM   39  C   UNL     1     -10.904   5.058  73.772  1.00  0.00    -0.366 C  
HETATM   40  C   UNL     1      -9.936   3.971  73.280  1.00  0.00    -0.137 C  
ENDBRANCH   9  35
TORSDOF 6
ENDMDL
MODEL       38
REMARK 921   NORMALIZED FREE ENERGY PREDICTED BY IDOCK:   -3.28 KCAL/MOL
REMARK 922        TOTAL FREE ENERGY PREDICTED BY IDOCK:   -6.11 KCAL/MOL
REMARK 923 INTER-LIGAND FREE ENERGY PREDICTED BY IDOCK:   -5.17 KCAL/MOL
REMARK 924 INTRA-LIGAND FREE ENERGY PREDICTED BY IDOCK:   -0.93 KCAL/MOL
REMARK 927      BINDING AFFINITY PREDICTED BY RF-SCORE:    0.00 PKD
ROOT
HETATM    1  C   UNL     1      -8.759  13.331  68.453  1.00  0.00    -0.126 C  
HETATM    2  C   UNL     1      -8.411  13.008  67.078  1.00  0.00    -0.102 C  
HETATM    3  C   UNL     1      -9.913  13.175  66.996  1.00  0.00    -0.244 C  
HETATM    4  C   UNL     1     -10.711   8.711  69.676  1.00  0.00    -0.204 C  
HETATM    5  C   UNL     1     -10.770  13.225  68.919  1.00  0.00    -0.184 C  
HETATM    6  C   UNL     1     -10.408  14.156  68.058  1.00  0.00    -0.231 C  
HETATM    7  C   UNL     1      -9.618   9.150  68.653  1.00  0.00    -0.157 C  
HETATM    8  C   UNL     1      -9.933   8.346  67.242  1.00  0.00    -0.291 C  
HETATM    9  C   UNL     1      -8.767   7.533  66.583  1.00  0.00    -0.138 C  
HETATM   10  C   UNL     1      -8.143   6.839  67.817  1.00  0.00    -0.113 C  
HETATM   11  C   UNL     1      -7.274   7.880  68.518  1.00  0.00    -0.085 C  
HETATM   12  C   UNL     1     -10.552  15.667  68.028  1.00  0.00    -0.271 C  
HETATM   13  C   UNL     1     -11.799  12.799  67.771  1.00  0.00    -0.387 C  
HETATM   14  C   UNL     1      -8.242   8.742  69.359  1.00  0.00    -0.108 C  
HETATM   15  C   UNL     1      -7.549   9.835  70.174  1.00  0.00    -0.180 C  
HETATM   16  C   UNL     1     -11.378  11.168  68.344  1.00  0.00    -0.357 C  
HETATM   17  C   UNL     1      -7.460  11.180  69.475  1.00  0.00     0.018 C  
HETATM   18  C   UNL     1      -9.804  10.718  68.384  1.00  0.00    -0.177 C  
HETATM   19  C   UNL     1      -8.861  11.733  69.197  1.00  0.00     0.403 C  
ENDROOT
BRANCH   3  20
HETATM   20  N   UNL     1     -10.539  12.715  65.322  1.00  0.00    -0.285 N  
HETATM   21  C   UNL     1     -12.110  12.239  65.031  1.00  0.00    -0.327 C  
HETATM   22  C   UNL     1     -12.315  11.827  63.573  1.00  0.00    -0.495 C  
HETATM   23  C   UNL     1      -9.633  11.654  64.775  1.00  0.00    -0.134 C  
HETATM   24  C   UNL     1     -11.309  10.755  63.170  1.00  0.00     1.261 C  
HETATM   25  C   UNL     1     -10.462  14.052  64.473  1.00  0.00    -0.259 C  
HETATM   26  C   UNL     1      -9.906  11.306  63.331  1.00  0.00    -0.416 C  
ENDBRANCH   3  20
BRANCH   5  27
HETATM   27  O   UNL     1     -11.837  14.293  69.481  1.00  0.00    -0.287 OA 
BRANCH  27  28
HETATM   28  C   UNL     1     -12.560  14.249  70.625  1.00  0.00    -0.355 C  
HETATM   29  C   UNL     1     -12.836  15.663  71.083  1.00  0.00    -0.540 C  
HETATM   30  O   UNL     1     -13.074  13.244  71.086  1.00  0.00    -0.253 OA 
ENDBRANCH  27  28
ENDBRANCH   5  27
BRANCH  10  31
HETATM   31  O   UNL     1      -7.755   5.480  67.787  1.00  0.00    -0.090 OA 
BRANCH  31  32
HETATM   32  C   UNL     1      -6.968   4.844  68.658  1.00  0.00    -0.053 C  
HETATM   33  C   UNL     1      -5.688   4.535  67.940  1.00  0.00    -0.021 C  
HETATM   34  O   UNL     1      -7.244   4.541  69.794  1.00  0.00    -0.049 OA 
ENDBRANCH  31  32
ENDBRANCH  10  31
BRANCH   9  35
HETATM   35  N   UNL     1      -9.043   6.663  65.430  1.00  0.00     0.166 NA 
HETATM   36  C   UNL     1      -7.255   5.184  64.632  1.00  0.00    -0.058 C  
HETATM   37  C   UNL     1      -8.035   6.471  64.404  1.00  0.00    -0.103 C  
HETATM   38  C   UNL     1      -8.186   3.981  64.576  1.00  0.00    -0.094 C  
HETATM   39  C   UNL     1      -9.313   4.170  65.577  1.00  0.00    -0.162 C  
HETATM   40  C   UNL     1      -9.987   5.549  65.516  1.00  0.00     0.316 C  
ENDBRANCH   9  35
TORSDOF 6
ENDMDL
MODEL       39
REMARK 921   NORMALIZED FREE ENERGY PREDICTED BY IDOCK:   -3.13 KCAL/MOL
REMARK 922        TOTAL FREE ENERGY PREDICTED BY IDOCK:   -5.90 KCAL/MOL
REMARK 923 INTER-LIGAND FREE ENERGY PREDICTED BY IDOCK:   -5.20 KCAL/MOL
REMARK 924 INTRA-LIGAND FREE ENERGY PREDICTED BY IDOCK:   -0.70 KCAL/MOL
REMARK 927      BINDING AFFINITY PREDICTED BY RF-SCORE:    0.00 PKD
ROOT
HETATM    1  C   UNL     1     -10.802  16.005  68.928  1.00  0.00    -0.286 C  
HETATM    2  C   UNL     1      -9.956  15.287  69.869  1.00  0.00    -0.176 C  
HETATM    3  C   UNL     1      -8.937  15.963  68.976  1.00  0.00    -0.245 C  
HETATM    4  C   UNL     1     -10.132  12.787  64.947  1.00  0.00    -0.235 C  
HETATM    5  C   UNL     1      -9.852  16.737  67.243  1.00  0.00    -0.260 C  
HETATM    6  C   UNL     1      -9.499  17.263  68.401  1.00  0.00    -0.283 C  
HETATM    7  C   UNL     1     -10.090  12.568  66.491  1.00  0.00    -0.250 C  
HETATM    8  C   UNL     1      -8.754  11.645  66.807  1.00  0.00    -0.189 C  
HETATM    9  C   UNL     1      -8.944  10.344  67.658  1.00  0.00    -0.138 C  
HETATM   10  C   UNL     1     -10.233   9.758  67.036  1.00  0.00    -0.229 C  
HETATM   11  C   UNL     1     -11.404  10.540  67.626  1.00  0.00    -0.233 C  
HETATM   12  C   UNL     1      -9.496  18.678  68.950  1.00  0.00    -0.297 C  
HETATM   13  C   UNL     1      -8.284  16.472  67.076  1.00  0.00    -0.227 C  
HETATM   14  C   UNL     1     -11.485  11.854  66.817  1.00  0.00    -0.384 C  
HETATM   15  C   UNL     1     -12.632  12.772  67.240  1.00  0.00     0.967 C  
HETATM   16  C   UNL     1      -8.870  14.966  66.332  1.00  0.00    -0.196 C  
HETATM   17  C   UNL     1     -12.257  13.807  68.285  1.00  0.00    -0.177 C  
HETATM   18  C   UNL     1      -9.882  13.998  67.181  1.00  0.00    -0.240 C  
HETATM   19  C   UNL     1     -11.184  14.754  67.741  1.00  0.00    -0.323 C  
ENDROOT
BRANCH   3  20
HETATM   20  N   UNL     1      -7.226  15.408  69.386  1.00  0.00    -0.188 N  
HETATM   21  C   UNL     1      -6.524  14.045  68.731  1.00  0.00    -0.093 C  
HETATM   22  C   UNL     1      -5.141  13.781  69.326  1.00  0.00    -0.081 C  
HETATM   23  C   UNL     1      -7.130  15.298  70.878  1.00  0.00     1.151 C  
HETATM   24  C   UNL     1      -5.213  13.712  70.848  1.00  0.00    -0.139 C  
HETATM   25  C   UNL     1      -6.278  16.544  68.817  1.00  0.00    -0.138 C  
HETATM   26  C   UNL     1      -5.730  15.033  71.380  1.00  0.00     0.143 C  
ENDBRANCH   3  20
BRANCH   5  27
HETATM   27  O   UNL     1      -9.671  18.213  66.624  1.00  0.00    -0.305 OA 
BRANCH  27  28
HETATM   28  C   UNL     1     -10.525  18.917  65.845  1.00  0.00    -0.391 C  
HETATM   29  C   UNL     1     -10.256  20.392  66.032  1.00  0.00    -0.245 C  
HETATM   30  O   UNL     1     -11.242  18.433  64.985  1.00  0.00    -0.408 OA 
ENDBRANCH  27  28
ENDBRANCH   5  27
BRANCH  10  31
HETATM   31  O   UNL     1     -10.359   8.378  66.752  1.00  0.00    -0.305 OA 
BRANCH  31  32
HETATM   32  C   UNL     1     -10.795   7.421  67.575  1.00  0.00    -0.187 C  
HETATM   33  C   UNL     1     -11.204   6.263  66.713  1.00  0.00    -0.098 C  
HETATM   34  O   UNL     1     -10.881   7.485  68.778  1.00  0.00    -0.140 OA 
ENDBRANCH  31  32
ENDBRANCH  10  31
BRANCH   9  35
HETATM   35  N   UNL     1      -7.823   9.403  67.816  1.00  0.00    -0.095 NA 
HETATM   36  C   UNL     1      -5.542  10.307  67.862  1.00  0.00    -0.041 C  
HETATM   37  C   UNL     1      -6.606   9.584  67.048  1.00  0.00    -0.068 C  
HETATM   38  C   UNL     1      -5.176   9.495  69.097  1.00  0.00    -0.036 C  
HETATM   39  C   UNL     1      -6.433   9.205  69.899  1.00  0.00    -0.042 C  
HETATM   40  C   UNL     1      -7.606   8.670  69.063  1.00  0.00    -0.090 C  
ENDBRANCH   9  35
TORSDOF 6
ENDMDL
MODEL       40
REMARK 921   NORMALIZED FREE ENERGY PREDICTED BY IDOCK:   -3.00 KCAL/MOL
REMARK 922        TOTAL FREE ENERGY PREDICTED BY IDOCK:   -5.72 KCAL/MOL
REMARK 923 INTER-LIGAND FREE ENERGY PREDICTED BY IDOCK:   -4.26 KCAL/MOL
REMARK 924 INTRA-LIGAND FREE ENERGY PREDICTED BY IDOCK:   -1.46 KCAL/MOL
REMARK 927      BINDING AFFINITY PREDICTED BY RF-SCORE:    0.00 PKD
ROOT
HETATM    1  C   UNL     1      -7.328  10.120  67.502  1.00  0.00    -0.089 C  
HETATM    2  C   UNL     1      -6.349   9.047  67.588  1.00  0.00    -0.056 C  
HETATM    3  C   UNL     1      -7.141   8.657  66.359  1.00  0.00    -0.079 C  
HETATM    4  C   UNL     1     -11.343   7.404  69.279  1.00  0.00     0.192 C  
HETATM    5  C   UNL     1      -8.914   9.787  66.218  1.00  0.00    -0.153 C  
HETATM    6  C   UNL     1      -7.718   9.894  65.671  1.00  0.00    -0.121 C  
HETATM    7  C   UNL     1      -9.807   7.292  69.531  1.00  0.00    -0.163 C  
HETATM    8  C   UNL     1      -9.419   5.687  69.421  1.00  0.00    -0.169 C  
HETATM    9  C   UNL     1      -8.625   5.040  70.605  1.00  0.00    -0.114 C  
HETATM   10  C   UNL     1      -9.359   5.638  71.828  1.00  0.00    -0.145 C  
HETATM   11  C   UNL     1      -8.836   7.060  72.007  1.00  0.00    -0.133 C  
HETATM   12  C   UNL     1      -7.128  10.813  64.616  1.00  0.00     0.321 C  
HETATM   13  C   UNL     1      -8.971   8.403  65.419  1.00  0.00    -0.103 C  
HETATM   14  C   UNL     1      -9.608   7.926  70.987  1.00  0.00    -0.177 C  
HETATM   15  C   UNL     1      -9.245   9.411  71.033  1.00  0.00    -0.181 C  
HETATM   16  C   UNL     1      -9.802   7.869  66.898  1.00  0.00    -0.309 C  
HETATM   17  C   UNL     1      -8.145   9.820  70.072  1.00  0.00    -0.203 C  
HETATM   18  C   UNL     1      -9.060   8.067  68.345  1.00  0.00    -0.136 C  
HETATM   19  C   UNL     1      -8.577   9.573  68.624  1.00  0.00    -0.119 C  
ENDROOT
BRANCH   3  20
HETATM   20  N   UNL     1      -6.621   7.000  65.735  1.00  0.00    -0.050 N  
HETATM   21  C   UNL     1      -7.593   6.032  64.787  1.00  0.00    -0.090 C  
HETATM   22  C   UNL     1      -6.937   4.681  64.502  1.00  0.00    -0.050 C  
HETATM   23  C   UNL     1      -6.182   6.189  66.916  1.00  0.00    -0.032 C  
HETATM   24  C   UNL     1      -6.537   3.992  65.802  1.00  0.00    -0.044 C  
HETATM   25  C   UNL     1      -5.420   7.295  64.742  1.00  0.00    -0.033 C  
HETATM   26  C   UNL     1      -5.549   4.868  66.544  1.00  0.00    -0.017 C  
ENDBRANCH   3  20
BRANCH   5  27
HETATM   27  O   UNL     1      -9.473  10.561  64.921  1.00  0.00    -0.207 OA 
BRANCH  27  28
HETATM   28  C   UNL     1     -10.590  11.316  64.799  1.00  0.00    -0.312 C  
HETATM   29  C   UNL     1     -10.749  11.724  63.352  1.00  0.00    -0.468 C  
HETATM   30  O   UNL     1     -11.431  11.461  65.670  1.00  0.00    -0.104 OA 
ENDBRANCH  27  28
ENDBRANCH   5  27
BRANCH  10  31
HETATM   31  O   UNL     1      -9.694   4.847  72.952  1.00  0.00    -0.142 OA 
BRANCH  31  32
HETATM   32  C   UNL     1      -8.863   4.119  73.703  1.00  0.00    -0.093 C  
HETATM   33  C   UNL     1      -9.582   2.844  74.032  1.00  0.00    -0.120 C  
HETATM   34  O   UNL     1      -7.761   4.438  74.079  1.00  0.00    -0.083 OA 
ENDBRANCH  31  32
ENDBRANCH  10  31
BRANCH   9  35
HETATM   35  N   UNL     1      -8.411   3.584  70.634  1.00  0.00    -0.067 NA 
HETATM   36  C   UNL     1      -9.103   2.267  68.682  1.00  0.00    -0.202 C  
HETATM   37  C   UNL     1      -9.425   2.689  70.109  1.00  0.00    -0.091 C  
HETATM   38  C   UNL     1      -7.777   1.521  68.635  1.00  0.00    -0.046 C  
HETATM   39  C   UNL     1      -6.691   2.385  69.251  1.00  0.00    -0.033 C  
HETATM   40  C   UNL     1      -7.069   3.004  70.606  1.00  0.00    -0.033 C  
ENDBRANCH   9  35
TORSDOF 6
ENDMDL
MODEL       41
REMARK 921   NORMALIZED FREE ENERGY PREDICTED BY IDOCK:   -2.97 KCAL/MOL
REMARK 922        TOTAL FREE ENERGY PREDICTED BY IDOCK:   -5.68 KCAL/MOL
REMARK 923 INTER-LIGAND FREE ENERGY PREDICTED BY IDOCK:   -5.19 KCAL/MOL
REMARK 924 INTRA-LIGAND FREE ENERGY PREDICTED BY IDOCK:   -0.49 KCAL/MOL
REMARK 927      BINDING AFFINITY PREDICTED BY RF-SCORE:    0.00 PKD
ROOT
HETATM    1  C   UNL     1     -10.019   6.514  67.911  1.00  0.00    -0.148 C  
HETATM    2  C   UNL     1     -10.335   7.127  66.630  1.00  0.00    -0.222 C  
HETATM    3  C   UNL     1      -8.838   6.924  66.526  1.00  0.00    -0.140 C  
HETATM    4  C   UNL     1      -7.926  10.706  70.078  1.00  0.00     0.384 C  
HETATM    5  C   UNL     1      -8.012   6.447  68.405  1.00  0.00    -0.106 C  
HETATM    6  C   UNL     1      -8.394   5.727  67.366  1.00  0.00    -0.104 C  
HETATM    7  C   UNL     1      -9.018  10.529  68.977  1.00  0.00    -0.183 C  
HETATM    8  C   UNL     1      -8.653  11.595  67.766  1.00  0.00    -0.144 C  
HETATM    9  C   UNL     1      -9.780  12.569  67.280  1.00  0.00    -0.202 C  
HETATM   10  C   UNL     1     -10.398  13.016  68.626  1.00  0.00    -0.191 C  
HETATM   11  C   UNL     1     -11.314  11.886  69.090  1.00  0.00    -0.338 C  
HETATM   12  C   UNL     1      -8.303   4.250  67.026  1.00  0.00    -0.101 C  
HETATM   13  C   UNL     1      -6.953   7.062  67.377  1.00  0.00    -0.079 C  
HETATM   14  C   UNL     1     -10.390  10.834  69.743  1.00  0.00    -0.073 C  
HETATM   15  C   UNL     1     -11.132   9.623  70.308  1.00  0.00    -0.327 C  
HETATM   16  C   UNL     1      -7.325   8.553  68.272  1.00  0.00    -0.094 C  
HETATM   17  C   UNL     1     -11.257   8.455  69.346  1.00  0.00     0.208 C  
HETATM   18  C   UNL     1      -8.883   9.045  68.391  1.00  0.00    -0.134 C  
HETATM   19  C   UNL     1      -9.873   7.920  68.970  1.00  0.00    -0.171 C  
ENDROOT
BRANCH   3  20
HETATM   20  N   UNL     1      -8.171   7.696  64.989  1.00  0.00    -0.134 N  
HETATM   21  C   UNL     1      -6.579   8.159  64.813  1.00  0.00    -0.059 C  
HETATM   22  C   UNL     1      -6.338   8.855  63.474  1.00  0.00    -0.089 C  
HETATM   23  C   UNL     1      -9.029   8.883  64.668  1.00  0.00     0.010 C  
HETATM   24  C   UNL     1      -7.297  10.027  63.296  1.00  0.00    -0.136 C  
HETATM   25  C   UNL     1      -8.286   6.568  63.880  1.00  0.00     0.051 C  
HETATM   26  C   UNL     1      -8.721   9.511  63.330  1.00  0.00    -0.238 C  
ENDBRANCH   3  20
BRANCH   5  27
HETATM   27  O   UNL     1      -6.992   5.247  68.742  1.00  0.00    -0.056 OA 
BRANCH  27  28
HETATM   28  C   UNL     1      -6.548   4.825  69.949  1.00  0.00    -0.036 C  
HETATM   29  C   UNL     1      -5.150   5.356  70.168  1.00  0.00    -0.004 C  
HETATM   30  O   UNL     1      -7.239   4.286  70.796  1.00  0.00    -0.040 OA 
ENDBRANCH  27  28
ENDBRANCH   5  27
BRANCH  10  31
HETATM   31  O   UNL     1     -10.737  14.366  68.874  1.00  0.00    -0.242 OA 
BRANCH  31  32
HETATM   32  C   UNL     1     -11.307  14.867  69.974  1.00  0.00    -0.274 C  
HETATM   33  C   UNL     1     -12.783  14.642  69.838  1.00  0.00    -0.126 C  
HETATM   34  O   UNL     1     -10.748  15.429  70.885  1.00  0.00    -0.301 OA 
ENDBRANCH  31  32
ENDBRANCH  10  31
BRANCH   9  35
HETATM   35  N   UNL     1      -9.456  13.647  66.334  1.00  0.00    -0.263 NA 
HETATM   36  C   UNL     1     -11.084  15.458  66.030  1.00  0.00    -0.233 C  
HETATM   37  C   UNL     1     -10.483  14.182  65.459  1.00  0.00    -0.339 C  
HETATM   38  C   UNL     1     -10.014  16.532  66.173  1.00  0.00    -0.363 C  
HETATM   39  C   UNL     1      -8.871  15.993  67.016  1.00  0.00    -0.235 C  
HETATM   40  C   UNL     1      -8.378  14.600  66.594  1.00  0.00     0.078 C  
ENDBRANCH   9  35
TORSDOF 6
ENDMDL
MODEL       42
REMARK 921   NORMALIZED FREE ENERGY PREDICTED BY IDOCK:   -2.76 KCAL/MOL
REMARK 922        TOTAL FREE ENERGY PREDICTED BY IDOCK:   -5.39 KCAL/MOL
REMARK 923 INTER-LIGAND FREE ENERGY PREDICTED BY IDOCK:   -3.90 KCAL/MOL
REMARK 924 INTRA-LIGAND FREE ENERGY PREDICTED BY IDOCK:   -1.49 KCAL/MOL
REMARK 927      BINDING AFFINITY PREDICTED BY RF-SCORE:    0.00 PKD
ROOT
HETATM    1  C   UNL     1      -8.125  17.497  66.436  1.00  0.00    -0.309 C  
HETATM    2  C   UNL     1      -8.455  16.531  65.399  1.00  0.00     1.558 C  
HETATM    3  C   UNL     1      -9.748  16.613  66.182  1.00  0.00    -0.303 C  
HETATM    4  C   UNL     1      -7.606  14.092  70.281  1.00  0.00     1.218 C  
HETATM    5  C   UNL     1      -9.456  17.611  68.014  1.00  0.00    -0.282 C  
HETATM    6  C   UNL     1      -9.903  17.988  66.831  1.00  0.00    -0.330 C  
HETATM    7  C   UNL     1      -7.400  13.972  68.739  1.00  0.00    -0.127 C  
HETATM    8  C   UNL     1      -8.127  12.562  68.267  1.00  0.00    -0.165 C  
HETATM    9  C   UNL     1      -7.282  11.545  67.427  1.00  0.00    -0.119 C  
HETATM   10  C   UNL     1      -5.931  11.575  68.181  1.00  0.00    -0.045 C  
HETATM   11  C   UNL     1      -5.202  12.839  67.733  1.00  0.00    -0.111 C  
HETATM   12  C   UNL     1     -10.505  19.277  66.301  1.00  0.00    -0.567 C  
HETATM   13  C   UNL     1     -10.735  16.651  68.004  1.00  0.00    -0.350 C  
HETATM   14  C   UNL     1      -5.810  13.993  68.561  1.00  0.00    -0.093 C  
HETATM   15  C   UNL     1      -5.179  15.357  68.278  1.00  0.00    -0.110 C  
HETATM   16  C   UNL     1      -9.594  15.536  68.791  1.00  0.00    -0.208 C  
HETATM   17  C   UNL     1      -5.889  16.169  67.210  1.00  0.00    -0.122 C  
HETATM   18  C   UNL     1      -8.177  15.188  68.047  1.00  0.00    -0.144 C  
HETATM   19  C   UNL     1      -7.323  16.488  67.643  1.00  0.00    -0.159 C  
ENDROOT
BRANCH   3  20
HETATM   20  N   UNL     1     -10.966  15.365  65.579  1.00  0.00    -0.346 N  
HETATM   21  C   UNL     1     -12.098  14.639  66.565  1.00  0.00    -0.211 C  
HETATM   22  C   UNL     1     -12.905  13.580  65.814  1.00  0.00    -0.326 C  
HETATM   23  C   UNL     1     -10.198  14.277  64.890  1.00  0.00    -0.329 C  
HETATM   24  C   UNL     1     -11.979  12.560  65.161  1.00  0.00    -0.484 C  
HETATM   25  C   UNL     1     -11.901  16.156  64.571  1.00  0.00     0.063 C  
HETATM   26  C   UNL     1     -11.073  13.273  64.178  1.00  0.00    -0.393 C  
ENDBRANCH   3  20
BRANCH   5  27
HETATM   27  O   UNL     1     -10.352  18.802  68.626  1.00  0.00    -0.351 OA 
BRANCH  27  28
HETATM   28  C   UNL     1      -9.953  19.892  69.322  1.00  0.00    -0.184 C  
HETATM   29  C   UNL     1      -8.443  19.923  69.359  1.00  0.00     0.330 C  
HETATM   30  O   UNL     1     -10.687  20.800  69.674  1.00  0.00     0.286 OA 
ENDBRANCH  27  28
ENDBRANCH   5  27
BRANCH  10  31
HETATM   31  O   UNL     1      -5.212  10.390  68.462  1.00  0.00    -0.039 OA 
BRANCH  31  32
HETATM   32  C   UNL     1      -5.448   9.514  69.442  1.00  0.00    -0.035 C  
HETATM   33  C   UNL     1      -5.924  10.306  70.624  1.00  0.00    -0.106 C  
HETATM   34  O   UNL     1      -5.277   8.319  69.401  1.00  0.00    -0.029 OA 
ENDBRANCH  31  32
ENDBRANCH  10  31
BRANCH   9  35
HETATM   35  N   UNL     1      -7.824  10.209  67.136  1.00  0.00    -0.099 NA 
HETATM   36  C   UNL     1     -10.212   9.810  67.534  1.00  0.00    -0.271 C  
HETATM   37  C   UNL     1      -8.790   9.603  68.033  1.00  0.00    -0.119 C  
HETATM   38  C   UNL     1     -10.397   9.158  66.170  1.00  0.00    -0.059 C  
HETATM   39  C   UNL     1      -9.352   9.699  65.209  1.00  0.00    -0.322 C  
HETATM   40  C   UNL     1      -7.921   9.701  65.768  1.00  0.00    -0.109 C  
ENDBRANCH   9  35
TORSDOF 6
ENDMDL
MODEL       43
REMARK 921   NORMALIZED FREE ENERGY PREDICTED BY IDOCK:   -2.71 KCAL/MOL
REMARK 922        TOTAL FREE ENERGY PREDICTED BY IDOCK:   -5.33 KCAL/MOL
REMARK 923 INTER-LIGAND FREE ENERGY PREDICTED BY IDOCK:   -5.33 KCAL/MOL
REMARK 924 INTRA-LIGAND FREE ENERGY PREDICTED BY IDOCK:    0.00 KCAL/MOL
REMARK 927      BINDING AFFINITY PREDICTED BY RF-SCORE:    0.00 PKD
ROOT
HETATM    1  C   UNL     1      -5.870   8.294  68.037  1.00  0.00    -0.042 C  
HETATM    2  C   UNL     1      -6.476   8.515  69.341  1.00  0.00    -0.037 C  
HETATM    3  C   UNL     1      -7.192   7.270  68.864  1.00  0.00    -0.090 C  
HETATM    4  C   UNL     1      -9.850  10.003  65.230  1.00  0.00    -0.388 C  
HETATM    5  C   UNL     1      -6.842   6.940  66.814  1.00  0.00    -0.064 C  
HETATM    6  C   UNL     1      -6.303   6.462  67.920  1.00  0.00    -0.040 C  
HETATM    7  C   UNL     1      -9.350  10.358  66.665  1.00  0.00    -0.185 C  
HETATM    8  C   UNL     1     -10.684  10.385  67.643  1.00  0.00    -0.335 C  
HETATM    9  C   UNL     1     -10.925  11.659  68.522  1.00  0.00    -0.220 C  
HETATM   10  C   UNL     1     -10.607  12.789  67.514  1.00  0.00    -0.229 C  
HETATM   11  C   UNL     1      -9.087  12.900  67.438  1.00  0.00    -0.197 C  
HETATM   12  C   UNL     1      -5.272   5.383  68.201  1.00  0.00    -0.004 C  
HETATM   13  C   UNL     1      -8.172   6.237  67.357  1.00  0.00    -0.109 C  
HETATM   14  C   UNL     1      -8.629  11.775  66.482  1.00  0.00    -0.148 C  
HETATM   15  C   UNL     1      -7.119  11.740  66.246  1.00  0.00     0.352 C  
HETATM   16  C   UNL     1      -8.924   7.696  66.671  1.00  0.00    -0.181 C  
HETATM   17  C   UNL     1      -6.356  10.822  67.183  1.00  0.00    -0.072 C  
HETATM   18  C   UNL     1      -8.396   9.170  67.156  1.00  0.00    -0.117 C  
HETATM   19  C   UNL     1      -6.810   9.371  67.002  1.00  0.00    -0.084 C  
ENDROOT
BRANCH   3  20
HETATM   20  N   UNL     1      -8.544   6.797  70.029  1.00  0.00    -0.140 N  
HETATM   21  C   UNL     1      -8.301   6.545  71.659  1.00  0.00    -0.120 C  
HETATM   22  C   UNL     1      -9.579   6.071  72.353  1.00  0.00    -0.162 C  
HETATM   23  C   UNL     1      -9.215   5.577  69.473  1.00  0.00    -0.121 C  
HETATM   24  C   UNL     1     -10.141   4.835  71.660  1.00  0.00    -0.264 C  
HETATM   25  C   UNL     1      -9.520   8.047  70.054  1.00  0.00    -0.160 C  
HETATM   26  C   UNL     1     -10.465   5.178  70.220  1.00  0.00    -0.296 C  
ENDBRANCH   3  20
BRANCH   5  27
HETATM   27  O   UNL     1      -6.397   5.559  66.113  1.00  0.00    -0.033 OA 
BRANCH  27  28
HETATM   28  C   UNL     1      -6.523   5.185  64.818  1.00  0.00    -0.035 C  
HETATM   29  C   UNL     1      -6.287   6.389  63.936  1.00  0.00    -0.030 C  
HETATM   30  O   UNL     1      -6.606   4.031  64.432  1.00  0.00    -0.040 OA 
ENDBRANCH  27  28
ENDBRANCH   5  27
BRANCH  10  31
HETATM   31  O   UNL     1     -11.419  13.943  67.413  1.00  0.00    -0.313 OA 
BRANCH  31  32
HETATM   32  C   UNL     1     -11.020  15.192  67.161  1.00  0.00    -0.326 C  
HETATM   33  C   UNL     1     -11.638  16.065  68.212  1.00  0.00    -0.232 C  
HETATM   34  O   UNL     1     -10.327  15.557  66.241  1.00  0.00    -0.278 OA 
ENDBRANCH  31  32
ENDBRANCH  10  31
BRANCH   9  35
HETATM   35  N   UNL     1     -12.182  11.803  69.271  1.00  0.00    -0.208 NA 
HETATM   36  C   UNL     1     -12.708  10.138  70.996  1.00  0.00    -0.481 C  
HETATM   37  C   UNL     1     -12.983  10.634  69.583  1.00  0.00     0.558 C  
HETATM   38  C   UNL     1     -13.065  11.211  72.015  1.00  0.00    -0.433 C  
HETATM   39  C   UNL     1     -12.314  12.489  71.684  1.00  0.00     0.193 C  
HETATM   40  C   UNL     1     -12.397  12.906  70.207  1.00  0.00    -0.223 C  
ENDBRANCH   9  35
TORSDOF 6
ENDMDL
MODEL       44
REMARK 921   NORMALIZED FREE ENERGY PREDICTED BY IDOCK:   -2.69 KCAL/MOL
REMARK 922        TOTAL FREE ENERGY PREDICTED BY IDOCK:   -5.30 KCAL/MOL
REMARK 923 INTER-LIGAND FREE ENERGY PREDICTED BY IDOCK:   -5.55 KCAL/MOL
REMARK 924 INTRA-LIGAND FREE ENERGY PREDICTED BY IDOCK:    0.25 KCAL/MOL
REMARK 927      BINDING AFFINITY PREDICTED BY RF-SCORE:    0.00 PKD
ROOT
HETATM    1  C   UNL     1      -9.079   8.864  64.624  1.00  0.00     0.052 C  
HETATM    2  C   UNL     1     -10.301   9.471  65.130  1.00  0.00     0.779 C  
HETATM    3  C   UNL     1      -9.260  10.511  65.481  1.00  0.00    -0.188 C  
HETATM    4  C   UNL     1      -7.196   7.410  69.205  1.00  0.00    -0.080 C  
HETATM    5  C   UNL     1      -7.315   9.732  65.263  1.00  0.00    -0.120 C  
HETATM    6  C   UNL     1      -8.095  10.467  64.493  1.00  0.00    -0.114 C  
HETATM    7  C   UNL     1      -8.654   7.617  68.689  1.00  0.00    -0.129 C  
HETATM    8  C   UNL     1      -9.460   8.466  69.859  1.00  0.00    -0.166 C  
HETATM    9  C   UNL     1     -10.819   7.888  70.381  1.00  0.00    -0.244 C  
HETATM   10  C   UNL     1     -10.476   6.387  70.527  1.00  0.00    -0.220 C  
HETATM   11  C   UNL     1     -10.541   5.780  69.128  1.00  0.00    -0.365 C  
HETATM   12  C   UNL     1      -7.891  11.166  63.161  1.00  0.00     0.444 C  
HETATM   13  C   UNL     1      -7.395  10.984  66.254  1.00  0.00    -0.097 C  
HETATM   14  C   UNL     1      -9.195   6.130  68.454  1.00  0.00    -0.111 C  
HETATM   15  C   UNL     1      -9.049   5.574  67.037  1.00  0.00    -0.112 C  
HETATM   16  C   UNL     1      -7.435   9.695  67.479  1.00  0.00    -0.091 C  
HETATM   17  C   UNL     1      -9.486   6.525  65.938  1.00  0.00     0.089 C  
HETATM   18  C   UNL     1      -8.580   8.529  67.375  1.00  0.00    -0.127 C  
HETATM   19  C   UNL     1      -8.622   7.790  65.949  1.00  0.00    -0.170 C  
ENDROOT
BRANCH   3  20
HETATM   20  N   UNL     1      -9.994  11.866  66.497  1.00  0.00    -0.199 N  
HETATM   21  C   UNL     1      -9.093  13.092  67.176  1.00  0.00    -0.230 C  
HETATM   22  C   UNL     1      -9.954  14.013  68.041  1.00  0.00    -0.235 C  
HETATM   23  C   UNL     1     -10.795  11.228  67.592  1.00  0.00    -0.238 C  
HETATM   24  C   UNL     1     -10.712  13.211  69.093  1.00  0.00    -0.072 C  
HETATM   25  C   UNL     1     -10.913  12.680  65.493  1.00  0.00    -0.279 C  
HETATM   26  C   UNL     1     -11.612  12.209  68.398  1.00  0.00    -0.381 C  
ENDBRANCH   3  20
BRANCH   5  27
HETATM   27  O   UNL     1      -6.073  10.415  64.497  1.00  0.00    -0.134 OA 
BRANCH  27  28
HETATM   28  C   UNL     1      -5.400   9.973  63.410  1.00  0.00    -0.104 C  
HETATM   29  C   UNL     1      -5.264   8.470  63.496  1.00  0.00    -0.061 C  
HETATM   30  O   UNL     1      -5.136  10.651  62.431  1.00  0.00    -0.105 OA 
ENDBRANCH  27  28
ENDBRANCH   5  27
BRANCH  10  31
HETATM   31  O   UNL     1     -10.886   5.639  71.655  1.00  0.00    -0.250 OA 
BRANCH  31  32
HETATM   32  C   UNL     1     -10.102   5.036  72.552  1.00  0.00    -0.183 C  
HETATM   33  C   UNL     1     -10.952   4.765  73.758  1.00  0.00    -0.371 C  
HETATM   34  O   UNL     1      -8.925   4.789  72.434  1.00  0.00    -0.124 OA 
ENDBRANCH  31  32
ENDBRANCH  10  31
BRANCH   9  35
HETATM   35  N   UNL     1     -11.481   8.511  71.538  1.00  0.00    -0.270 NA 
HETATM   36  C   UNL     1     -12.963  10.426  71.140  1.00  0.00    -0.506 C  
HETATM   37  C   UNL     1     -11.598   9.954  71.621  1.00  0.00    -0.197 C  
HETATM   38  C   UNL     1     -14.065   9.837  72.008  1.00  0.00    -0.022 C  
HETATM   39  C   UNL     1     -13.939   8.323  72.023  1.00  0.00    -0.432 C  
HETATM   40  C   UNL     1     -12.516   7.811  72.298  1.00  0.00    -0.187 C  
ENDBRANCH   9  35
TORSDOF 6
ENDMDL
MODEL       45
REMARK 921   NORMALIZED FREE ENERGY PREDICTED BY IDOCK:   -2.60 KCAL/MOL
REMARK 922        TOTAL FREE ENERGY PREDICTED BY IDOCK:   -5.18 KCAL/MOL
REMARK 923 INTER-LIGAND FREE ENERGY PREDICTED BY IDOCK:   -3.76 KCAL/MOL
REMARK 924 INTRA-LIGAND FREE ENERGY PREDICTED BY IDOCK:   -1.42 KCAL/MOL
REMARK 927      BINDING AFFINITY PREDICTED BY RF-SCORE:    0.00 PKD
ROOT
HETATM    1  C   UNL     1     -11.569  12.492  66.535  1.00  0.00    -0.447 C  
HETATM    2  C   UNL     1     -12.271  11.394  67.184  1.00  0.00     1.128 C  
HETATM    3  C   UNL     1     -11.598  12.079  68.354  1.00  0.00    -0.311 C  
HETATM    4  C   UNL     1      -6.849  10.418  66.793  1.00  0.00    -0.091 C  
HETATM    5  C   UNL     1     -10.151  13.458  67.688  1.00  0.00    -0.229 C  
HETATM    6  C   UNL     1     -11.408  13.569  68.075  1.00  0.00    -0.318 C  
HETATM    7  C   UNL     1      -8.271   9.781  66.715  1.00  0.00    -0.120 C  
HETATM    8  C   UNL     1      -8.314   8.567  67.839  1.00  0.00    -0.126 C  
HETATM    9  C   UNL     1      -8.770   7.145  67.366  1.00  0.00    -0.120 C  
HETATM   10  C   UNL     1      -8.014   7.012  66.023  1.00  0.00    -0.109 C  
HETATM   11  C   UNL     1      -8.803   7.814  64.991  1.00  0.00     0.205 C  
HETATM   12  C   UNL     1     -12.329  14.753  68.314  1.00  0.00     0.078 C  
HETATM   13  C   UNL     1      -9.911  12.952  69.186  1.00  0.00     0.380 C  
HETATM   14  C   UNL     1      -8.391   9.289  65.198  1.00  0.00    -0.155 C  
HETATM   15  C   UNL     1      -9.056  10.260  64.222  1.00  0.00    -0.278 C  
HETATM   16  C   UNL     1      -8.781  11.849  68.368  1.00  0.00    -0.157 C  
HETATM   17  C   UNL     1     -10.346  10.878  64.730  1.00  0.00    -0.391 C  
HETATM   18  C   UNL     1      -9.331  10.899  67.152  1.00  0.00    -0.174 C  
HETATM   19  C   UNL     1     -10.083  11.711  65.987  1.00  0.00    -0.259 C  
ENDROOT
BRANCH   3  20
HETATM   20  N   UNL     1     -11.832  11.113  69.909  1.00  0.00    -0.330 N  
HETATM   21  C   UNL     1     -10.618  10.221  70.624  1.00  0.00     0.035 C  
HETATM   22  C   UNL     1     -11.127   9.451  71.843  1.00  0.00    -0.194 C  
HETATM   23  C   UNL     1     -13.007  10.204  69.706  1.00  0.00     0.679 C  
HETATM   24  C   UNL     1     -12.328   8.588  71.473  1.00  0.00    -0.354 C  
HETATM   25  C   UNL     1     -12.113  12.199  71.029  1.00  0.00     0.047 C  
HETATM   26  C   UNL     1     -13.440   9.481  70.959  1.00  0.00    -0.196 C  
ENDBRANCH   3  20
BRANCH   5  27
HETATM   27  O   UNL     1      -9.966  14.983  68.173  1.00  0.00    -0.215 OA 
BRANCH  27  28
HETATM   28  C   UNL     1      -9.089  15.914  67.729  1.00  0.00    -0.196 C  
HETATM   29  C   UNL     1      -7.841  15.216  67.241  1.00  0.00    -0.241 C  
HETATM   30  O   UNL     1      -9.351  17.093  67.559  1.00  0.00    -0.235 OA 
ENDBRANCH  27  28
ENDBRANCH   5  27
BRANCH  10  31
HETATM   31  O   UNL     1      -7.358   5.814  65.657  1.00  0.00    -0.073 OA 
BRANCH  31  32
HETATM   32  C   UNL     1      -6.291   5.266  66.242  1.00  0.00    -0.039 C  
HETATM   33  C   UNL     1      -5.247   6.339  66.332  1.00  0.00    -0.013 C  
HETATM   34  O   UNL     1      -6.171   4.117  66.597  1.00  0.00    -0.030 OA 
ENDBRANCH  31  32
ENDBRANCH  10  31
BRANCH   9  35
HETATM   35  N   UNL     1      -8.657   5.999  68.282  1.00  0.00    -0.115 NA 
HETATM   36  C   UNL     1      -8.745   6.425  70.697  1.00  0.00    -0.144 C  
HETATM   37  C   UNL     1      -7.868   6.110  69.494  1.00  0.00    -0.100 C  
HETATM   38  C   UNL     1      -9.758   5.311  70.922  1.00  0.00    -0.244 C  
HETATM   39  C   UNL     1     -10.560   5.095  69.651  1.00  0.00    -0.156 C  
HETATM   40  C   UNL     1      -9.707   4.985  68.377  1.00  0.00    -0.152 C  
ENDBRANCH   9  35
TORSDOF 6
ENDMDL
MODEL       46
REMARK 921   NORMALIZED FREE ENERGY PREDICTED BY IDOCK:   -2.39 KCAL/MOL
REMARK 922        TOTAL FREE ENERGY PREDICTED BY IDOCK:   -4.90 KCAL/MOL
REMARK 923 INTER-LIGAND FREE ENERGY PREDICTED BY IDOCK:   -4.49 KCAL/MOL
REMARK 924 INTRA-LIGAND FREE ENERGY PREDICTED BY IDOCK:   -0.40 KCAL/MOL
REMARK 927      BINDING AFFINITY PREDICTED BY RF-SCORE:    0.00 PKD
ROOT
HETATM    1  C   UNL     1     -10.555   6.316  71.168  1.00  0.00    -0.289 C  
HETATM    2  C   UNL     1     -10.822   5.433  70.043  1.00  0.00    -0.208 C  
HETATM    3  C   UNL     1      -9.428   5.010  70.456  1.00  0.00    -0.173 C  
HETATM    4  C   UNL     1      -7.365   9.516  68.672  1.00  0.00    -0.075 C  
HETATM    5  C   UNL     1      -8.586   6.401  71.795  1.00  0.00    -0.128 C  
HETATM    6  C   UNL     1      -9.210   5.249  71.950  1.00  0.00    -0.156 C  
HETATM    7  C   UNL     1      -8.554   8.630  68.185  1.00  0.00    -0.141 C  
HETATM    8  C   UNL     1      -8.050   7.867  66.807  1.00  0.00    -0.108 C  
HETATM    9  C   UNL     1      -8.953   7.982  65.531  1.00  0.00     0.003 C  
HETATM   10  C   UNL     1      -9.335   9.481  65.563  1.00  0.00    -0.255 C  
HETATM   11  C   UNL     1     -10.450   9.632  66.595  1.00  0.00    -0.233 C  
HETATM   12  C   UNL     1      -9.497   4.367  73.152  1.00  0.00    -0.139 C  
HETATM   13  C   UNL     1      -7.500   5.518  71.022  1.00  0.00    -0.089 C  
HETATM   14  C   UNL     1      -9.748   9.674  67.971  1.00  0.00    -0.167 C  
HETATM   15  C   UNL     1     -10.705   9.858  69.149  1.00  0.00    -0.247 C  
HETATM   16  C   UNL     1      -7.437   6.958  69.980  1.00  0.00    -0.093 C  
HETATM   17  C   UNL     1     -11.180   8.563  69.782  1.00  0.00     0.023 C  
HETATM   18  C   UNL     1      -8.820   7.515  69.303  1.00  0.00    -0.136 C  
HETATM   19  C   UNL     1      -9.996   7.785  70.364  1.00  0.00    -0.188 C  
ENDROOT
BRANCH   3  20
HETATM   20  N   UNL     1      -8.727   3.788  69.264  1.00  0.00    -0.079 N  
HETATM   21  C   UNL     1      -7.101   3.434  69.166  1.00  0.00    -0.049 C  
HETATM   22  C   UNL     1      -6.803   2.460  68.026  1.00  0.00    -0.043 C  
HETATM   23  C   UNL     1      -9.194   4.173  67.893  1.00  0.00    -0.151 C  
HETATM   24  C   UNL     1      -7.354   2.990  66.707  1.00  0.00    -0.070 C  
HETATM   25  C   UNL     1      -9.318   2.387  69.717  1.00  0.00    -0.098 C  
HETATM   26  C   UNL     1      -8.855   3.157  66.828  1.00  0.00    -0.157 C  
ENDBRANCH   3  20
BRANCH   5  27
HETATM   27  O   UNL     1      -7.852   6.084  73.194  1.00  0.00    -0.104 OA 
BRANCH  27  28
HETATM   28  C   UNL     1      -7.301   6.948  74.077  1.00  0.00    -0.092 C  
HETATM   29  C   UNL     1      -5.953   6.415  74.506  1.00  0.00    -0.064 C  
HETATM   30  O   UNL     1      -7.728   8.064  74.320  1.00  0.00    -0.174 OA 
ENDBRANCH  27  28
ENDBRANCH   5  27
BRANCH  10  31
HETATM   31  O   UNL     1      -9.327  10.273  64.391  1.00  0.00    -0.229 OA 
BRANCH  31  32
HETATM   32  C   UNL     1     -10.372  10.869  63.811  1.00  0.00    -0.317 C  
HETATM   33  C   UNL     1      -9.888  11.412  62.500  1.00  0.00     0.122 C  
HETATM   34  O   UNL     1     -11.483  10.985  64.269  1.00  0.00     0.060 OA 
ENDBRANCH  31  32
ENDBRANCH  10  31
BRANCH   9  35
HETATM   35  N   UNL     1      -8.464   7.472  64.241  1.00  0.00     0.122 NA 
HETATM   36  C   UNL     1      -6.255   8.204  63.461  1.00  0.00    -0.072 C  
HETATM   37  C   UNL     1      -7.764   8.354  63.327  1.00  0.00    -0.140 C  
HETATM   38  C   UNL     1      -5.831   6.781  63.124  1.00  0.00    -0.035 C  
HETATM   39  C   UNL     1      -6.599   5.806  64.000  1.00  0.00    -0.037 C  
HETATM   40  C   UNL     1      -8.113   6.065  64.056  1.00  0.00    -0.089 C  
ENDBRANCH   9  35
TORSDOF 6
ENDMDL
MODEL       47
REMARK 921   NORMALIZED FREE ENERGY PREDICTED BY IDOCK:   -2.29 KCAL/MOL
REMARK 922        TOTAL FREE ENERGY PREDICTED BY IDOCK:   -4.77 KCAL/MOL
REMARK 923 INTER-LIGAND FREE ENERGY PREDICTED BY IDOCK:   -5.39 KCAL/MOL
REMARK 924 INTRA-LIGAND FREE ENERGY PREDICTED BY IDOCK:    0.62 KCAL/MOL
REMARK 927      BINDING AFFINITY PREDICTED BY RF-SCORE:    0.00 PKD
ROOT
HETATM    1  C   UNL     1     -11.612  10.959  68.743  1.00  0.00    -0.378 C  
HETATM    2  C   UNL     1     -11.970  11.472  67.429  1.00  0.00     0.075 C  
HETATM    3  C   UNL     1     -10.601  10.877  67.177  1.00  0.00    -0.255 C  
HETATM    4  C   UNL     1      -8.262  14.697  69.949  1.00  0.00     0.470 C  
HETATM    5  C   UNL     1      -9.627  10.435  68.991  1.00  0.00    -0.204 C  
HETATM    6  C   UNL     1     -10.329   9.718  68.134  1.00  0.00    -0.241 C  
HETATM    7  C   UNL     1      -9.524  14.676  69.032  1.00  0.00    -0.127 C  
HETATM    8  C   UNL     1      -9.112  15.455  67.632  1.00  0.00    -0.183 C  
HETATM    9  C   UNL     1     -10.035  16.621  67.140  1.00  0.00    -0.268 C  
HETATM   10  C   UNL     1     -10.307  17.374  68.465  1.00  0.00    -0.378 C  
HETATM   11  C   UNL     1     -11.382  16.585  69.209  1.00  0.00    -0.133 C  
HETATM   12  C   UNL     1     -10.649   8.238  68.022  1.00  0.00    -0.188 C  
HETATM   13  C   UNL     1      -8.627  10.624  67.758  1.00  0.00    -0.123 C  
HETATM   14  C   UNL     1     -10.644  15.417  69.901  1.00  0.00    -0.315 C  
HETATM   15  C   UNL     1     -11.556  14.518  70.737  1.00  0.00    -0.260 C  
HETATM   16  C   UNL     1      -8.486  12.259  68.445  1.00  0.00    -0.138 C  
HETATM   17  C   UNL     1     -12.107  13.315  69.994  1.00  0.00    -0.385 C  
HETATM   18  C   UNL     1      -9.842  13.148  68.675  1.00  0.00    -0.089 C  
HETATM   19  C   UNL     1     -10.969  12.397  69.540  1.00  0.00     0.013 C  
ENDROOT
BRANCH   3  20
HETATM   20  N   UNL     1     -10.021  11.257  65.466  1.00  0.00    -0.234 N  
HETATM   21  C   UNL     1     -10.942  10.982  64.104  1.00  0.00    -0.063 C  
HETATM   22  C   UNL     1     -10.168  11.302  62.825  1.00  0.00    -0.075 C  
HETATM   23  C   UNL     1      -8.703  10.568  65.272  1.00  0.00    -0.188 C  
HETATM   24  C   UNL     1      -8.850  10.536  62.788  1.00  0.00    -0.258 C  
HETATM   25  C   UNL     1      -9.874  12.835  65.424  1.00  0.00    -0.128 C  
HETATM   26  C   UNL     1      -8.009  10.938  63.983  1.00  0.00     0.343 C  
ENDBRANCH   3  20
BRANCH   5  27
HETATM   27  O   UNL     1      -8.883   9.061  69.386  1.00  0.00    -0.137 OA 
BRANCH  27  28
HETATM   28  C   UNL     1      -8.205   8.759  70.518  1.00  0.00    -0.131 C  
HETATM   29  C   UNL     1      -8.040   7.259  70.603  1.00  0.00    -0.108 C  
HETATM   30  O   UNL     1      -7.645   9.572  71.232  1.00  0.00    -0.327 OA 
ENDBRANCH  27  28
ENDBRANCH   5  27
BRANCH  10  31
HETATM   31  O   UNL     1     -10.271  18.786  68.536  1.00  0.00    -0.377 OA 
BRANCH  31  32
HETATM   32  C   UNL     1      -9.729  19.532  69.502  1.00  0.00    -0.023 C  
HETATM   33  C   UNL     1      -8.243  19.350  69.407  1.00  0.00     0.057 C  
HETATM   34  O   UNL     1     -10.320  20.196  70.320  1.00  0.00     0.225 OA 
ENDBRANCH  31  32
ENDBRANCH  10  31
BRANCH   9  35
HETATM   35  N   UNL     1      -9.617  17.455  66.003  1.00  0.00    -0.504 NA 
HETATM   36  C   UNL     1     -10.426  19.770  65.896  1.00  0.00    -0.587 C  
HETATM   37  C   UNL     1     -10.566  18.349  65.367  1.00  0.00     0.244 C  
HETATM   38  C   UNL     1      -9.034  20.311  65.602  1.00  0.00     0.254 C  
HETATM   39  C   UNL     1      -7.994  19.365  66.177  1.00  0.00    -0.320 C  
HETATM   40  C   UNL     1      -8.230  17.885  65.835  1.00  0.00     0.057 C  
ENDBRANCH   9  35
TORSDOF 6
ENDMDL
MODEL       48
REMARK 921   NORMALIZED FREE ENERGY PREDICTED BY IDOCK:   -2.24 KCAL/MOL
REMARK 922        TOTAL FREE ENERGY PREDICTED BY IDOCK:   -4.70 KCAL/MOL
REMARK 923 INTER-LIGAND FREE ENERGY PREDICTED BY IDOCK:   -4.17 KCAL/MOL
REMARK 924 INTRA-LIGAND FREE ENERGY PREDICTED BY IDOCK:   -0.53 KCAL/MOL
REMARK 927      BINDING AFFINITY PREDICTED BY RF-SCORE:    0.00 PKD
ROOT
HETATM    1  C   UNL     1      -6.291   5.259  67.150  1.00  0.00    -0.040 C  
HETATM    2  C   UNL     1      -6.474   5.551  68.563  1.00  0.00    -0.043 C  
HETATM    3  C   UNL     1      -7.732   4.778  68.232  1.00  0.00    -0.081 C  
HETATM    4  C   UNL     1      -9.623   8.778  65.374  1.00  0.00     0.109 C  
HETATM    5  C   UNL     1      -7.968   4.582  66.148  1.00  0.00    -0.099 C  
HETATM    6  C   UNL     1      -7.480   3.796  67.089  1.00  0.00    -0.072 C  
HETATM    7  C   UNL     1      -8.748   8.720  66.664  1.00  0.00    -0.138 C  
HETATM    8  C   UNL     1      -9.721   9.175  67.923  1.00  0.00    -0.182 C  
HETATM    9  C   UNL     1      -9.216  10.320  68.865  1.00  0.00    -0.175 C  
HETATM   10  C   UNL     1      -8.651  11.332  67.840  1.00  0.00    -0.134 C  
HETATM   11  C   UNL     1      -7.277  10.815  67.420  1.00  0.00    -0.093 C  
HETATM   12  C   UNL     1      -6.976   2.364  67.099  1.00  0.00    -0.044 C  
HETATM   13  C   UNL     1      -9.335   4.429  66.963  1.00  0.00    -0.170 C  
HETATM   14  C   UNL     1      -7.542   9.726  66.357  1.00  0.00    -0.099 C  
HETATM   15  C   UNL     1      -6.271   9.101  65.780  1.00  0.00    -0.056 C  
HETATM   16  C   UNL     1      -9.509   6.139  66.505  1.00  0.00    -0.178 C  
HETATM   17  C   UNL     1      -5.806   7.846  66.494  1.00  0.00    -0.040 C  
HETATM   18  C   UNL     1      -8.318   7.195  66.894  1.00  0.00    -0.118 C  
HETATM   19  C   UNL     1      -6.863   6.744  66.385  1.00  0.00    -0.061 C  
ENDROOT
BRANCH   3  20
HETATM   20  N   UNL     1      -8.898   4.766  69.663  1.00  0.00    -0.085 N  
HETATM   21  C   UNL     1     -10.300   5.666  69.709  1.00  0.00    -0.282 C  
HETATM   22  C   UNL     1     -11.014   5.532  71.054  1.00  0.00    -0.193 C  
HETATM   23  C   UNL     1      -8.107   5.091  70.894  1.00  0.00    -0.096 C  
HETATM   24  C   UNL     1     -10.072   5.882  72.201  1.00  0.00    -0.210 C  
HETATM   25  C   UNL     1      -9.479   3.291  69.707  1.00  0.00    -0.142 C  
HETATM   26  C   UNL     1      -8.889   4.935  72.177  1.00  0.00    -0.137 C  
ENDBRANCH   3  20
BRANCH   5  27
HETATM   27  O   UNL     1      -8.303   3.236  65.329  1.00  0.00    -0.096 OA 
BRANCH  27  28
HETATM   28  C   UNL     1      -8.644   3.097  64.027  1.00  0.00    -0.089 C  
HETATM   29  C   UNL     1      -7.964   4.183  63.225  1.00  0.00    -0.080 C  
HETATM   30  O   UNL     1      -9.229   2.135  63.558  1.00  0.00    -0.092 OA 
ENDBRANCH  27  28
ENDBRANCH   5  27
BRANCH  10  31
HETATM   31  O   UNL     1      -8.893  12.720  67.957  1.00  0.00    -0.181 OA 
BRANCH  31  32
HETATM   32  C   UNL     1      -9.438  13.525  67.042  1.00  0.00    -0.251 C  
HETATM   33  C   UNL     1      -9.924  12.647  65.927  1.00  0.00    -0.274 C  
HETATM   34  O   UNL     1      -9.495  14.731  67.082  1.00  0.00    -0.214 OA 
ENDBRANCH  31  32
ENDBRANCH  10  31
BRANCH   9  35
HETATM   35  N   UNL     1     -10.116  10.877  69.886  1.00  0.00     0.191 NA 
HETATM   36  C   UNL     1     -12.231  11.881  69.151  1.00  0.00    -0.141 C  
HETATM   37  C   UNL     1     -10.811  12.127  69.642  1.00  0.00     0.246 C  
HETATM   38  C   UNL     1     -13.031  11.122  70.200  1.00  0.00     0.050 C  
HETATM   39  C   UNL     1     -12.303   9.837  70.555  1.00  0.00    -0.173 C  
HETATM   40  C   UNL     1     -10.806  10.021  70.851  1.00  0.00    -0.206 C  
ENDBRANCH   9  35
TORSDOF 6
ENDMDL
MODEL       49
REMARK 921   NORMALIZED FREE ENERGY PREDICTED BY IDOCK:   -2.07 KCAL/MOL
REMARK 922        TOTAL FREE ENERGY PREDICTED BY IDOCK:   -4.47 KCAL/MOL
REMARK 923 INTER-LIGAND FREE ENERGY PREDICTED BY IDOCK:   -5.02 KCAL/MOL
REMARK 924 INTRA-LIGAND FREE ENERGY PREDICTED BY IDOCK:    0.56 KCAL/MOL
REMARK 927      BINDING AFFINITY PREDICTED BY RF-SCORE:    0.00 PKD
ROOT
HETATM    1  C   UNL     1     -10.381  11.179  68.998  1.00  0.00    -0.214 C  
HETATM    2  C   UNL     1      -8.951  11.033  69.224  1.00  0.00     0.083 C  
HETATM    3  C   UNL     1      -9.019  11.233  67.725  1.00  0.00    -0.141 C  
HETATM    4  C   UNL     1     -11.157   6.468  67.034  1.00  0.00    -0.411 C  
HETATM    5  C   UNL     1     -10.998  11.042  67.029  1.00  0.00    -0.272 C  
HETATM    6  C   UNL     1     -10.237  12.073  67.344  1.00  0.00    -0.216 C  
HETATM    7  C   UNL     1     -10.110   7.021  68.051  1.00  0.00    -0.199 C  
HETATM    8  C   UNL     1      -8.639   6.413  67.600  1.00  0.00    -0.115 C  
HETATM    9  C   UNL     1      -7.784   5.677  68.687  1.00  0.00    -0.092 C  
HETATM   10  C   UNL     1      -8.861   4.818  69.392  1.00  0.00    -0.084 C  
HETATM   11  C   UNL     1      -9.614   5.745  70.342  1.00  0.00    -0.210 C  
HETATM   12  C   UNL     1     -10.415  13.577  67.237  1.00  0.00    -0.248 C  
HETATM   13  C   UNL     1      -9.895  10.786  65.900  1.00  0.00    -0.290 C  
HETATM   14  C   UNL     1     -10.639   6.503  69.469  1.00  0.00    -0.293 C  
HETATM   15  C   UNL     1     -11.527   7.470  70.254  1.00  0.00    -0.173 C  
HETATM   16  C   UNL     1     -10.215   9.088  66.324  1.00  0.00    -0.237 C  
HETATM   17  C   UNL     1     -11.003   8.893  70.320  1.00  0.00    -0.266 C  
HETATM   18  C   UNL     1     -10.063   8.613  67.884  1.00  0.00    -0.254 C  
HETATM   19  C   UNL     1     -10.918   9.499  68.916  1.00  0.00    -0.116 C  
ENDROOT
BRANCH   3  20
HETATM   20  N   UNL     1      -7.358  11.005  66.952  1.00  0.00    -0.126 N  
HETATM   21  C   UNL     1      -7.131  10.802  65.313  1.00  0.00     0.120 C  
HETATM   22  C   UNL     1      -5.663  10.541  64.975  1.00  0.00    -0.131 C  
HETATM   23  C   UNL     1      -6.686   9.861  67.651  1.00  0.00    -0.073 C  
HETATM   24  C   UNL     1      -5.128   9.359  65.776  1.00  0.00    -0.035 C  
HETATM   25  C   UNL     1      -6.599  12.375  67.199  1.00  0.00    -0.089 C  
HETATM   26  C   UNL     1      -5.241   9.672  67.255  1.00  0.00    -0.035 C  
ENDBRANCH   3  20
BRANCH   5  27
HETATM   27  O   UNL     1     -11.781  12.043  66.039  1.00  0.00    -0.460 OA 
BRANCH  27  28
HETATM   28  C   UNL     1     -11.836  12.029  64.687  1.00  0.00    -0.268 C  
HETATM   29  C   UNL     1     -11.662  13.440  64.176  1.00  0.00    -0.466 C  
HETATM   30  O   UNL     1     -11.818  11.022  64.000  1.00  0.00     0.409 OA 
ENDBRANCH  27  28
ENDBRANCH   5  27
BRANCH  10  31
HETATM   31  O   UNL     1      -8.622   3.468  69.741  1.00  0.00    -0.058 OA 
BRANCH  31  32
HETATM   32  C   UNL     1      -9.372   2.408  69.429  1.00  0.00    -0.097 C  
HETATM   33  C   UNL     1     -10.067   1.985  70.689  1.00  0.00     0.362 C  
HETATM   34  O   UNL     1      -9.448   1.869  68.351  1.00  0.00    -0.184 OA 
ENDBRANCH  31  32
ENDBRANCH  10  31
BRANCH   9  35
HETATM   35  N   UNL     1      -6.555   4.969  68.296  1.00  0.00    -0.048 NA 
HETATM   36  C   UNL     1      -5.342   3.704  70.013  1.00  0.00    -0.008 C  
HETATM   37  C   UNL     1      -5.401   4.973  69.174  1.00  0.00    -0.004 C  
HETATM   38  C   UNL     1      -5.219   2.480  69.117  1.00  0.00    -0.012 C  
HETATM   39  C   UNL     1      -6.363   2.471  68.117  1.00  0.00    -0.029 C  
HETATM   40  C   UNL     1      -6.586   3.813  67.402  1.00  0.00    -0.042 C  
ENDBRANCH   9  35
TORSDOF 6
ENDMDL
MODEL       50
REMARK 921   NORMALIZED FREE ENERGY PREDICTED BY IDOCK:   -1.76 KCAL/MOL
REMARK 922        TOTAL FREE ENERGY PREDICTED BY IDOCK:   -4.05 KCAL/MOL
REMARK 923 INTER-LIGAND FREE ENERGY PREDICTED BY IDOCK:   -3.19 KCAL/MOL
REMARK 924 INTRA-LIGAND FREE ENERGY PREDICTED BY IDOCK:   -0.86 KCAL/MOL
REMARK 927      BINDING AFFINITY PREDICTED BY RF-SCORE:    0.00 PKD
ROOT
HETATM    1  C   UNL     1      -5.326  17.302  67.597  1.00  0.00    -0.129 C  
HETATM    2  C   UNL     1      -6.071  17.333  66.347  1.00  0.00    -0.241 C  
HETATM    3  C   UNL     1      -6.870  18.279  67.218  1.00  0.00    -0.196 C  
HETATM    4  C   UNL     1      -8.631  14.302  70.189  1.00  0.00     1.601 C  
HETATM    5  C   UNL     1      -6.288  18.116  69.236  1.00  0.00    -0.256 C  
HETATM    6  C   UNL     1      -5.972  18.945  68.260  1.00  0.00    -0.218 C  
HETATM    7  C   UNL     1      -8.290  14.418  68.671  1.00  0.00    -0.147 C  
HETATM    8  C   UNL     1      -9.730  14.433  67.856  1.00  0.00    -0.223 C  
HETATM    9  C   UNL     1      -9.923  13.409  66.686  1.00  0.00    -0.277 C  
HETATM   10  C   UNL     1      -9.327  12.123  67.305  1.00  0.00    -0.183 C  
HETATM   11  C   UNL     1      -7.809  12.243  67.200  1.00  0.00    -0.149 C  
HETATM   12  C   UNL     1      -5.137  20.212  68.191  1.00  0.00    -0.205 C  
HETATM   13  C   UNL     1      -7.759  18.711  69.040  1.00  0.00    -0.202 C  
HETATM   14  C   UNL     1      -7.375  13.138  68.382  1.00  0.00    -0.116 C  
HETATM   15  C   UNL     1      -5.864  13.354  68.473  1.00  0.00    -0.089 C  
HETATM   16  C   UNL     1      -8.216  17.023  69.363  1.00  0.00     0.277 C  
HETATM   17  C   UNL     1      -5.360  14.594  67.757  1.00  0.00    -0.017 C  
HETATM   18  C   UNL     1      -7.574  15.832  68.439  1.00  0.00    -0.130 C  
HETATM   19  C   UNL     1      -5.969  15.855  68.378  1.00  0.00    -0.106 C  
ENDROOT
BRANCH   3  20
HETATM   20  N   UNL     1      -8.417  18.814  66.367  1.00  0.00    -0.297 N  
HETATM   21  C   UNL     1      -9.356  20.089  66.889  1.00  0.00    -0.393 C  
HETATM   22  C   UNL     1     -10.623  20.239  66.047  1.00  0.00    -0.244 C  
HETATM   23  C   UNL     1      -9.306  17.613  66.245  1.00  0.00    -0.197 C  
HETATM   24  C   UNL     1     -11.405  18.931  66.013  1.00  0.00     0.915 C  
HETATM   25  C   UNL     1      -7.943  19.344  64.949  1.00  0.00     1.892 C  
HETATM   26  C   UNL     1     -10.536  17.851  65.400  1.00  0.00     0.164 C  
ENDBRANCH   3  20
BRANCH   5  27
HETATM   27  O   UNL     1      -5.934  19.320  70.246  1.00  0.00    -0.248 OA 
BRANCH  27  28
HETATM   28  C   UNL     1      -5.405  19.255  71.491  1.00  0.00    -0.338 C  
HETATM   29  C   UNL     1      -5.354  20.649  72.073  1.00  0.00    -0.103 C  
HETATM   30  O   UNL     1      -5.202  18.224  72.109  1.00  0.00    -0.640 OA 
ENDBRANCH  27  28
ENDBRANCH   5  27
BRANCH  10  31
HETATM   31  O   UNL     1      -9.962  10.867  67.158  1.00  0.00    -0.181 OA 
BRANCH  31  32
HETATM   32  C   UNL     1     -10.331  10.030  68.132  1.00  0.00    -0.194 C  
HETATM   33  C   UNL     1     -10.773  10.878  69.287  1.00  0.00    -0.271 C  
HETATM   34  O   UNL     1     -10.281   8.824  68.104  1.00  0.00    -0.189 OA 
ENDBRANCH  31  32
ENDBRANCH  10  31
BRANCH   9  35
HETATM   35  N   UNL     1     -11.242  13.265  66.050  1.00  0.00    -0.294 NA 
HETATM   36  C   UNL     1     -11.964  14.989  64.461  1.00  0.00    -0.379 C  
HETATM   37  C   UNL     1     -12.094  14.425  65.869  1.00  0.00    -0.348 C  
HETATM   38  C   UNL     1     -12.392  13.953  63.431  1.00  0.00     0.056 C  
HETATM   39  C   UNL     1     -11.584  12.682  63.631  1.00  0.00    -0.575 C  
HETATM   40  C   UNL     1     -11.518  12.199  65.088  1.00  0.00    -0.323 C  
ENDBRANCH   9  35
TORSDOF 6
ENDMDL
MODEL       51
REMARK 921   NORMALIZED FREE ENERGY PREDICTED BY IDOCK:   -1.53 KCAL/MOL
REMARK 922        TOTAL FREE ENERGY PREDICTED BY IDOCK:   -3.73 KCAL/MOL
REMARK 923 INTER-LIGAND FREE ENERGY PREDICTED BY IDOCK:   -3.03 KCAL/MOL
REMARK 924 INTRA-LIGAND FREE ENERGY PREDICTED BY IDOCK:   -0.70 KCAL/MOL
REMARK 927      BINDING AFFINITY PREDICTED BY RF-SCORE:    0.00 PKD
ROOT
HETATM    1  C   UNL     1     -10.795   7.484  70.519  1.00  0.00    -0.252 C  
HETATM    2  C   UNL     1     -11.193   7.148  69.160  1.00  0.00    -0.005 C  
HETATM    3  C   UNL     1      -9.705   6.868  69.136  1.00  0.00    -0.155 C  
HETATM    4  C   UNL     1      -8.579  12.008  69.392  1.00  0.00     0.982 C  
HETATM    5  C   UNL     1      -8.761   7.670  70.839  1.00  0.00    -0.138 C  
HETATM    6  C   UNL     1      -9.206   6.468  70.523  1.00  0.00    -0.156 C  
HETATM    7  C   UNL     1      -9.738  11.211  68.716  1.00  0.00    -0.194 C  
HETATM    8  C   UNL     1      -9.454  11.241  67.087  1.00  0.00    -0.183 C  
HETATM    9  C   UNL     1     -10.611  11.723  66.148  1.00  0.00    -0.260 C  
HETATM   10  C   UNL     1     -11.144  12.951  66.925  1.00  0.00    -0.278 C  
HETATM   11  C   UNL     1     -12.026  12.414  68.049  1.00  0.00    -0.264 C  
HETATM   12  C   UNL     1      -9.133   5.113  71.203  1.00  0.00    -0.174 C  
HETATM   13  C   UNL     1      -7.770   7.444  69.605  1.00  0.00    -0.107 C  
HETATM   14  C   UNL     1     -11.059  11.987  69.177  1.00  0.00    -0.272 C  
HETATM   15  C   UNL     1     -11.761  11.446  70.423  1.00  0.00    -0.362 C  
HETATM   16  C   UNL     1      -8.088   9.177  69.354  1.00  0.00    -0.102 C  
HETATM   17  C   UNL     1     -11.945   9.940  70.439  1.00  0.00    -0.271 C  
HETATM   18  C   UNL     1      -9.637   9.691  69.210  1.00  0.00    -0.190 C  
HETATM   19  C   UNL     1     -10.586   9.234  70.424  1.00  0.00    -0.298 C  
ENDROOT
BRANCH   3  20
HETATM   20  N   UNL     1      -9.139   6.453  67.429  1.00  0.00    -0.112 N  
HETATM   21  C   UNL     1      -7.861   5.430  67.111  1.00  0.00    -0.101 C  
HETATM   22  C   UNL     1      -7.561   5.350  65.615  1.00  0.00    -0.082 C  
HETATM   23  C   UNL     1      -8.879   7.743  66.711  1.00  0.00    -0.139 C  
HETATM   24  C   UNL     1      -7.335   6.742  65.035  1.00  0.00    -0.082 C  
HETATM   25  C   UNL     1     -10.343   5.650  66.781  1.00  0.00    -0.262 C  
HETATM   26  C   UNL     1      -8.587   7.572  65.239  1.00  0.00    -0.023 C  
ENDBRANCH   3  20
BRANCH   5  27
HETATM   27  O   UNL     1      -7.718   6.924  71.815  1.00  0.00    -0.093 OA 
BRANCH  27  28
HETATM   28  C   UNL     1      -6.427   7.235  72.074  1.00  0.00    -0.043 C  
HETATM   29  C   UNL     1      -6.367   8.063  73.336  1.00  0.00    -0.094 C  
HETATM   30  O   UNL     1      -5.465   6.751  71.501  1.00  0.00    -0.027 OA 
ENDBRANCH  27  28
ENDBRANCH   5  27
BRANCH  10  31
HETATM   31  O   UNL     1     -11.470  14.159  66.268  1.00  0.00    -0.332 OA 
BRANCH  31  32
HETATM   32  C   UNL     1     -11.018  15.383  66.555  1.00  0.00    -0.271 C  
HETATM   33  C   UNL     1     -11.056  15.519  68.048  1.00  0.00    -0.322 C  
HETATM   34  O   UNL     1     -10.680  16.232  65.765  1.00  0.00    -0.318 OA 
ENDBRANCH  31  32
ENDBRANCH  10  31
BRANCH   9  35
HETATM   35  N   UNL     1     -10.351  11.934  64.715  1.00  0.00    -0.270 NA 
HETATM   36  C   UNL     1      -8.302  10.988  63.752  1.00  0.00     0.264 C  
HETATM   37  C   UNL     1      -9.009  12.238  64.255  1.00  0.00     1.088 C  
HETATM   38  C   UNL     1      -9.055  10.391  62.572  1.00  0.00    -0.312 C  
HETATM   39  C   UNL     1     -10.496  10.128  62.976  1.00  0.00     1.314 C  
HETATM   40  C   UNL     1     -11.178  11.309  63.684  1.00  0.00    -0.133 C  
ENDBRANCH   9  35
TORSDOF 6
ENDMDL
MODEL       52
REMARK 921   NORMALIZED FREE ENERGY PREDICTED BY IDOCK:   -1.41 KCAL/MOL
REMARK 922        TOTAL FREE ENERGY PREDICTED BY IDOCK:   -3.57 KCAL/MOL
REMARK 923 INTER-LIGAND FREE ENERGY PREDICTED BY IDOCK:   -5.12 KCAL/MOL
REMARK 924 INTRA-LIGAND FREE ENERGY PREDICTED BY IDOCK:    1.55 KCAL/MOL
REMARK 927      BINDING AFFINITY PREDICTED BY RF-SCORE:    0.00 PKD
ROOT
HETATM    1  C   UNL     1      -8.728   8.361  64.885  1.00  0.00    -0.053 C  
HETATM    2  C   UNL     1      -9.950   8.664  65.615  1.00  0.00     0.391 C  
HETATM    3  C   UNL     1      -9.087   9.870  65.922  1.00  0.00    -0.162 C  
HETATM    4  C   UNL     1      -5.902   7.004  68.986  1.00  0.00    -0.019 C  
HETATM    5  C   UNL     1      -7.087   9.527  65.356  1.00  0.00    -0.095 C  
HETATM    6  C   UNL     1      -8.106  10.138  64.782  1.00  0.00    -0.153 C  
HETATM    7  C   UNL     1      -7.435   6.942  68.702  1.00  0.00    -0.099 C  
HETATM    8  C   UNL     1      -8.196   7.519  70.053  1.00  0.00    -0.130 C  
HETATM    9  C   UNL     1      -9.318   6.637  70.698  1.00  0.00    -0.162 C  
HETATM   10  C   UNL     1      -8.672   5.232  70.641  1.00  0.00    -0.126 C  
HETATM   11  C   UNL     1      -8.837   4.727  69.210  1.00  0.00    -0.123 C  
HETATM   12  C   UNL     1      -8.254  10.958  63.512  1.00  0.00     0.161 C  
HETATM   13  C   UNL     1      -7.252  10.662  66.471  1.00  0.00    -0.134 C  
HETATM   14  C   UNL     1      -7.707   5.395  68.394  1.00  0.00    -0.081 C  
HETATM   15  C   UNL     1      -7.681   4.984  66.922  1.00  0.00    -0.092 C  
HETATM   16  C   UNL     1      -6.848   9.308  67.552  1.00  0.00    -0.077 C  
HETATM   17  C   UNL     1      -8.462   5.901  65.998  1.00  0.00    -0.137 C  
HETATM   18  C   UNL     1      -7.747   7.940  67.490  1.00  0.00    -0.117 C  
HETATM   19  C   UNL     1      -7.869   7.313  66.016  1.00  0.00    -0.106 C  
ENDROOT
BRANCH   3  20
HETATM   20  N   UNL     1      -9.901  10.966  67.163  1.00  0.00    -0.181 N  
HETATM   21  C   UNL     1     -11.430  10.689  67.768  1.00  0.00    -0.137 C  
HETATM   22  C   UNL     1     -11.880  11.811  68.703  1.00  0.00    -0.369 C  
HETATM   23  C   UNL     1      -9.872  12.364  66.622  1.00  0.00    -0.223 C  
HETATM   24  C   UNL     1     -11.777  13.164  68.009  1.00  0.00    -0.394 C  
HETATM   25  C   UNL     1      -9.022  10.824  68.476  1.00  0.00    -0.160 C  
HETATM   26  C   UNL     1     -10.336  13.408  67.610  1.00  0.00    -0.238 C  
ENDBRANCH   3  20
BRANCH   5  27
HETATM   27  O   UNL     1      -6.138  10.506  64.498  1.00  0.00    -0.116 OA 
BRANCH  27  28
HETATM   28  C   UNL     1      -5.448  10.240  63.365  1.00  0.00    -0.139 C  
HETATM   29  C   UNL     1      -5.142   8.760  63.315  1.00  0.00    -0.062 C  
HETATM   30  O   UNL     1      -5.287  11.025  62.446  1.00  0.00    -0.160 OA 
ENDBRANCH  27  28
ENDBRANCH   5  27
BRANCH  10  31
HETATM   31  O   UNL     1      -8.746   4.337  71.734  1.00  0.00    -0.106 OA 
BRANCH  31  32
HETATM   32  C   UNL     1      -7.750   3.618  72.258  1.00  0.00    -0.063 C  
HETATM   33  C   UNL     1      -6.589   4.551  72.436  1.00  0.00    -0.041 C  
HETATM   34  O   UNL     1      -7.765   2.436  72.505  1.00  0.00    -0.050 OA 
ENDBRANCH  31  32
ENDBRANCH  10  31
BRANCH   9  35
HETATM   35  N   UNL     1      -9.898   7.024  71.994  1.00  0.00    -0.160 NA 
HETATM   36  C   UNL     1     -11.137   5.332  73.267  1.00  0.00    -0.376 C  
HETATM   37  C   UNL     1     -11.219   6.557  72.369  1.00  0.00    -0.275 C  
HETATM   38  C   UNL     1     -10.397   5.665  74.555  1.00  0.00    -0.254 C  
HETATM   39  C   UNL     1      -9.032   6.239  74.217  1.00  0.00    -0.153 C  
HETATM   40  C   UNL     1      -9.058   7.342  73.147  1.00  0.00    -0.153 C  
ENDBRANCH   9  35
TORSDOF 6
ENDMDL
MODEL       53
REMARK 921   NORMALIZED FREE ENERGY PREDICTED BY IDOCK:   -1.34 KCAL/MOL
REMARK 922        TOTAL FREE ENERGY PREDICTED BY IDOCK:   -3.48 KCAL/MOL
REMARK 923 INTER-LIGAND FREE ENERGY PREDICTED BY IDOCK:   -3.65 KCAL/MOL
REMARK 924 INTRA-LIGAND FREE ENERGY PREDICTED BY IDOCK:    0.17 KCAL/MOL
REMARK 927      BINDING AFFINITY PREDICTED BY RF-SCORE:    0.00 PKD
ROOT
HETATM    1  C   UNL     1      -6.683   6.879  70.176  1.00  0.00    -0.055 C  
HETATM    2  C   UNL     1      -5.793   7.508  69.211  1.00  0.00    -0.027 C  
HETATM    3  C   UNL     1      -6.679   8.662  69.627  1.00  0.00    -0.039 C  
HETATM    4  C   UNL     1     -10.812   6.604  67.090  1.00  0.00    -0.471 C  
HETATM    5  C   UNL     1      -8.356   7.974  70.701  1.00  0.00    -0.123 C  
HETATM    6  C   UNL     1      -7.185   8.469  71.056  1.00  0.00    -0.071 C  
HETATM    7  C   UNL     1      -9.280   6.602  66.794  1.00  0.00    -0.168 C  
HETATM    8  C   UNL     1      -9.035   7.639  65.529  1.00  0.00     0.042 C  
HETATM    9  C   UNL     1      -8.237   7.111  64.290  1.00  0.00     0.038 C  
HETATM   10  C   UNL     1      -8.853   5.704  64.107  1.00  0.00     0.254 C  
HETATM   11  C   UNL     1      -8.203   4.797  65.148  1.00  0.00    -0.121 C  
HETATM   12  C   UNL     1      -6.576   8.864  72.390  1.00  0.00     0.047 C  
HETATM   13  C   UNL     1      -8.571   9.409  70.029  1.00  0.00    -0.218 C  
HETATM   14  C   UNL     1      -8.953   5.069  66.472  1.00  0.00    -0.116 C  
HETATM   15  C   UNL     1      -8.464   4.220  67.646  1.00  0.00    -0.101 C  
HETATM   16  C   UNL     1      -9.365   8.427  68.776  1.00  0.00    -0.143 C  
HETATM   17  C   UNL     1      -7.385   4.873  68.489  1.00  0.00    -0.066 C  
HETATM   18  C   UNL     1      -8.534   7.199  68.079  1.00  0.00    -0.122 C  
HETATM   19  C   UNL     1      -7.912   6.158  69.134  1.00  0.00    -0.108 C  
ENDROOT
BRANCH   3  20
HETATM   20  N   UNL     1      -6.334  10.162  68.608  1.00  0.00    -0.051 N  
HETATM   21  C   UNL     1      -5.166  11.285  69.000  1.00  0.00    -0.040 C  
HETATM   22  C   UNL     1      -5.171  12.466  68.029  1.00  0.00    -0.073 C  
HETATM   23  C   UNL     1      -7.629  10.895  68.427  1.00  0.00    -0.104 C  
HETATM   24  C   UNL     1      -6.559  13.091  67.948  1.00  0.00    -0.131 C  
HETATM   25  C   UNL     1      -5.774   9.604  67.233  1.00  0.00    -0.044 C  
HETATM   26  C   UNL     1      -7.543  12.048  67.455  1.00  0.00    -0.151 C  
ENDBRANCH   3  20
BRANCH   5  27
HETATM   27  O   UNL     1      -8.915   8.544  72.100  1.00  0.00    -0.207 OA 
BRANCH  27  28
HETATM   28  C   UNL     1      -9.861   8.018  72.913  1.00  0.00    -0.287 C  
HETATM   29  C   UNL     1     -11.069   7.649  72.083  1.00  0.00    -0.314 C  
HETATM   30  O   UNL     1      -9.683   7.705  74.078  1.00  0.00    -0.198 OA 
ENDBRANCH  27  28
ENDBRANCH   5  27
BRANCH  10  31
HETATM   31  O   UNL     1      -9.193   5.204  62.828  1.00  0.00    -0.001 OA 
BRANCH  31  32
HETATM   32  C   UNL     1      -9.900   4.105  62.552  1.00  0.00    -0.139 C  
HETATM   33  C   UNL     1      -8.919   2.975  62.447  1.00  0.00    -0.081 C  
HETATM   34  O   UNL     1     -11.094   4.037  62.382  1.00  0.00    -0.113 OA 
ENDBRANCH  31  32
ENDBRANCH  10  31
BRANCH   9  35
HETATM   35  N   UNL     1      -8.145   7.934  63.074  1.00  0.00    -0.140 NA 
HETATM   36  C   UNL     1      -9.149  10.173  63.105  1.00  0.00    -0.296 C  
HETATM   37  C   UNL     1      -9.281   8.729  62.645  1.00  0.00     0.653 C  
HETATM   38  C   UNL     1      -7.904  10.811  62.505  1.00  0.00    -0.150 C  
HETATM   39  C   UNL     1      -6.689   9.969  62.856  1.00  0.00    -0.127 C  
HETATM   40  C   UNL     1      -6.868   8.465  62.600  1.00  0.00    -0.090 C  
ENDBRANCH   9  35
TORSDOF 6
ENDMDL
MODEL       54
REMARK 921   NORMALIZED FREE ENERGY PREDICTED BY IDOCK:   -1.10 KCAL/MOL
REMARK 922        TOTAL FREE ENERGY PREDICTED BY IDOCK:   -3.15 KCAL/MOL
REMARK 923 INTER-LIGAND FREE ENERGY PREDICTED BY IDOCK:   -3.12 KCAL/MOL
REMARK 924 INTRA-LIGAND FREE ENERGY PREDICTED BY IDOCK:   -0.03 KCAL/MOL
REMARK 927      BINDING AFFINITY PREDICTED BY RF-SCORE:    0.00 PKD
ROOT
HETATM    1  C   UNL     1     -11.742  10.945  67.121  1.00  0.00     0.395 C  
HETATM    2  C   UNL     1     -10.589  11.104  66.247  1.00  0.00    -0.309 C  
HETATM    3  C   UNL     1      -9.974  10.463  67.473  1.00  0.00    -0.181 C  
HETATM    4  C   UNL     1     -10.633  14.861  70.295  1.00  0.00    -0.024 C  
HETATM    5  C   UNL     1     -11.318  10.498  69.094  1.00  0.00    -0.257 C  
HETATM    6  C   UNL     1     -10.996   9.587  68.196  1.00  0.00    -0.144 C  
HETATM    7  C   UNL     1     -10.310  14.608  68.789  1.00  0.00    -0.248 C  
HETATM    8  C   UNL     1      -8.719  15.002  68.568  1.00  0.00    -0.175 C  
HETATM    9  C   UNL     1      -8.363  16.005  67.419  1.00  0.00    -0.167 C  
HETATM   10  C   UNL     1      -9.470  17.072  67.591  1.00  0.00    -0.236 C  
HETATM   11  C   UNL     1     -10.736  16.502  66.957  1.00  0.00    -0.191 C  
HETATM   12  C   UNL     1     -11.371   8.128  68.005  1.00  0.00     0.865 C  
HETATM   13  C   UNL     1      -9.787  10.364  69.535  1.00  0.00    -0.211 C  
HETATM   14  C   UNL     1     -11.344  15.549  68.011  1.00  0.00    -0.332 C  
HETATM   15  C   UNL     1     -12.654  14.895  67.572  1.00  0.00     0.878 C  
HETATM   16  C   UNL     1      -9.957  12.120  69.763  1.00  0.00     1.527 C  
HETATM   17  C   UNL     1     -12.491  13.543  66.903  1.00  0.00    -0.162 C  
HETATM   18  C   UNL     1     -10.478  13.040  68.512  1.00  0.00    -0.261 C  
HETATM   19  C   UNL     1     -11.863  12.538  67.872  1.00  0.00    -0.383 C  
ENDROOT
BRANCH   3  20
HETATM   20  N   UNL     1      -8.136  10.391  67.330  1.00  0.00    -0.114 N  
HETATM   21  C   UNL     1      -7.118  11.516  68.022  1.00  0.00    -0.079 C  
HETATM   22  C   UNL     1      -5.657  11.255  67.656  1.00  0.00    -0.047 C  
HETATM   23  C   UNL     1      -7.797  10.306  65.871  1.00  0.00    -0.139 C  
HETATM   24  C   UNL     1      -5.485  11.184  66.143  1.00  0.00    -0.143 C  
HETATM   25  C   UNL     1      -7.714   9.076  68.110  1.00  0.00    -0.096 C  
HETATM   26  C   UNL     1      -6.333  10.052  65.601  1.00  0.00    -0.094 C  
ENDBRANCH   3  20
BRANCH   5  27
HETATM   27  O   UNL     1     -11.706   9.271  70.063  1.00  0.00    -0.073 OA 
BRANCH  27  28
HETATM   28  C   UNL     1     -11.858   9.266  71.408  1.00  0.00    -0.358 C  
HETATM   29  C   UNL     1     -12.997  10.189  71.774  1.00  0.00    -0.567 C  
HETATM   30  O   UNL     1     -11.307   8.489  72.168  1.00  0.00    -0.328 OA 
ENDBRANCH  27  28
ENDBRANCH   5  27
BRANCH  10  31
HETATM   31  O   UNL     1      -9.185  18.455  67.513  1.00  0.00    -0.269 OA 
BRANCH  31  32
HETATM   32  C   UNL     1      -9.614  19.317  66.587  1.00  0.00    -0.349 C  
HETATM   33  C   UNL     1     -10.384  20.382  67.310  1.00  0.00    -0.331 C  
HETATM   34  O   UNL     1      -9.448  19.237  65.394  1.00  0.00    -0.023 OA 
ENDBRANCH  31  32
ENDBRANCH  10  31
BRANCH   9  35
HETATM   35  N   UNL     1      -6.990  16.519  67.296  1.00  0.00    -0.154 NA 
HETATM   36  C   UNL     1      -6.602  18.474  65.864  1.00  0.00    -0.299 C  
HETATM   37  C   UNL     1      -6.490  16.963  66.008  1.00  0.00     0.486 C  
HETATM   38  C   UNL     1      -5.772  19.173  66.932  1.00  0.00    -0.162 C  
HETATM   39  C   UNL     1      -6.199  18.680  68.304  1.00  0.00    -0.213 C  
HETATM   40  C   UNL     1      -6.303  17.151  68.422  1.00  0.00    -0.156 C  
ENDBRANCH   9  35
TORSDOF 6
ENDMDL
MODEL       55
REMARK 921   NORMALIZED FREE ENERGY PREDICTED BY IDOCK:   -1.06 KCAL/MOL
REMARK 922        TOTAL FREE ENERGY PREDICTED BY IDOCK:   -3.11 KCAL/MOL
REMARK 923 INTER-LIGAND FREE ENERGY PREDICTED BY IDOCK:   -2.46 KCAL/MOL
REMARK 924 INTRA-LIGAND FREE ENERGY PREDICTED BY IDOCK:   -0.65 KCAL/MOL
REMARK 927      BINDING AFFINITY PREDICTED BY RF-SCORE:    0.00 PKD
ROOT
HETATM    1  C   UNL     1      -7.761  12.811  67.954  1.00  0.00    -0.143 C  
HETATM    2  C   UNL     1      -7.237  12.070  66.816  1.00  0.00     0.036 C  
HETATM    3  C   UNL     1      -8.729  11.858  66.675  1.00  0.00    -0.185 C  
HETATM    4  C   UNL     1      -8.834   8.706  70.894  1.00  0.00    -0.221 C  
HETATM    5  C   UNL     1      -9.742  12.451  68.424  1.00  0.00    -0.189 C  
HETATM    6  C   UNL     1      -9.502  13.036  67.266  1.00  0.00    -0.224 C  
HETATM    7  C   UNL     1      -7.769   8.948  69.780  1.00  0.00    -0.078 C  
HETATM    8  C   UNL     1      -7.791   7.616  68.799  1.00  0.00    -0.120 C  
HETATM    9  C   UNL     1      -6.432   6.892  68.513  1.00  0.00    -0.036 C  
HETATM   10  C   UNL     1      -5.790   6.880  69.920  1.00  0.00    -0.023 C  
HETATM   11  C   UNL     1      -5.213   8.274  70.155  1.00  0.00    -0.022 C  
HETATM   12  C   UNL     1      -9.946  14.348  66.645  1.00  0.00    -0.278 C  
HETATM   13  C   UNL     1     -10.559  11.402  67.536  1.00  0.00    -0.252 C  
HETATM   14  C   UNL     1      -6.405   9.156  70.591  1.00  0.00    -0.058 C  
HETATM   15  C   UNL     1      -6.021  10.601  70.910  1.00  0.00    -0.001 C  
HETATM   16  C   UNL     1      -9.868  10.252  68.703  1.00  0.00    -0.180 C  
HETATM   17  C   UNL     1      -6.147  11.559  69.739  1.00  0.00    -0.128 C  
HETATM   18  C   UNL     1      -8.244  10.210  68.917  1.00  0.00    -0.124 C  
HETATM   19  C   UNL     1      -7.601  11.640  69.266  1.00  0.00     0.121 C  
ENDROOT
BRANCH   3  20
HETATM   20  N   UNL     1      -9.101  10.665  65.317  1.00  0.00    -0.187 N  
HETATM   21  C   UNL     1      -8.760   9.036  65.409  1.00  0.00    -0.189 C  
HETATM   22  C   UNL     1      -9.089   8.315  64.102  1.00  0.00     0.887 C  
HETATM   23  C   UNL     1      -8.469  11.193  64.064  1.00  0.00     0.349 C  
HETATM   24  C   UNL     1      -8.382   8.981  62.927  1.00  0.00    -0.202 C  
HETATM   25  C   UNL     1     -10.684  10.641  65.214  1.00  0.00    -0.030 C  
HETATM   26  C   UNL     1      -8.845  10.421  62.822  1.00  0.00    -0.249 C  
ENDBRANCH   3  20
BRANCH   5  27
HETATM   27  O   UNL     1     -11.048  13.389  68.521  1.00  0.00    -0.246 OA 
BRANCH  27  28
HETATM   28  C   UNL     1     -12.136  13.249  69.314  1.00  0.00    -0.242 C  
HETATM   29  C   UNL     1     -12.448  14.581  69.955  1.00  0.00    -0.348 C  
HETATM   30  O   UNL     1     -12.859  12.268  69.336  1.00  0.00     0.584 OA 
ENDBRANCH  27  28
ENDBRANCH   5  27
BRANCH  10  31
HETATM   31  O   UNL     1      -5.133   5.734  70.426  1.00  0.00    -0.008 OA 
BRANCH  31  32
HETATM   32  C   UNL     1      -5.690   4.697  71.058  1.00  0.00    -0.016 C  
HETATM   33  C   UNL     1      -6.774   5.253  71.931  1.00  0.00    -0.056 C  
HETATM   34  O   UNL     1      -5.360   3.538  70.973  1.00  0.00    -0.004 OA 
ENDBRANCH  31  32
ENDBRANCH  10  31
BRANCH   9  35
HETATM   35  N   UNL     1      -6.425   5.608  67.794  1.00  0.00    -0.046 NA 
HETATM   36  C   UNL     1      -8.569   4.686  67.035  1.00  0.00    -0.104 C  
HETATM   37  C   UNL     1      -7.448   4.616  68.063  1.00  0.00    -0.073 C  
HETATM   38  C   UNL     1      -8.028   4.404  65.641  1.00  0.00    -0.095 C  
HETATM   39  C   UNL     1      -6.892   5.366  65.338  1.00  0.00    -0.060 C  
HETATM   40  C   UNL     1      -5.845   5.480  66.457  1.00  0.00    -0.018 C  
ENDBRANCH   9  35
TORSDOF 6
ENDMDL
MODEL       56
REMARK 921   NORMALIZED FREE ENERGY PREDICTED BY IDOCK:   -0.77 KCAL/MOL
REMARK 922        TOTAL FREE ENERGY PREDICTED BY IDOCK:   -2.71 KCAL/MOL
REMARK 923 INTER-LIGAND FREE ENERGY PREDICTED BY IDOCK:   -3.09 KCAL/MOL
REMARK 924 INTRA-LIGAND FREE ENERGY PREDICTED BY IDOCK:    0.38 KCAL/MOL
REMARK 927      BINDING AFFINITY PREDICTED BY RF-SCORE:    0.00 PKD
ROOT
HETATM    1  C   UNL     1      -6.689   9.437  71.072  1.00  0.00    -0.078 C  
HETATM    2  C   UNL     1      -8.107   9.743  70.952  1.00  0.00     0.377 C  
HETATM    3  C   UNL     1      -7.924   8.667  69.904  1.00  0.00    -0.105 C  
HETATM    4  C   UNL     1      -5.180  11.930  66.811  1.00  0.00    -0.040 C  
HETATM    5  C   UNL     1      -5.880   8.318  69.533  1.00  0.00    -0.030 C  
HETATM    6  C   UNL     1      -6.784   7.724  70.288  1.00  0.00    -0.038 C  
HETATM    7  C   UNL     1      -6.375  12.154  67.789  1.00  0.00    -0.092 C  
HETATM    8  C   UNL     1      -7.716  12.414  66.854  1.00  0.00     0.016 C  
HETATM    9  C   UNL     1      -8.574  13.693  67.141  1.00  0.00    -0.192 C  
HETATM   10  C   UNL     1      -7.473  14.762  67.336  1.00  0.00    -0.194 C  
HETATM   11  C   UNL     1      -6.927  14.582  68.750  1.00  0.00    -0.104 C  
HETATM   12  C   UNL     1      -6.777   6.464  71.135  1.00  0.00    -0.058 C  
HETATM   13  C   UNL     1      -6.834   7.871  68.330  1.00  0.00    -0.071 C  
HETATM   14  C   UNL     1      -5.923  13.411  68.669  1.00  0.00    -0.084 C  
HETATM   15  C   UNL     1      -5.234  13.094  69.997  1.00  0.00    -0.093 C  
HETATM   16  C   UNL     1      -6.356   9.460  67.690  1.00  0.00    -0.058 C  
HETATM   17  C   UNL     1      -5.927  12.029  70.828  1.00  0.00     0.136 C  
HETATM   18  C   UNL     1      -6.596  10.796  68.608  1.00  0.00    -0.056 C  
HETATM   19  C   UNL     1      -5.952  10.695  70.076  1.00  0.00    -0.087 C  
ENDROOT
BRANCH   3  20
HETATM   20  N   UNL     1      -9.466   8.436  68.917  1.00  0.00    -0.147 N  
HETATM   21  C   UNL     1      -9.636   7.264  67.744  1.00  0.00    -0.138 C  
HETATM   22  C   UNL     1     -10.983   7.373  67.028  1.00  0.00    -0.172 C  
HETATM   23  C   UNL     1      -9.808   9.757  68.295  1.00  0.00    -0.148 C  
HETATM   24  C   UNL     1     -11.182   8.776  66.467  1.00  0.00     1.646 C  
HETATM   25  C   UNL     1     -10.562   7.978  69.968  1.00  0.00    -0.242 C  
HETATM   26  C   UNL     1     -11.153   9.774  67.607  1.00  0.00    -0.118 C  
ENDBRANCH   3  20
BRANCH   5  27
HETATM   27  O   UNL     1      -5.132   6.892  69.472  1.00  0.00    -0.013 OA 
BRANCH  27  28
HETATM   28  C   UNL     1      -5.192   5.943  68.509  1.00  0.00    -0.003 C  
HETATM   29  C   UNL     1      -5.285   4.586  69.165  1.00  0.00    -0.004 C  
HETATM   30  O   UNL     1      -5.355   6.166  67.321  1.00  0.00    -0.005 OA 
ENDBRANCH  27  28
ENDBRANCH   5  27
BRANCH  10  31
HETATM   31  O   UNL     1      -7.582  16.051  66.764  1.00  0.00    -0.230 OA 
BRANCH  31  32
HETATM   32  C   UNL     1      -8.026  17.162  67.356  1.00  0.00    -0.180 C  
HETATM   33  C   UNL     1      -7.638  18.309  66.471  1.00  0.00    -0.271 C  
HETATM   34  O   UNL     1      -8.597  17.237  68.418  1.00  0.00    -0.236 OA 
ENDBRANCH  31  32
ENDBRANCH  10  31
BRANCH   9  35
HETATM   35  N   UNL     1      -9.668  14.058  66.228  1.00  0.00    -0.297 NA 
HETATM   36  C   UNL     1     -10.931  12.255  65.143  1.00  0.00    -0.344 C  
HETATM   37  C   UNL     1      -9.860  13.326  64.990  1.00  0.00    -0.040 C  
HETATM   38  C   UNL     1     -12.268  12.888  65.501  1.00  0.00    -0.527 C  
HETATM   39  C   UNL     1     -12.105  13.738  66.750  1.00  0.00    -0.460 C  
HETATM   40  C   UNL     1     -10.896  14.686  66.714  1.00  0.00    -0.312 C  
ENDBRANCH   9  35
TORSDOF 6
ENDMDL
MODEL       57
REMARK 921   NORMALIZED FREE ENERGY PREDICTED BY IDOCK:   -0.73 KCAL/MOL
REMARK 922        TOTAL FREE ENERGY PREDICTED BY IDOCK:   -2.65 KCAL/MOL
REMARK 923 INTER-LIGAND FREE ENERGY PREDICTED BY IDOCK:   -3.04 KCAL/MOL
REMARK 924 INTRA-LIGAND FREE ENERGY PREDICTED BY IDOCK:    0.39 KCAL/MOL
REMARK 927      BINDING AFFINITY PREDICTED BY RF-SCORE:    0.00 PKD
ROOT
HETATM    1  C   UNL     1      -8.603  10.969  65.866  1.00  0.00    -0.165 C  
HETATM    2  C   UNL     1      -9.841  10.277  66.193  1.00  0.00    -0.284 C  
HETATM    3  C   UNL     1      -9.619  11.131  67.423  1.00  0.00    -0.168 C  
HETATM    4  C   UNL     1      -5.529   8.171  68.927  1.00  0.00    -0.031 C  
HETATM    5  C   UNL     1      -7.671  11.933  67.440  1.00  0.00    -0.158 C  
HETATM    6  C   UNL     1      -8.847  12.402  67.069  1.00  0.00    -0.210 C  
HETATM    7  C   UNL     1      -6.866   7.836  68.194  1.00  0.00    -0.068 C  
HETATM    8  C   UNL     1      -7.825   7.045  69.286  1.00  0.00    -0.114 C  
HETATM    9  C   UNL     1      -8.438   5.668  68.863  1.00  0.00    -0.102 C  
HETATM   10  C   UNL     1      -7.228   4.994  68.174  1.00  0.00    -0.063 C  
HETATM   11  C   UNL     1      -7.127   5.592  66.773  1.00  0.00    -0.070 C  
HETATM   12  C   UNL     1      -9.330  13.761  66.595  1.00  0.00    -0.277 C  
HETATM   13  C   UNL     1      -8.345  11.858  68.888  1.00  0.00     0.111 C  
HETATM   14  C   UNL     1      -6.408   6.948  66.944  1.00  0.00    -0.045 C  
HETATM   15  C   UNL     1      -6.177   7.697  65.631  1.00  0.00    -0.038 C  
HETATM   16  C   UNL     1      -7.390  10.360  68.981  1.00  0.00    -0.097 C  
HETATM   17  C   UNL     1      -7.274   8.682  65.267  1.00  0.00    -0.083 C  
HETATM   18  C   UNL     1      -7.576   9.221  67.819  1.00  0.00    -0.084 C  
HETATM   19  C   UNL     1      -7.380   9.782  66.326  1.00  0.00    -0.099 C  
ENDROOT
BRANCH   3  20
HETATM   20  N   UNL     1     -10.857  10.739  68.733  1.00  0.00    -0.204 N  
HETATM   21  C   UNL     1     -11.999  11.828  69.270  1.00  0.00    -0.291 C  
HETATM   22  C   UNL     1     -12.824  11.258  70.424  1.00  0.00    -0.114 C  
HETATM   23  C   UNL     1     -10.107  10.237  69.930  1.00  0.00    -0.171 C  
HETATM   24  C   UNL     1     -11.915  10.782  71.551  1.00  0.00    -0.061 C  
HETATM   25  C   UNL     1     -11.780   9.614  68.102  1.00  0.00     1.155 C  
HETATM   26  C   UNL     1     -10.999   9.696  71.023  1.00  0.00    -0.431 C  
ENDBRANCH   3  20
BRANCH   5  27
HETATM   27  O   UNL     1      -7.251  13.464  67.712  1.00  0.00    -0.121 OA 
BRANCH  27  28
HETATM   28  C   UNL     1      -6.024  13.976  67.964  1.00  0.00    -0.143 C  
HETATM   29  C   UNL     1      -5.972  15.397  67.452  1.00  0.00     0.032 C  
HETATM   30  O   UNL     1      -5.181  13.449  68.670  1.00  0.00    -0.066 OA 
ENDBRANCH  27  28
ENDBRANCH   5  27
BRANCH  10  31
HETATM   31  O   UNL     1      -6.907   3.635  68.402  1.00  0.00    -0.045 OA 
BRANCH  31  32
HETATM   32  C   UNL     1      -7.218   2.591  67.629  1.00  0.00    -0.052 C  
HETATM   33  C   UNL     1      -8.542   2.900  66.996  1.00  0.00    -0.115 C  
HETATM   34  O   UNL     1      -6.577   1.576  67.494  1.00  0.00    -0.027 OA 
ENDBRANCH  31  32
ENDBRANCH  10  31
BRANCH   9  35
HETATM   35  N   UNL     1      -9.150   4.848  69.856  1.00  0.00    -0.111 NA 
HETATM   36  C   UNL     1      -9.113   5.568  72.201  1.00  0.00    -0.152 C  
HETATM   37  C   UNL     1      -8.559   4.607  71.159  1.00  0.00    -0.112 C  
HETATM   38  C   UNL     1     -10.616   5.383  72.349  1.00  0.00    -0.276 C  
HETATM   39  C   UNL     1     -11.279   5.544  70.992  1.00  0.00    -0.011 C  
HETATM   40  C   UNL     1     -10.608   4.745  69.863  1.00  0.00     0.325 C  
ENDBRANCH   9  35
TORSDOF 6
ENDMDL
MODEL       58
REMARK 921   NORMALIZED FREE ENERGY PREDICTED BY IDOCK:   -0.59 KCAL/MOL
REMARK 922        TOTAL FREE ENERGY PREDICTED BY IDOCK:   -2.47 KCAL/MOL
REMARK 923 INTER-LIGAND FREE ENERGY PREDICTED BY IDOCK:   -3.39 KCAL/MOL
REMARK 924 INTRA-LIGAND FREE ENERGY PREDICTED BY IDOCK:    0.92 KCAL/MOL
REMARK 927      BINDING AFFINITY PREDICTED BY RF-SCORE:    0.00 PKD
ROOT
HETATM    1  C   UNL     1      -8.475   9.689  69.370  1.00  0.00    -0.156 C  
HETATM    2  C   UNL     1      -9.049  10.577  70.369  1.00  0.00     1.148 C  
HETATM    3  C   UNL     1     -10.278  10.093  69.630  1.00  0.00    -0.242 C  
HETATM    4  C   UNL     1      -8.997  12.890  65.354  1.00  0.00     0.925 C  
HETATM    5  C   UNL     1      -9.744   9.120  67.839  1.00  0.00    -0.154 C  
HETATM    6  C   UNL     1     -10.048   8.698  69.052  1.00  0.00    -0.207 C  
HETATM    7  C   UNL     1      -8.809  13.146  66.882  1.00  0.00    -0.184 C  
HETATM    8  C   UNL     1      -9.897  14.318  67.308  1.00  0.00    -0.244 C  
HETATM    9  C   UNL     1      -9.361  15.575  68.073  1.00  0.00    -0.193 C  
HETATM   10  C   UNL     1      -8.068  15.885  67.281  1.00  0.00    -0.184 C  
HETATM   11  C   UNL     1      -7.005  14.903  67.767  1.00  0.00    -0.193 C  
HETATM   12  C   UNL     1     -10.254   7.321  69.659  1.00  0.00    -0.214 C  
HETATM   13  C   UNL     1     -11.242   9.681  67.841  1.00  0.00     0.033 C  
HETATM   14  C   UNL     1      -7.275  13.582  67.013  1.00  0.00     0.397 C  
HETATM   15  C   UNL     1      -6.282  12.467  67.342  1.00  0.00    -0.158 C  
HETATM   16  C   UNL     1     -10.474  11.028  66.969  1.00  0.00    -0.284 C  
HETATM   17  C   UNL     1      -6.717  11.547  68.468  1.00  0.00    -0.067 C  
HETATM   18  C   UNL     1      -9.201  11.799  67.654  1.00  0.00    -0.180 C  
HETATM   19  C   UNL     1      -8.009  10.816  68.093  1.00  0.00    -0.114 C  
ENDROOT
BRANCH   3  20
HETATM   20  N   UNL     1     -11.790  10.979  70.209  1.00  0.00    -0.339 N  
HETATM   21  C   UNL     1     -11.910  12.641  70.271  1.00  0.00    -0.214 C  
HETATM   22  C   UNL     1     -13.238  13.089  70.881  1.00  0.00     0.113 C  
HETATM   23  C   UNL     1     -12.136  10.446  71.567  1.00  0.00    -0.270 C  
HETATM   24  C   UNL     1     -13.445  12.450  72.249  1.00  0.00    -0.428 C  
HETATM   25  C   UNL     1     -12.906  10.632  69.137  1.00  0.00     1.168 C  
HETATM   26  C   UNL     1     -13.462  10.942  72.094  1.00  0.00    -0.205 C  
ENDBRANCH   3  20
BRANCH   5  27
HETATM   27  O   UNL     1     -10.277   7.695  67.311  1.00  0.00    -0.216 OA 
BRANCH  27  28
HETATM   28  C   UNL     1      -9.680   6.829  66.459  1.00  0.00    -0.125 C  
HETATM   29  C   UNL     1     -10.493   5.555  66.407  1.00  0.00    -0.294 C  
HETATM   30  O   UNL     1      -8.763   7.112  65.707  1.00  0.00    -0.154 OA 
ENDBRANCH  27  28
ENDBRANCH   5  27
BRANCH  10  31
HETATM   31  O   UNL     1      -7.717  17.208  66.924  1.00  0.00    -0.185 OA 
BRANCH  31  32
HETATM   32  C   UNL     1      -6.487  17.720  66.832  1.00  0.00    -0.170 C  
HETATM   33  C   UNL     1      -6.341  18.245  65.434  1.00  0.00    -0.233 C  
HETATM   34  O   UNL     1      -5.640  17.727  67.693  1.00  0.00    -0.132 OA 
ENDBRANCH  31  32
ENDBRANCH  10  31
BRANCH   9  35
HETATM   35  N   UNL     1     -10.254  16.719  68.317  1.00  0.00    -0.279 NA 
HETATM   36  C   UNL     1      -9.247  18.878  68.903  1.00  0.00    -0.307 C  
HETATM   37  C   UNL     1      -9.978  17.640  69.403  1.00  0.00     0.010 C  
HETATM   38  C   UNL     1     -10.100  19.625  67.888  1.00  0.00    -0.543 C  
HETATM   39  C   UNL     1     -10.489  18.679  66.764  1.00  0.00    -0.454 C  
HETATM   40  C   UNL     1     -11.037  17.325  67.241  1.00  0.00     0.136 C  
ENDBRANCH   9  35
TORSDOF 6
ENDMDL
MODEL       59
REMARK 921   NORMALIZED FREE ENERGY PREDICTED BY IDOCK:   -0.47 KCAL/MOL
REMARK 922        TOTAL FREE ENERGY PREDICTED BY IDOCK:   -2.30 KCAL/MOL
REMARK 923 INTER-LIGAND FREE ENERGY PREDICTED BY IDOCK:   -3.19 KCAL/MOL
REMARK 924 INTRA-LIGAND FREE ENERGY PREDICTED BY IDOCK:    0.89 KCAL/MOL
REMARK 927      BINDING AFFINITY PREDICTED BY RF-SCORE:    0.00 PKD
ROOT
HETATM    1  C   UNL     1     -10.346   4.922  70.374  1.00  0.00    -0.248 C  
HETATM    2  C   UNL     1     -10.431   5.385  68.997  1.00  0.00    -0.252 C  
HETATM    3  C   UNL     1      -8.935   5.299  69.212  1.00  0.00    -0.103 C  
HETATM    4  C   UNL     1      -9.010   9.457  72.446  1.00  0.00     1.665 C  
HETATM    5  C   UNL     1      -8.482   5.069  71.257  1.00  0.00    -0.121 C  
HETATM    6  C   UNL     1      -8.597   4.227  70.247  1.00  0.00    -0.102 C  
HETATM    7  C   UNL     1      -9.840   9.088  71.178  1.00  0.00    -0.371 C  
HETATM    8  C   UNL     1      -9.304  10.064  69.954  1.00  0.00    -0.207 C  
HETATM    9  C   UNL     1     -10.368  10.891  69.154  1.00  0.00    -0.208 C  
HETATM   10  C   UNL     1     -11.275  11.407  70.297  1.00  0.00     0.123 C  
HETATM   11  C   UNL     1     -12.192  10.252  70.689  1.00  0.00    -0.422 C  
HETATM   12  C   UNL     1      -8.345   2.738  70.092  1.00  0.00    -0.077 C  
HETATM   13  C   UNL     1      -7.276   5.673  70.398  1.00  0.00    -0.071 C  
HETATM   14  C   UNL     1     -11.356   9.346  71.621  1.00  0.00    -0.452 C  
HETATM   15  C   UNL     1     -12.120   8.134  72.156  1.00  0.00    -0.408 C  
HETATM   16  C   UNL     1      -7.917   7.204  71.036  1.00  0.00    -0.103 C  
HETATM   17  C   UNL     1     -11.972   6.877  71.319  1.00  0.00    -0.402 C  
HETATM   18  C   UNL     1      -9.495   7.572  70.793  1.00  0.00    -0.163 C  
HETATM   19  C   UNL     1     -10.509   6.426  71.283  1.00  0.00    -0.258 C  
ENDROOT
BRANCH   3  20
HETATM   20  N   UNL     1      -8.018   5.979  67.762  1.00  0.00    -0.105 N  
HETATM   21  C   UNL     1      -8.309   5.505  66.191  1.00  0.00    -0.119 C  
HETATM   22  C   UNL     1      -7.335   6.163  65.213  1.00  0.00    -0.073 C  
HETATM   23  C   UNL     1      -6.554   5.802  68.028  1.00  0.00    -0.052 C  
HETATM   24  C   UNL     1      -5.893   5.902  65.631  1.00  0.00    -0.024 C  
HETATM   25  C   UNL     1      -8.426   7.511  67.700  1.00  0.00    -0.117 C  
HETATM   26  C   UNL     1      -5.665   6.481  67.013  1.00  0.00    -0.013 C  
ENDBRANCH   3  20
BRANCH   5  27
HETATM   27  O   UNL     1      -7.478   3.995  71.915  1.00  0.00    -0.057 OA 
BRANCH  27  28
HETATM   28  C   UNL     1      -7.167   3.813  73.220  1.00  0.00    -0.059 C  
HETATM   29  C   UNL     1      -6.636   5.112  73.782  1.00  0.00    -0.073 C  
HETATM   30  O   UNL     1      -7.462   2.829  73.876  1.00  0.00    -0.044 OA 
ENDBRANCH  27  28
ENDBRANCH   5  27
BRANCH  10  31
HETATM   31  O   UNL     1     -11.743  12.741  70.326  1.00  0.00    -0.246 OA 
BRANCH  31  32
HETATM   32  C   UNL     1     -12.851  13.195  70.918  1.00  0.00    -0.159 C  
HETATM   33  C   UNL     1     -12.458  13.623  72.301  1.00  0.00     0.003 C  
HETATM   34  O   UNL     1     -13.963  13.222  70.447  1.00  0.00     1.540 OA 
ENDBRANCH  31  32
ENDBRANCH  10  31
BRANCH   9  35
HETATM   35  N   UNL     1      -9.927  11.900  68.179  1.00  0.00    -0.192 NA 
HETATM   36  C   UNL     1     -11.594  12.846  66.647  1.00  0.00    -0.428 C  
HETATM   37  C   UNL     1     -10.436  11.873  66.821  1.00  0.00    -0.221 C  
HETATM   38  C   UNL     1     -11.137  14.271  66.926  1.00  0.00    -0.315 C  
HETATM   39  C   UNL     1     -10.517  14.338  68.311  1.00  0.00    -0.247 C  
HETATM   40  C   UNL     1      -9.490  13.231  68.597  1.00  0.00    -0.016 C  
ENDBRANCH   9  35
TORSDOF 6
ENDMDL
MODEL       60
REMARK 921   NORMALIZED FREE ENERGY PREDICTED BY IDOCK:   -0.38 KCAL/MOL
REMARK 922        TOTAL FREE ENERGY PREDICTED BY IDOCK:   -2.18 KCAL/MOL
REMARK 923 INTER-LIGAND FREE ENERGY PREDICTED BY IDOCK:   -2.13 KCAL/MOL
REMARK 924 INTRA-LIGAND FREE ENERGY PREDICTED BY IDOCK:   -0.04 KCAL/MOL
REMARK 927      BINDING AFFINITY PREDICTED BY RF-SCORE:    0.00 PKD
ROOT
HETATM    1  C   UNL     1      -8.915  10.991  68.801  1.00  0.00    -0.153 C  
HETATM    2  C   UNL     1     -10.018  11.888  68.494  1.00  0.00    -0.196 C  
HETATM    3  C   UNL     1      -9.652  11.353  67.126  1.00  0.00    -0.179 C  
HETATM    4  C   UNL     1      -5.143  14.077  67.101  1.00  0.00     0.850 C  
HETATM    5  C   UNL     1      -7.800  10.351  67.182  1.00  0.00    -0.110 C  
HETATM    6  C   UNL     1      -9.056   9.951  67.234  1.00  0.00    -0.149 C  
HETATM    7  C   UNL     1      -6.556  14.376  67.690  1.00  0.00    -0.172 C  
HETATM    8  C   UNL     1      -7.244  15.528  66.723  1.00  0.00     0.196 C  
HETATM    9  C   UNL     1      -7.813  16.818  67.407  1.00  0.00    -0.171 C  
HETATM   10  C   UNL     1      -6.693  17.142  68.424  1.00  0.00    -0.170 C  
HETATM   11  C   UNL     1      -6.886  16.201  69.610  1.00  0.00    -0.139 C  
HETATM   12  C   UNL     1      -9.719   8.585  67.246  1.00  0.00    -0.239 C  
HETATM   13  C   UNL     1      -8.202  10.872  65.724  1.00  0.00    -0.113 C  
HETATM   14  C   UNL     1      -6.256  14.855  69.187  1.00  0.00    -0.105 C  
HETATM   15  C   UNL     1      -6.319  13.775  70.268  1.00  0.00    -0.035 C  
HETATM   16  C   UNL     1      -7.131  12.217  66.182  1.00  0.00     1.111 C  
HETATM   17  C   UNL     1      -7.535  12.872  70.186  1.00  0.00     1.937 C  
HETATM   18  C   UNL     1      -7.428  13.038  67.567  1.00  0.00    -0.158 C  
HETATM   19  C   UNL     1      -7.541  12.098  68.865  1.00  0.00     0.003 C  
ENDROOT
BRANCH   3  20
HETATM   20  N   UNL     1     -10.607  12.214  65.802  1.00  0.00    -0.252 N  
HETATM   21  C   UNL     1     -10.009  13.504  64.932  1.00  0.00    -0.147 C  
HETATM   22  C   UNL     1     -11.055  14.072  63.973  1.00  0.00     0.115 C  
HETATM   23  C   UNL     1     -11.922  12.630  66.390  1.00  0.00    -0.357 C  
HETATM   24  C   UNL     1     -12.333  14.432  64.722  1.00  0.00    -0.427 C  
HETATM   25  C   UNL     1     -10.790  11.131  64.658  1.00  0.00    -0.225 C  
HETATM   26  C   UNL     1     -12.894  13.183  65.374  1.00  0.00    -0.275 C  
ENDBRANCH   3  20
BRANCH   5  27
HETATM   27  O   UNL     1      -7.461   8.899  66.571  1.00  0.00    -0.087 OA 
BRANCH  27  28
HETATM   28  C   UNL     1      -6.286   8.438  66.082  1.00  0.00    -0.050 C  
HETATM   29  C   UNL     1      -6.563   7.604  64.853  1.00  0.00    -0.047 C  
HETATM   30  O   UNL     1      -5.185   8.807  66.452  1.00  0.00    -0.030 OA 
ENDBRANCH  27  28
ENDBRANCH   5  27
BRANCH  10  31
HETATM   31  O   UNL     1      -6.231  18.465  68.621  1.00  0.00    -0.197 OA 
BRANCH  31  32
HETATM   32  C   UNL     1      -5.710  18.980  69.738  1.00  0.00    -0.231 C  
HETATM   33  C   UNL     1      -5.657  20.466  69.544  1.00  0.00    -0.358 C  
HETATM   34  O   UNL     1      -5.321  18.368  70.703  1.00  0.00    -0.240 OA 
ENDBRANCH  31  32
ENDBRANCH  10  31
BRANCH   9  35
HETATM   35  N   UNL     1      -8.273  17.943  66.578  1.00  0.00    -0.261 NA 
HETATM   36  C   UNL     1      -9.036  19.984  67.706  1.00  0.00    -0.416 C  
HETATM   37  C   UNL     1      -9.438  18.711  66.974  1.00  0.00    -0.298 C  
HETATM   38  C   UNL     1      -8.198  20.876  66.800  1.00  0.00     0.063 C  
HETATM   39  C   UNL     1      -7.003  20.091  66.288  1.00  0.00    -0.267 C  
HETATM   40  C   UNL     1      -7.351  18.701  65.733  1.00  0.00    -0.156 C  
ENDBRANCH   9  35
TORSDOF 6
ENDMDL
MODEL       61
REMARK 921   NORMALIZED FREE ENERGY PREDICTED BY IDOCK:   -0.25 KCAL/MOL
REMARK 922        TOTAL FREE ENERGY PREDICTED BY IDOCK:   -2.01 KCAL/MOL
REMARK 923 INTER-LIGAND FREE ENERGY PREDICTED BY IDOCK:   -4.83 KCAL/MOL
REMARK 924 INTRA-LIGAND FREE ENERGY PREDICTED BY IDOCK:    2.82 KCAL/MOL
REMARK 927      BINDING AFFINITY PREDICTED BY RF-SCORE:    0.00 PKD
ROOT
HETATM    1  C   UNL     1      -6.062   6.455  70.218  1.00  0.00    -0.034 C  
HETATM    2  C   UNL     1      -6.494   7.693  70.849  1.00  0.00    -0.038 C  
HETATM    3  C   UNL     1      -7.710   6.806  71.019  1.00  0.00    -0.097 C  
HETATM    4  C   UNL     1      -8.776   7.023  65.865  1.00  0.00    -0.140 C  
HETATM    5  C   UNL     1      -7.553   5.079  69.823  1.00  0.00    -0.060 C  
HETATM    6  C   UNL     1      -7.302   5.336  71.093  1.00  0.00    -0.082 C  
HETATM    7  C   UNL     1      -8.170   8.056  66.864  1.00  0.00    -0.115 C  
HETATM    8  C   UNL     1      -9.336   9.196  67.142  1.00  0.00    -0.178 C  
HETATM    9  C   UNL     1      -8.953  10.702  66.945  1.00  0.00    -0.137 C  
HETATM   10  C   UNL     1      -8.143  10.642  65.629  1.00  0.00    -0.146 C  
HETATM   11  C   UNL     1      -6.748  10.140  65.991  1.00  0.00    -0.106 C  
HETATM   12  C   UNL     1      -6.896   4.473  72.275  1.00  0.00    -0.051 C  
HETATM   13  C   UNL     1      -9.058   5.449  70.220  1.00  0.00    -0.166 C  
HETATM   14  C   UNL     1      -6.869   8.604  66.110  1.00  0.00    -0.073 C  
HETATM   15  C   UNL     1      -5.551   7.902  66.438  1.00  0.00    -0.032 C  
HETATM   16  C   UNL     1      -9.039   6.188  68.602  1.00  0.00    -0.125 C  
HETATM   17  C   UNL     1      -5.306   7.682  67.920  1.00  0.00    -0.031 C  
HETATM   18  C   UNL     1      -7.883   7.292  68.242  1.00  0.00    -0.122 C  
HETATM   19  C   UNL     1      -6.387   6.773  68.513  1.00  0.00    -0.031 C  
ENDROOT
BRANCH   3  20
HETATM   20  N   UNL     1      -9.126   7.754  71.727  1.00  0.00    -0.132 N  
HETATM   21  C   UNL     1     -10.493   7.030  72.350  1.00  0.00    -0.209 C  
HETATM   22  C   UNL     1     -11.535   8.065  72.775  1.00  0.00    -0.420 C  
HETATM   23  C   UNL     1      -9.567   8.749  70.695  1.00  0.00    -0.199 C  
HETATM   24  C   UNL     1     -11.863   9.005  71.621  1.00  0.00    -0.431 C  
HETATM   25  C   UNL     1      -8.540   8.465  73.018  1.00  0.00    -0.147 C  
HETATM   26  C   UNL     1     -10.600   9.729  71.198  1.00  0.00    -0.215 C  
ENDBRANCH   3  20
BRANCH   5  27
HETATM   27  O   UNL     1      -7.806   3.555  70.279  1.00  0.00    -0.047 OA 
BRANCH  27  28
HETATM   28  C   UNL     1      -8.843   3.039  70.980  1.00  0.00    -0.084 C  
HETATM   29  C   UNL     1     -10.124   3.682  70.503  1.00  0.00     0.228 C  
HETATM   30  O   UNL     1      -8.771   2.073  71.720  1.00  0.00    -0.058 OA 
ENDBRANCH  27  28
ENDBRANCH   5  27
BRANCH  10  31
HETATM   31  O   UNL     1      -8.320  11.601  64.604  1.00  0.00     0.689 OA 
BRANCH  31  32
HETATM   32  C   UNL     1      -9.468  11.958  64.022  1.00  0.00     0.047 C  
HETATM   33  C   UNL     1     -10.086  10.705  63.479  1.00  0.00    -0.288 C  
HETATM   34  O   UNL     1      -9.907  13.078  63.918  1.00  0.00    -0.220 OA 
ENDBRANCH  31  32
ENDBRANCH  10  31
BRANCH   9  35
HETATM   35  N   UNL     1      -9.998  11.736  67.009  1.00  0.00    -0.203 NA 
HETATM   36  C   UNL     1     -11.706  11.561  68.762  1.00  0.00    -0.397 C  
HETATM   37  C   UNL     1     -11.372  11.368  67.289  1.00  0.00    -0.275 C  
HETATM   38  C   UNL     1     -11.545  13.022  69.156  1.00  0.00    -0.368 C  
HETATM   39  C   UNL     1     -10.141  13.486  68.805  1.00  0.00    -0.111 C  
HETATM   40  C   UNL     1      -9.690  13.116  67.384  1.00  0.00    -0.220 C  
ENDBRANCH   9  35
TORSDOF 6
ENDMDL
MODEL       62
REMARK 921   NORMALIZED FREE ENERGY PREDICTED BY IDOCK:   -0.16 KCAL/MOL
REMARK 922        TOTAL FREE ENERGY PREDICTED BY IDOCK:   -1.89 KCAL/MOL
REMARK 923 INTER-LIGAND FREE ENERGY PREDICTED BY IDOCK:   -3.58 KCAL/MOL
REMARK 924 INTRA-LIGAND FREE ENERGY PREDICTED BY IDOCK:    1.69 KCAL/MOL
REMARK 927      BINDING AFFINITY PREDICTED BY RF-SCORE:    0.00 PKD
ROOT
HETATM    1  C   UNL     1      -7.348   8.486  66.436  1.00  0.00    -0.080 C  
HETATM    2  C   UNL     1      -6.913   9.207  67.622  1.00  0.00    -0.078 C  
HETATM    3  C   UNL     1      -7.966   8.275  68.183  1.00  0.00    -0.123 C  
HETATM    4  C   UNL     1     -11.829  10.976  65.832  1.00  0.00     1.278 C  
HETATM    5  C   UNL     1      -9.093   7.396  66.636  1.00  0.00    -0.154 C  
HETATM    6  C   UNL     1      -8.058   6.997  67.350  1.00  0.00    -0.116 C  
HETATM    7  C   UNL     1     -10.466  11.407  66.459  1.00  0.00    -0.292 C  
HETATM    8  C   UNL     1     -10.815  12.171  67.884  1.00  0.00    -0.254 C  
HETATM    9  C   UNL     1     -10.207  13.594  68.123  1.00  0.00    -0.247 C  
HETATM   10  C   UNL     1     -10.432  14.258  66.744  1.00  0.00    -0.273 C  
HETATM   11  C   UNL     1      -9.336  13.738  65.818  1.00  0.00     0.120 C  
HETATM   12  C   UNL     1      -7.295   5.688  67.447  1.00  0.00    -0.077 C  
HETATM   13  C   UNL     1      -9.847   7.414  68.046  1.00  0.00    -0.172 C  
HETATM   14  C   UNL     1      -9.809  12.346  65.343  1.00  0.00    -0.200 C  
HETATM   15  C   UNL     1      -8.849  11.666  64.367  1.00  0.00     0.522 C  
HETATM   16  C   UNL     1     -10.600   8.864  67.344  1.00  0.00    -0.305 C  
HETATM   17  C   UNL     1      -7.831  10.749  65.020  1.00  0.00     0.112 C  
HETATM   18  C   UNL     1      -9.643  10.075  66.797  1.00  0.00    -0.228 C  
HETATM   19  C   UNL     1      -8.533   9.595  65.740  1.00  0.00    -0.142 C  
ENDROOT
BRANCH   3  20
HETATM   20  N   UNL     1      -8.293   8.640  69.962  1.00  0.00    -0.119 N  
HETATM   21  C   UNL     1      -7.670   7.732  71.214  1.00  0.00    -0.085 C  
HETATM   22  C   UNL     1      -8.187   8.210  72.570  1.00  0.00    -0.215 C  
HETATM   23  C   UNL     1      -9.779   8.710  70.145  1.00  0.00    -0.172 C  
HETATM   24  C   UNL     1      -9.711   8.237  72.588  1.00  0.00    -0.357 C  
HETATM   25  C   UNL     1      -7.600  10.042  70.227  1.00  0.00    -0.106 C  
HETATM   26  C   UNL     1     -10.202   9.188  71.514  1.00  0.00    -0.403 C  
ENDBRANCH   3  20
BRANCH   5  27
HETATM   27  O   UNL     1      -9.454   5.836  66.461  1.00  0.00    -0.146 OA 
BRANCH  27  28
HETATM   28  C   UNL     1      -9.741   5.153  65.328  1.00  0.00     0.115 C  
HETATM   29  C   UNL     1      -8.729   5.520  64.266  1.00  0.00     0.063 C  
HETATM   30  O   UNL     1     -10.549   4.243  65.248  1.00  0.00    -0.248 OA 
ENDBRANCH  27  28
ENDBRANCH   5  27
BRANCH  10  31
HETATM   31  O   UNL     1     -10.903  15.587  66.629  1.00  0.00    -0.311 OA 
BRANCH  31  32
HETATM   32  C   UNL     1     -10.795  16.393  65.570  1.00  0.00    -0.215 C  
HETATM   33  C   UNL     1     -10.377  17.737  66.089  1.00  0.00    -0.340 C  
HETATM   34  O   UNL     1     -11.026  16.108  64.419  1.00  0.00    -0.612 OA 
ENDBRANCH  31  32
ENDBRANCH  10  31
BRANCH   9  35
HETATM   35  N   UNL     1     -10.628  14.383  69.291  1.00  0.00    -0.214 NA 
HETATM   36  C   UNL     1     -12.664  15.741  69.107  1.00  0.00     0.659 C  
HETATM   37  C   UNL     1     -11.142  15.728  69.116  1.00  0.00    -0.283 C  
HETATM   38  C   UNL     1     -13.207  15.223  70.432  1.00  0.00    -0.171 C  
HETATM   39  C   UNL     1     -12.632  13.844  70.707  1.00  0.00    -0.424 C  
HETATM   40  C   UNL     1     -11.111  13.744  70.515  1.00  0.00     0.711 C  
ENDBRANCH   9  35
TORSDOF 6
ENDMDL
MODEL       63
REMARK 921   NORMALIZED FREE ENERGY PREDICTED BY IDOCK:   -0.04 KCAL/MOL
REMARK 922        TOTAL FREE ENERGY PREDICTED BY IDOCK:   -1.72 KCAL/MOL
REMARK 923 INTER-LIGAND FREE ENERGY PREDICTED BY IDOCK:   -3.19 KCAL/MOL
REMARK 924 INTRA-LIGAND FREE ENERGY PREDICTED BY IDOCK:    1.47 KCAL/MOL
REMARK 927      BINDING AFFINITY PREDICTED BY RF-SCORE:    0.00 PKD
ROOT
HETATM    1  C   UNL     1      -9.552   9.430  65.230  1.00  0.00    -0.251 C  
HETATM    2  C   UNL     1     -10.683  10.339  65.127  1.00  0.00     0.268 C  
HETATM    3  C   UNL     1      -9.514  11.295  65.221  1.00  0.00    -0.221 C  
HETATM    4  C   UNL     1      -8.727  10.075  70.285  1.00  0.00     0.069 C  
HETATM    5  C   UNL     1      -7.763  10.285  65.816  1.00  0.00    -0.143 C  
HETATM    6  C   UNL     1      -8.247  10.661  64.647  1.00  0.00    -0.017 C  
HETATM    7  C   UNL     1     -10.015  10.184  69.410  1.00  0.00    -0.247 C  
HETATM    8  C   UNL     1     -10.794  11.567  69.876  1.00  0.00     0.177 C  
HETATM    9  C   UNL     1     -12.306  11.461  70.270  1.00  0.00    -0.297 C  
HETATM   10  C   UNL     1     -12.309  10.173  71.127  1.00  0.00    -0.385 C  
HETATM   11  C   UNL     1     -12.286   8.996  70.156  1.00  0.00     0.501 C  
HETATM   12  C   UNL     1      -7.704  10.628  63.230  1.00  0.00     0.055 C  
HETATM   13  C   UNL     1      -7.731  11.855  66.118  1.00  0.00     0.450 C  
HETATM   14  C   UNL     1     -10.811   8.832  69.726  1.00  0.00    -0.196 C  
HETATM   15  C   UNL     1     -10.571   7.667  68.766  1.00  0.00    -0.169 C  
HETATM   16  C   UNL     1      -8.222  11.301  67.736  1.00  0.00    -0.120 C  
HETATM   17  C   UNL     1     -10.629   8.039  67.296  1.00  0.00    -0.360 C  
HETATM   18  C   UNL     1      -9.555  10.362  67.887  1.00  0.00    -0.157 C  
HETATM   19  C   UNL     1      -9.534   9.053  66.955  1.00  0.00    -0.219 C  
ENDROOT
BRANCH   3  20
HETATM   20  N   UNL     1     -10.096  13.041  65.351  1.00  0.00    -0.279 N  
HETATM   21  C   UNL     1      -9.093  14.314  65.743  1.00  0.00     0.427 C  
HETATM   22  C   UNL     1      -9.869  15.625  65.870  1.00  0.00    -0.382 C  
HETATM   23  C   UNL     1     -11.254  13.063  66.302  1.00  0.00    -0.301 C  
HETATM   24  C   UNL     1     -11.018  15.477  66.861  1.00  0.00    -0.268 C  
HETATM   25  C   UNL     1     -10.534  13.439  63.879  1.00  0.00     0.202 C  
HETATM   26  C   UNL     1     -11.960  14.397  66.369  1.00  0.00    -0.402 C  
ENDBRANCH   3  20
BRANCH   5  27
HETATM   27  O   UNL     1      -6.305  10.384  65.137  1.00  0.00    -0.122 OA 
BRANCH  27  28
HETATM   28  C   UNL     1      -5.523   9.388  64.658  1.00  0.00    -0.055 C  
HETATM   29  C   UNL     1      -5.396   8.315  65.714  1.00  0.00    -0.031 C  
HETATM   30  O   UNL     1      -5.160   9.284  63.499  1.00  0.00    -0.063 OA 
ENDBRANCH  27  28
ENDBRANCH   5  27
BRANCH  10  31
HETATM   31  O   UNL     1     -13.031  10.091  72.340  1.00  0.00    -0.329 OA 
BRANCH  31  32
HETATM   32  C   UNL     1     -13.904   9.146  72.699  1.00  0.00    -0.344 C  
HETATM   33  C   UNL     1     -14.405   8.517  71.433  1.00  0.00    -0.387 C  
HETATM   34  O   UNL     1     -14.253   8.874  73.823  1.00  0.00     0.369 OA 
ENDBRANCH  31  32
ENDBRANCH  10  31
BRANCH   9  35
HETATM   35  N   UNL     1     -12.993  12.623  70.856  1.00  0.00    -0.076 NA 
HETATM   36  C   UNL     1     -12.084  13.594  72.919  1.00  0.00     1.153 C  
HETATM   37  C   UNL     1     -13.162  12.720  72.294  1.00  0.00    -0.386 C  
HETATM   38  C   UNL     1     -12.158  15.009  72.362  1.00  0.00    -0.438 C  
HETATM   39  C   UNL     1     -12.068  14.958  70.846  1.00  0.00    -0.377 C  
HETATM   40  C   UNL     1     -13.000  13.926  70.193  1.00  0.00     0.161 C  
ENDBRANCH   9  35
TORSDOF 6
ENDMDL
MODEL       64
REMARK 921   NORMALIZED FREE ENERGY PREDICTED BY IDOCK:    0.11 KCAL/MOL
REMARK 922        TOTAL FREE ENERGY PREDICTED BY IDOCK:   -1.52 KCAL/MOL
REMARK 923 INTER-LIGAND FREE ENERGY PREDICTED BY IDOCK:   -5.00 KCAL/MOL
REMARK 924 INTRA-LIGAND FREE ENERGY PREDICTED BY IDOCK:    3.48 KCAL/MOL
REMARK 927      BINDING AFFINITY PREDICTED BY RF-SCORE:    0.00 PKD
ROOT
HETATM    1  C   UNL     1      -8.723  12.012  67.452  1.00  0.00    -0.170 C  
HETATM    2  C   UNL     1      -7.582  11.436  66.756  1.00  0.00    -0.143 C  
HETATM    3  C   UNL     1      -8.656  11.402  65.690  1.00  0.00     0.044 C  
HETATM    4  C   UNL     1     -11.256   7.579  68.214  1.00  0.00     0.349 C  
HETATM    5  C   UNL     1     -10.555  11.774  66.523  1.00  0.00    -0.253 C  
HETATM    6  C   UNL     1      -9.668  12.528  65.903  1.00  0.00    -0.226 C  
HETATM    7  C   UNL     1      -9.738   7.907  68.066  1.00  0.00    -0.182 C  
HETATM    8  C   UNL     1      -9.103   6.779  67.036  1.00  0.00    -0.139 C  
HETATM    9  C   UNL     1      -7.837   5.985  67.506  1.00  0.00    -0.098 C  
HETATM   10  C   UNL     1      -8.208   5.660  68.972  1.00  0.00    -0.100 C  
HETATM   11  C   UNL     1      -7.947   6.925  69.785  1.00  0.00    -0.124 C  
HETATM   12  C   UNL     1      -9.672  13.967  65.420  1.00  0.00    -0.109 C  
HETATM   13  C   UNL     1     -10.609  10.986  65.133  1.00  0.00    -0.295 C  
HETATM   14  C   UNL     1      -9.180   7.830  69.564  1.00  0.00    -0.149 C  
HETATM   15  C   UNL     1      -9.125   9.151  70.333  1.00  0.00    -0.270 C  
HETATM   16  C   UNL     1     -10.756   9.584  66.218  1.00  0.00     0.133 C  
HETATM   17  C   UNL     1      -8.527  10.309  69.555  1.00  0.00    -0.156 C  
HETATM   18  C   UNL     1      -9.615   9.343  67.369  1.00  0.00    -0.184 C  
HETATM   19  C   UNL     1      -9.374  10.617  68.317  1.00  0.00    -0.156 C  
ENDROOT
BRANCH   3  20
HETATM   20  N   UNL     1      -8.066  10.512  64.185  1.00  0.00    -0.086 N  
HETATM   21  C   UNL     1      -8.525   8.956  63.803  1.00  0.00    -0.137 C  
HETATM   22  C   UNL     1      -7.805   8.446  62.554  1.00  0.00    -0.140 C  
HETATM   23  C   UNL     1      -6.568  10.558  64.190  1.00  0.00     0.085 C  
HETATM   24  C   UNL     1      -6.294   8.574  62.713  1.00  0.00    -0.088 C  
HETATM   25  C   UNL     1      -8.677  11.320  62.964  1.00  0.00    -0.025 C  
HETATM   26  C   UNL     1      -5.939  10.033  62.921  1.00  0.00    -0.124 C  
ENDBRANCH   3  20
BRANCH   5  27
HETATM   27  O   UNL     1     -11.669  12.806  65.984  1.00  0.00    -0.372 OA 
BRANCH  27  28
HETATM   28  C   UNL     1     -12.094  13.009  64.716  1.00  0.00    -0.415 C  
HETATM   29  C   UNL     1     -12.367  11.670  64.071  1.00  0.00    -0.195 C  
HETATM   30  O   UNL     1     -12.402  14.093  64.250  1.00  0.00    -0.601 OA 
ENDBRANCH  27  28
ENDBRANCH   5  27
BRANCH  10  31
HETATM   31  O   UNL     1      -7.971   4.383  69.532  1.00  0.00    -0.061 OA 
BRANCH  31  32
HETATM   32  C   UNL     1      -8.653   3.792  70.516  1.00  0.00    -0.070 C  
HETATM   33  C   UNL     1      -7.911   4.076  71.788  1.00  0.00    -0.071 C  
HETATM   34  O   UNL     1      -9.654   3.125  70.403  1.00  0.00    -0.171 OA 
ENDBRANCH  31  32
ENDBRANCH  10  31
BRANCH   9  35
HETATM   35  N   UNL     1      -7.344   4.855  66.704  1.00  0.00    -0.081 NA 
HETATM   36  C   UNL     1      -5.309   3.701  67.445  1.00  0.00    -0.016 C  
HETATM   37  C   UNL     1      -5.921   4.695  66.468  1.00  0.00    -0.027 C  
HETATM   38  C   UNL     1      -5.948   2.329  67.278  1.00  0.00    -0.020 C  
HETATM   39  C   UNL     1      -7.454   2.454  67.434  1.00  0.00    -0.060 C  
HETATM   40  C   UNL     1      -8.080   3.595  66.617  1.00  0.00    -0.096 C  
ENDBRANCH   9  35
TORSDOF 6
ENDMDL
MODEL       65
REMARK 921   NORMALIZED FREE ENERGY PREDICTED BY IDOCK:    0.13 KCAL/MOL
REMARK 922        TOTAL FREE ENERGY PREDICTED BY IDOCK:   -1.49 KCAL/MOL
REMARK 923 INTER-LIGAND FREE ENERGY PREDICTED BY IDOCK:   -5.38 KCAL/MOL
REMARK 924 INTRA-LIGAND FREE ENERGY PREDICTED BY IDOCK:    3.88 KCAL/MOL
REMARK 927      BINDING AFFINITY PREDICTED BY RF-SCORE:    0.00 PKD
ROOT
HETATM    1  C   UNL     1      -8.228   7.662  65.543  1.00  0.00    -0.135 C  
HETATM    2  C   UNL     1      -7.057   8.402  65.991  1.00  0.00    -0.069 C  
HETATM    3  C   UNL     1      -7.511   7.723  67.265  1.00  0.00    -0.093 C  
HETATM    4  C   UNL     1     -11.754  10.828  67.590  1.00  0.00     0.107 C  
HETATM    5  C   UNL     1      -9.444   6.916  67.039  1.00  0.00    -0.151 C  
HETATM    6  C   UNL     1      -8.228   6.410  66.954  1.00  0.00    -0.110 C  
HETATM    7  C   UNL     1     -10.302  11.071  67.072  1.00  0.00    -0.269 C  
HETATM    8  C   UNL     1      -9.542  12.011  68.201  1.00  0.00    -0.200 C  
HETATM    9  C   UNL     1      -8.839  13.323  67.712  1.00  0.00    -0.197 C  
HETATM   10  C   UNL     1      -9.894  13.886  66.730  1.00  0.00    -0.274 C  
HETATM   11  C   UNL     1      -9.752  13.102  65.429  1.00  0.00    -0.028 C  
HETATM   12  C   UNL     1      -7.691   5.003  66.764  1.00  0.00    -0.092 C  
HETATM   13  C   UNL     1      -9.040   7.193  68.561  1.00  0.00    -0.132 C  
HETATM   14  C   UNL     1     -10.513  11.775  65.651  1.00  0.00    -0.308 C  
HETATM   15  C   UNL     1     -10.516  10.852  64.432  1.00  0.00    -0.403 C  
HETATM   16  C   UNL     1      -9.971   8.682  68.276  1.00  0.00    -0.207 C  
HETATM   17  C   UNL     1      -9.389   9.836  64.409  1.00  0.00    -0.278 C  
HETATM   18  C   UNL     1      -9.559   9.653  67.023  1.00  0.00    -0.221 C  
HETATM   19  C   UNL     1      -9.493   8.892  65.610  1.00  0.00    -0.230 C  
ENDROOT
BRANCH   3  20
HETATM   20  N   UNL     1      -6.522   8.302  68.712  1.00  0.00    -0.052 N  
HETATM   21  C   UNL     1      -6.015   7.291  69.937  1.00  0.00    -0.024 C  
HETATM   22  C   UNL     1      -5.300   8.064  71.046  1.00  0.00    -0.029 C  
HETATM   23  C   UNL     1      -7.262   9.444  69.339  1.00  0.00    -0.066 C  
HETATM   24  C   UNL     1      -6.178   9.197  71.565  1.00  0.00    -0.069 C  
HETATM   25  C   UNL     1      -5.133   8.762  68.101  1.00  0.00    -0.034 C  
HETATM   26  C   UNL     1      -6.484  10.148  70.426  1.00  0.00    -0.131 C  
ENDBRANCH   3  20
BRANCH   5  27
HETATM   27  O   UNL     1      -9.931   5.432  67.437  1.00  0.00    -0.143 OA 
BRANCH  27  28
HETATM   28  C   UNL     1      -9.820   4.285  66.728  1.00  0.00    -0.205 C  
HETATM   29  C   UNL     1      -9.314   3.193  67.642  1.00  0.00    -0.247 C  
HETATM   30  O   UNL     1     -10.256   4.117  65.602  1.00  0.00    -0.205 OA 
ENDBRANCH  27  28
ENDBRANCH   5  27
BRANCH  10  31
HETATM   31  O   UNL     1     -10.228  15.261  66.710  1.00  0.00    -0.262 OA 
BRANCH  31  32
HETATM   32  C   UNL     1      -9.891  16.160  65.782  1.00  0.00    -0.320 C  
HETATM   33  C   UNL     1     -11.067  16.295  64.862  1.00  0.00    -0.301 C  
HETATM   34  O   UNL     1      -8.830  16.728  65.678  1.00  0.00    -0.461 OA 
ENDBRANCH  31  32
ENDBRANCH  10  31
BRANCH   9  35
HETATM   35  N   UNL     1      -8.304  14.276  68.696  1.00  0.00    -0.151 NA 
HETATM   36  C   UNL     1      -6.227  13.699  69.867  1.00  0.00    -0.118 C  
HETATM   37  C   UNL     1      -7.744  13.797  69.945  1.00  0.00     1.046 C  
HETATM   38  C   UNL     1      -5.619  15.068  69.600  1.00  0.00    -0.098 C  
HETATM   39  C   UNL     1      -6.235  15.655  68.342  1.00  0.00    -0.102 C  
HETATM   40  C   UNL     1      -7.769  15.576  68.293  1.00  0.00    -0.115 C  
ENDBRANCH   9  35
TORSDOF 6
ENDMDL
MODEL       66
REMARK 921   NORMALIZED FREE ENERGY PREDICTED BY IDOCK:    0.15 KCAL/MOL
REMARK 922        TOTAL FREE ENERGY PREDICTED BY IDOCK:   -1.47 KCAL/MOL
REMARK 923 INTER-LIGAND FREE ENERGY PREDICTED BY IDOCK:   -1.62 KCAL/MOL
REMARK 924 INTRA-LIGAND FREE ENERGY PREDICTED BY IDOCK:    0.15 KCAL/MOL
REMARK 927      BINDING AFFINITY PREDICTED BY RF-SCORE:    0.00 PKD
ROOT
HETATM    1  C   UNL     1     -10.952  15.302  69.571  1.00  0.00    -0.280 C  
HETATM    2  C   UNL     1     -10.031  14.799  70.578  1.00  0.00     0.803 C  
HETATM    3  C   UNL     1      -9.093  15.456  69.589  1.00  0.00    -0.170 C  
HETATM    4  C   UNL     1      -9.977  11.688  66.015  1.00  0.00    -0.260 C  
HETATM    5  C   UNL     1     -10.093  15.906  67.790  1.00  0.00    -0.244 C  
HETATM    6  C   UNL     1      -9.789  16.608  68.865  1.00  0.00    -0.261 C  
HETATM    7  C   UNL     1      -9.903  11.673  67.574  1.00  0.00    -0.199 C  
HETATM    8  C   UNL     1      -8.477  10.938  67.978  1.00  0.00    -0.130 C  
HETATM    9  C   UNL     1      -8.527   9.743  68.990  1.00  0.00    -0.137 C  
HETATM   10  C   UNL     1      -9.753   8.955  68.471  1.00  0.00    -0.161 C  
HETATM   11  C   UNL     1     -10.995   9.683  68.980  1.00  0.00    -0.161 C  
HETATM   12  C   UNL     1      -9.929  18.075  69.231  1.00  0.00    -0.095 C  
HETATM   13  C   UNL     1      -8.507  15.783  67.627  1.00  0.00    -0.171 C  
HETATM   14  C   UNL     1     -11.215  10.868  68.013  1.00  0.00    -0.378 C  
HETATM   15  C   UNL     1     -12.448  11.711  68.339  1.00  0.00     0.784 C  
HETATM   16  C   UNL     1      -8.939  14.143  67.090  1.00  0.00    -0.236 C  
HETATM   17  C   UNL     1     -12.177  12.904  69.238  1.00  0.00    -0.115 C  
HETATM   18  C   UNL     1      -9.840  13.192  68.074  1.00  0.00    -0.231 C  
HETATM   19  C   UNL     1     -11.210  13.878  68.559  1.00  0.00    -0.298 C  
ENDROOT
BRANCH   3  20
HETATM   20  N   UNL     1      -7.331  15.134  70.033  1.00  0.00    -0.074 N  
HETATM   21  C   UNL     1      -6.627  13.626  69.949  1.00  0.00     0.032 C  
HETATM   22  C   UNL     1      -5.189  13.644  70.469  1.00  0.00    -0.114 C  
HETATM   23  C   UNL     1      -7.108  15.665  71.417  1.00  0.00     2.826 C  
HETATM   24  C   UNL     1      -5.133  14.224  71.878  1.00  0.00    -0.171 C  
HETATM   25  C   UNL     1      -6.484  15.929  68.953  1.00  0.00    -0.122 C  
HETATM   26  C   UNL     1      -5.662  15.644  71.851  1.00  0.00     0.711 C  
ENDBRANCH   3  20
BRANCH   5  27
HETATM   27  O   UNL     1     -10.069  17.302  66.986  1.00  0.00    -0.285 OA 
BRANCH  27  28
HETATM   28  C   UNL     1     -10.433  17.551  65.707  1.00  0.00    -0.207 C  
HETATM   29  C   UNL     1     -10.881  16.258  65.065  1.00  0.00    -0.337 C  
HETATM   30  O   UNL     1     -10.573  18.663  65.226  1.00  0.00    -0.482 OA 
ENDBRANCH  27  28
ENDBRANCH   5  27
BRANCH  10  31
HETATM   31  O   UNL     1      -9.737   7.545  68.365  1.00  0.00    -0.151 OA 
BRANCH  31  32
HETATM   32  C   UNL     1     -10.792   6.726  68.328  1.00  0.00    -0.226 C  
HETATM   33  C   UNL     1     -10.776   6.061  66.984  1.00  0.00    -0.412 C  
HETATM   34  O   UNL     1     -11.622   6.576  69.193  1.00  0.00    -0.276 OA 
ENDBRANCH  31  32
ENDBRANCH  10  31
BRANCH   9  35
HETATM   35  N   UNL     1      -7.315   8.949  69.244  1.00  0.00    -0.069 NA 
HETATM   36  C   UNL     1      -7.561   6.765  70.334  1.00  0.00    -0.095 C  
HETATM   37  C   UNL     1      -7.166   8.226  70.493  1.00  0.00    -0.045 C  
HETATM   38  C   UNL     1      -6.665   6.081  69.310  1.00  0.00    -0.060 C  
HETATM   39  C   UNL     1      -6.719   6.849  68.001  1.00  0.00    -0.068 C  
HETATM   40  C   UNL     1      -6.535   8.368  68.153  1.00  0.00    -0.056 C  
ENDBRANCH   9  35
TORSDOF 6
ENDMDL
MODEL       67
REMARK 921   NORMALIZED FREE ENERGY PREDICTED BY IDOCK:    0.17 KCAL/MOL
REMARK 922        TOTAL FREE ENERGY PREDICTED BY IDOCK:   -1.44 KCAL/MOL
REMARK 923 INTER-LIGAND FREE ENERGY PREDICTED BY IDOCK:   -3.44 KCAL/MOL
REMARK 924 INTRA-LIGAND FREE ENERGY PREDICTED BY IDOCK:    1.99 KCAL/MOL
REMARK 927      BINDING AFFINITY PREDICTED BY RF-SCORE:    0.00 PKD
ROOT
HETATM    1  C   UNL     1      -6.691   8.287  72.513  1.00  0.00    -0.098 C  
HETATM    2  C   UNL     1      -8.114   8.566  72.392  1.00  0.00    -0.134 C  
HETATM    3  C   UNL     1      -7.958   7.328  71.535  1.00  0.00    -0.100 C  
HETATM    4  C   UNL     1      -5.343  10.027  67.844  1.00  0.00    -0.038 C  
HETATM    5  C   UNL     1      -5.925   6.926  71.159  1.00  0.00    -0.036 C  
HETATM    6  C   UNL     1      -6.799   6.466  72.034  1.00  0.00    -0.068 C  
HETATM    7  C   UNL     1      -6.508  10.410  68.809  1.00  0.00    -0.051 C  
HETATM    8  C   UNL     1      -7.880  10.506  67.891  1.00  0.00    -0.105 C  
HETATM    9  C   UNL     1      -8.738  11.813  67.986  1.00  0.00    -0.167 C  
HETATM   10  C   UNL     1      -7.640  12.902  67.960  1.00  0.00    -0.137 C  
HETATM   11  C   UNL     1      -7.046  12.965  69.365  1.00  0.00     0.187 C  
HETATM   12  C   UNL     1      -6.753   5.367  73.080  1.00  0.00    -0.077 C  
HETATM   13  C   UNL     1      -6.915   6.280  70.082  1.00  0.00    -0.066 C  
HETATM   14  C   UNL     1      -6.036  11.799  69.449  1.00  0.00    -0.090 C  
HETATM   15  C   UNL     1      -5.301  11.713  70.787  1.00  0.00    -0.141 C  
HETATM   16  C   UNL     1      -6.471   7.739  69.166  1.00  0.00    -0.036 C  
HETATM   17  C   UNL     1      -5.957  10.802  71.809  1.00  0.00     0.794 C  
HETATM   18  C   UNL     1      -6.690   9.210  69.853  1.00  0.00    -0.048 C  
HETATM   19  C   UNL     1      -5.997   9.360  71.295  1.00  0.00    -0.076 C  
ENDROOT
BRANCH   3  20
HETATM   20  N   UNL     1      -9.530   6.931  70.654  1.00  0.00    -0.166 N  
HETATM   21  C   UNL     1      -9.762   5.529  69.782  1.00  0.00    -0.176 C  
HETATM   22  C   UNL     1     -11.122   5.517  69.084  1.00  0.00     0.142 C  
HETATM   23  C   UNL     1      -9.850   8.086  69.754  1.00  0.00    -0.183 C  
HETATM   24  C   UNL     1     -11.296   6.762  68.222  1.00  0.00    -0.022 C  
HETATM   25  C   UNL     1     -10.612   6.760  71.801  1.00  0.00    -0.213 C  
HETATM   26  C   UNL     1     -11.210   7.991  69.104  1.00  0.00     0.315 C  
ENDBRANCH   3  20
BRANCH   5  27
HETATM   27  O   UNL     1      -5.168   5.512  71.314  1.00  0.00    -0.008 OA 
BRANCH  27  28
HETATM   28  C   UNL     1      -5.345   4.373  70.605  1.00  0.00    -0.004 C  
HETATM   29  C   UNL     1      -5.152   4.675  69.137  1.00  0.00     0.000 C  
HETATM   30  O   UNL     1      -5.435   3.258  71.090  1.00  0.00    -0.007 OA 
ENDBRANCH  27  28
ENDBRANCH   5  27
BRANCH  10  31
HETATM   31  O   UNL     1      -7.778  14.075  67.182  1.00  0.00    -0.135 OA 
BRANCH  31  32
HETATM   32  C   UNL     1      -7.006  15.164  67.220  1.00  0.00    -0.088 C  
HETATM   33  C   UNL     1      -7.914  16.345  67.045  1.00  0.00    -0.240 C  
HETATM   34  O   UNL     1      -5.803  15.195  67.334  1.00  0.00    -0.336 OA 
ENDBRANCH  31  32
ENDBRANCH  10  31
BRANCH   9  35
HETATM   35  N   UNL     1      -9.865  12.016  67.062  1.00  0.00    -0.193 NA 
HETATM   36  C   UNL     1     -11.968  12.901  67.967  1.00  0.00    -0.323 C  
HETATM   37  C   UNL     1     -11.214  11.674  67.472  1.00  0.00    -0.293 C  
HETATM   38  C   UNL     1     -12.085  13.936  66.857  1.00  0.00    -0.467 C  
HETATM   39  C   UNL     1     -10.700  14.270  66.332  1.00  0.00    -0.297 C  
HETATM   40  C   UNL     1      -9.829  13.042  66.021  1.00  0.00    -0.255 C  
ENDBRANCH   9  35
TORSDOF 6
ENDMDL
MODEL       68
REMARK 921   NORMALIZED FREE ENERGY PREDICTED BY IDOCK:    0.74 KCAL/MOL
REMARK 922        TOTAL FREE ENERGY PREDICTED BY IDOCK:   -0.67 KCAL/MOL
REMARK 923 INTER-LIGAND FREE ENERGY PREDICTED BY IDOCK:   -0.46 KCAL/MOL
REMARK 924 INTRA-LIGAND FREE ENERGY PREDICTED BY IDOCK:   -0.20 KCAL/MOL
REMARK 927      BINDING AFFINITY PREDICTED BY RF-SCORE:    0.00 PKD
ROOT
HETATM    1  C   UNL     1     -10.741   6.322  71.347  1.00  0.00    -0.297 C  
HETATM    2  C   UNL     1     -10.876   6.170  69.907  1.00  0.00    -0.420 C  
HETATM    3  C   UNL     1     -10.069   4.945  70.283  1.00  0.00    -0.252 C  
HETATM    4  C   UNL     1      -5.819   7.877  71.327  1.00  0.00    -0.034 C  
HETATM    5  C   UNL     1      -9.339   5.102  72.252  1.00  0.00    -0.138 C  
HETATM    6  C   UNL     1     -10.385   4.506  71.712  1.00  0.00    -0.175 C  
HETATM    7  C   UNL     1      -6.966   8.011  70.277  1.00  0.00    -0.044 C  
HETATM    8  C   UNL     1      -6.317   7.615  68.807  1.00  0.00    -0.040 C  
HETATM    9  C   UNL     1      -6.505   8.626  67.625  1.00  0.00    -0.061 C  
HETATM   10  C   UNL     1      -6.217   9.974  68.328  1.00  0.00    -0.049 C  
HETATM   11  C   UNL     1      -7.480  10.350  69.097  1.00  0.00    -0.112 C  
HETATM   12  C   UNL     1     -11.459   3.581  72.255  1.00  0.00     1.307 C  
HETATM   13  C   UNL     1      -8.502   4.092  71.338  1.00  0.00    -0.111 C  
HETATM   14  C   UNL     1      -7.433   9.536  70.410  1.00  0.00    -0.158 C  
HETATM   15  C   UNL     1      -8.612   9.802  71.347  1.00  0.00     1.263 C  
HETATM   16  C   UNL     1      -7.446   5.513  71.169  1.00  0.00    -0.086 C  
HETATM   17  C   UNL     1      -9.784   8.854  71.170  1.00  0.00    -0.344 C  
HETATM   18  C   UNL     1      -8.085   6.924  70.636  1.00  0.00    -0.118 C  
HETATM   19  C   UNL     1      -9.361   7.415  71.479  1.00  0.00    -0.154 C  
ENDROOT
BRANCH   3  20
HETATM   20  N   UNL     1      -9.521   4.027  68.779  1.00  0.00    -0.163 N  
HETATM   21  C   UNL     1      -9.911   2.432  68.487  1.00  0.00     0.371 C  
HETATM   22  C   UNL     1      -9.240   1.911  67.216  1.00  0.00    -0.109 C  
HETATM   23  C   UNL     1      -8.030   4.156  68.687  1.00  0.00    -0.072 C  
HETATM   24  C   UNL     1      -7.732   2.130  67.274  1.00  0.00    -0.065 C  
HETATM   25  C   UNL     1     -10.251   4.747  67.569  1.00  0.00    -0.057 C  
HETATM   26  C   UNL     1      -7.451   3.614  67.402  1.00  0.00    -0.067 C  
ENDBRANCH   3  20
BRANCH   5  27
HETATM   27  O   UNL     1      -9.422   3.986  73.412  1.00  0.00    -0.110 OA 
BRANCH  27  28
HETATM   28  C   UNL     1      -8.430   3.502  74.195  1.00  0.00    -0.085 C  
HETATM   29  C   UNL     1      -8.600   2.006  74.331  1.00  0.00    -0.058 C  
HETATM   30  O   UNL     1      -7.452   4.137  74.553  1.00  0.00    -0.073 OA 
ENDBRANCH  27  28
ENDBRANCH   5  27
BRANCH  10  31
HETATM   31  O   UNL     1      -5.420  10.972  67.719  1.00  0.00    -0.040 OA 
BRANCH  31  32
HETATM   32  C   UNL     1      -5.842  12.088  67.120  1.00  0.00    -0.150 C  
HETATM   33  C   UNL     1      -5.611  13.212  68.086  1.00  0.00    -0.097 C  
HETATM   34  O   UNL     1      -6.349  12.174  66.027  1.00  0.00     0.592 OA 
ENDBRANCH  31  32
ENDBRANCH  10  31
BRANCH   9  35
HETATM   35  N   UNL     1      -5.800   8.403  66.353  1.00  0.00    -0.043 NA 
HETATM   36  C   UNL     1      -6.010   6.208  65.276  1.00  0.00    -0.026 C  
HETATM   37  C   UNL     1      -5.134   7.139  66.102  1.00  0.00    -0.023 C  
HETATM   38  C   UNL     1      -6.317   6.830  63.921  1.00  0.00    -0.035 C  
HETATM   39  C   UNL     1      -6.944   8.198  64.126  1.00  0.00    -0.070 C  
HETATM   40  C   UNL     1      -6.194   9.093  65.125  1.00  0.00    -0.061 C  
ENDBRANCH   9  35
TORSDOF 6
ENDMDL
MODEL       69
REMARK 921   NORMALIZED FREE ENERGY PREDICTED BY IDOCK:    2.04 KCAL/MOL
REMARK 922        TOTAL FREE ENERGY PREDICTED BY IDOCK:    1.09 KCAL/MOL
REMARK 923 INTER-LIGAND FREE ENERGY PREDICTED BY IDOCK:   -6.17 KCAL/MOL
REMARK 924 INTRA-LIGAND FREE ENERGY PREDICTED BY IDOCK:    7.26 KCAL/MOL
REMARK 927      BINDING AFFINITY PREDICTED BY RF-SCORE:    0.00 PKD
ROOT
HETATM    1  C   UNL     1      -9.041   9.072  66.029  1.00  0.00    -0.257 C  
HETATM    2  C   UNL     1      -7.791   9.610  66.544  1.00  0.00    -0.108 C  
HETATM    3  C   UNL     1      -8.406   8.995  67.782  1.00  0.00    -0.117 C  
HETATM    4  C   UNL     1     -12.114  12.731  67.982  1.00  0.00    -0.174 C  
HETATM    5  C   UNL     1     -10.429   8.508  67.453  1.00  0.00    -0.280 C  
HETATM    6  C   UNL     1      -9.307   7.817  67.411  1.00  0.00    -0.168 C  
HETATM    7  C   UNL     1     -10.620  12.746  67.534  1.00  0.00    -0.240 C  
HETATM    8  C   UNL     1      -9.774  13.538  68.715  1.00  0.00    -0.016 C  
HETATM    9  C   UNL     1      -8.850  14.728  68.285  1.00  0.00    -0.179 C  
HETATM   10  C   UNL     1      -9.755  15.465  67.270  1.00  0.00    -0.212 C  
HETATM   11  C   UNL     1      -9.677  14.685  65.960  1.00  0.00    -0.340 C  
HETATM   12  C   UNL     1      -8.991   6.344  67.217  1.00  0.00    -0.107 C  
HETATM   13  C   UNL     1     -10.059   8.697  68.997  1.00  0.00    -0.207 C  
HETATM   14  C   UNL     1     -10.649  13.494  66.120  1.00  0.00    -0.290 C  
HETATM   15  C   UNL     1     -10.740  12.600  64.883  1.00  0.00    -0.327 C  
HETATM   16  C   UNL     1     -10.728  10.319  68.702  1.00  0.00    -0.255 C  
HETATM   17  C   UNL     1      -9.788  11.418  64.889  1.00  0.00    -0.301 C  
HETATM   18  C   UNL     1     -10.109  11.229  67.489  1.00  0.00    -0.207 C  
HETATM   19  C   UNL     1     -10.097  10.486  66.065  1.00  0.00    -0.317 C  
ENDROOT
BRANCH   3  20
HETATM   20  N   UNL     1      -7.407   9.389  69.283  1.00  0.00    -0.069 N  
HETATM   21  C   UNL     1      -5.752   9.208  69.354  1.00  0.00    -0.035 C  
HETATM   22  C   UNL     1      -5.210   9.518  70.750  1.00  0.00    -0.039 C  
HETATM   23  C   UNL     1      -7.999   8.631  70.433  1.00  0.00    -0.101 C  
HETATM   24  C   UNL     1      -5.922   8.678  71.803  1.00  0.00    -0.057 C  
HETATM   25  C   UNL     1      -7.553  10.956  69.473  1.00  0.00    -0.050 C  
HETATM   26  C   UNL     1      -7.404   8.996  71.772  1.00  0.00     0.057 C  
ENDBRANCH   3  20
BRANCH   5  27
HETATM   27  O   UNL     1     -11.163   7.116  67.798  1.00  0.00    -0.076 OA 
BRANCH  27  28
HETATM   28  C   UNL     1     -10.858   5.868  67.373  1.00  0.00    -0.248 C  
HETATM   29  C   UNL     1     -10.628   4.984  68.577  1.00  0.00     0.097 C  
HETATM   30  O   UNL     1     -10.959   5.480  66.221  1.00  0.00    -0.193 OA 
ENDBRANCH  27  28
ENDBRANCH   5  27
BRANCH  10  31
HETATM   31  O   UNL     1      -9.866  16.875  67.263  1.00  0.00    -0.253 OA 
BRANCH  31  32
HETATM   32  C   UNL     1     -10.851  17.611  67.785  1.00  0.00    -0.234 C  
HETATM   33  C   UNL     1     -11.585  16.729  68.751  1.00  0.00     0.238 C  
HETATM   34  O   UNL     1     -11.125  18.754  67.507  1.00  0.00    -0.326 OA 
ENDBRANCH  31  32
ENDBRANCH  10  31
BRANCH   9  35
HETATM   35  N   UNL     1      -8.218  15.571  69.312  1.00  0.00    -0.242 NA 
HETATM   36  C   UNL     1      -5.783  15.443  69.587  1.00  0.00    -0.119 C  
HETATM   37  C   UNL     1      -7.146  15.039  70.132  1.00  0.00     0.040 C  
HETATM   38  C   UNL     1      -5.639  16.958  69.587  1.00  0.00    -0.191 C  
HETATM   39  C   UNL     1      -6.788  17.573  68.807  1.00  0.00    -0.233 C  
HETATM   40  C   UNL     1      -8.173  17.027  69.189  1.00  0.00    -0.034 C  
ENDBRANCH   9  35
TORSDOF 6
ENDMDL
MODEL       70
REMARK 921   NORMALIZED FREE ENERGY PREDICTED BY IDOCK:    2.72 KCAL/MOL
REMARK 922        TOTAL FREE ENERGY PREDICTED BY IDOCK:    2.00 KCAL/MOL
REMARK 923 INTER-LIGAND FREE ENERGY PREDICTED BY IDOCK:    1.44 KCAL/MOL
REMARK 924 INTRA-LIGAND FREE ENERGY PREDICTED BY IDOCK:    0.56 KCAL/MOL
REMARK 927      BINDING AFFINITY PREDICTED BY RF-SCORE:    0.00 PKD
ROOT
HETATM    1  C   UNL     1      -8.408  11.876  68.108  1.00  0.00    -0.161 C  
HETATM    2  C   UNL     1      -9.014  12.574  69.232  1.00  0.00     0.948 C  
HETATM    3  C   UNL     1     -10.067  12.727  68.154  1.00  0.00    -0.239 C  
HETATM    4  C   UNL     1      -7.036  16.088  65.458  1.00  0.00     4.310 C  
HETATM    5  C   UNL     1      -9.297  12.191  66.269  1.00  0.00    -0.218 C  
HETATM    6  C   UNL     1     -10.015  11.556  67.175  1.00  0.00    -0.222 C  
HETATM    7  C   UNL     1      -7.227  15.825  66.984  1.00  0.00    -0.208 C  
HETATM    8  C   UNL     1      -8.088  17.103  67.586  1.00  0.00    -0.187 C  
HETATM    9  C   UNL     1      -7.510  17.858  68.831  1.00  0.00    -0.230 C  
HETATM   10  C   UNL     1      -6.013  17.964  68.455  1.00  0.00    -0.174 C  
HETATM   11  C   UNL     1      -5.385  16.605  68.752  1.00  0.00    -0.122 C  
HETATM   12  C   UNL     1     -10.695  10.199  67.208  1.00  0.00    -0.316 C  
HETATM   13  C   UNL     1     -10.563  13.164  66.190  1.00  0.00    -0.288 C  
HETATM   14  C   UNL     1      -5.732  15.707  67.544  1.00  0.00    -0.083 C  
HETATM   15  C   UNL     1      -5.155  14.294  67.637  1.00  0.00     0.111 C  
HETATM   16  C   UNL     1      -9.293  14.396  66.008  1.00  0.00    -0.167 C  
HETATM   17  C   UNL     1      -6.087  13.273  68.264  1.00  0.00    -0.093 C  
HETATM   18  C   UNL     1      -8.118  14.505  67.144  1.00  0.00    -0.196 C  
HETATM   19  C   UNL     1      -7.357  13.118  67.422  1.00  0.00    -0.119 C  
ENDROOT
BRANCH   3  20
HETATM   20  N   UNL     1     -11.432  13.835  68.717  1.00  0.00    -0.280 N  
HETATM   21  C   UNL     1     -11.304  15.496  68.762  1.00  0.00    -0.334 C  
HETATM   22  C   UNL     1     -12.553  16.143  69.360  1.00  0.00     0.819 C  
HETATM   23  C   UNL     1     -11.859  13.373  70.078  1.00  0.00    -0.294 C  
HETATM   24  C   UNL     1     -12.858  15.556  70.734  1.00  0.00    -0.513 C  
HETATM   25  C   UNL     1     -12.583  13.646  67.642  1.00  0.00     0.507 C  
HETATM   26  C   UNL     1     -13.098  14.066  70.594  1.00  0.00    -0.178 C  
ENDBRANCH   3  20
BRANCH   5  27
HETATM   27  O   UNL     1      -9.976  11.215  65.182  1.00  0.00    -0.240 OA 
BRANCH  27  28
HETATM   28  C   UNL     1     -10.451  11.516  63.951  1.00  0.00    -0.385 C  
HETATM   29  C   UNL     1      -9.312  11.457  62.960  1.00  0.00    -0.344 C  
HETATM   30  O   UNL     1     -11.633  11.610  63.664  1.00  0.00    -0.424 OA 
ENDBRANCH  27  28
ENDBRANCH   5  27
BRANCH  10  31
HETATM   31  O   UNL     1      -5.280  19.157  68.659  1.00  0.00    -0.187 OA 
BRANCH  31  32
HETATM   32  C   UNL     1      -5.223  20.218  67.851  1.00  0.00    -0.195 C  
HETATM   33  C   UNL     1      -5.219  19.693  66.446  1.00  0.00    -0.162 C  
HETATM   34  O   UNL     1      -5.150  21.377  68.184  1.00  0.00    -0.215 OA 
ENDBRANCH  31  32
ENDBRANCH  10  31
BRANCH   9  35
HETATM   35  N   UNL     1      -8.146  19.102  69.292  1.00  0.00    -0.120 NA 
HETATM   36  C   UNL     1      -9.109  20.610  67.612  1.00  0.00    -0.287 C  
HETATM   37  C   UNL     1      -7.947  20.337  68.557  1.00  0.00     0.119 C  
HETATM   38  C   UNL     1     -10.407  20.757  68.394  1.00  0.00     0.272 C  
HETATM   39  C   UNL     1     -10.622  19.519  69.248  1.00  0.00     0.443 C  
HETATM   40  C   UNL     1      -9.390  19.090  70.059  1.00  0.00     1.091 C  
ENDBRANCH   9  35
TORSDOF 6
ENDMDL
MODEL       71
REMARK 921   NORMALIZED FREE ENERGY PREDICTED BY IDOCK:    2.75 KCAL/MOL
REMARK 922        TOTAL FREE ENERGY PREDICTED BY IDOCK:    2.04 KCAL/MOL
REMARK 923 INTER-LIGAND FREE ENERGY PREDICTED BY IDOCK:   -0.92 KCAL/MOL
REMARK 924 INTRA-LIGAND FREE ENERGY PREDICTED BY IDOCK:    2.96 KCAL/MOL
REMARK 927      BINDING AFFINITY PREDICTED BY RF-SCORE:    0.00 PKD
ROOT
HETATM    1  C   UNL     1     -11.097  16.958  68.584  1.00  0.00    -0.194 C  
HETATM    2  C   UNL     1     -10.191  16.324  69.529  1.00  0.00    -0.251 C  
HETATM    3  C   UNL     1      -9.269  17.267  68.787  1.00  0.00    -0.238 C  
HETATM    4  C   UNL     1      -9.542  14.339  64.417  1.00  0.00     1.908 C  
HETATM    5  C   UNL     1     -10.201  18.021  67.054  1.00  0.00    -0.362 C  
HETATM    6  C   UNL     1     -10.037  18.486  68.278  1.00  0.00    -0.424 C  
HETATM    7  C   UNL     1      -9.560  13.979  65.935  1.00  0.00    -0.186 C  
HETATM    8  C   UNL     1      -8.092  13.301  66.283  1.00  0.00     1.146 C  
HETATM    9  C   UNL     1      -8.077  11.909  67.002  1.00  0.00    -0.167 C  
HETATM   10  C   UNL     1      -9.182  11.153  66.225  1.00  0.00    -0.195 C  
HETATM   11  C   UNL     1     -10.520  11.635  66.778  1.00  0.00    -0.265 C  
HETATM   12  C   UNL     1     -10.350  19.815  68.943  1.00  0.00    -0.304 C  
HETATM   13  C   UNL     1      -8.604  18.078  66.998  1.00  0.00    -0.254 C  
HETATM   14  C   UNL     1     -10.805  12.984  66.079  1.00  0.00    -0.290 C  
HETATM   15  C   UNL     1     -12.136  13.620  66.480  1.00  0.00    -0.469 C  
HETATM   16  C   UNL     1      -8.830  16.570  66.083  1.00  0.00    -0.342 C  
HETATM   17  C   UNL     1     -12.044  14.598  67.637  1.00  0.00    -0.216 C  
HETATM   18  C   UNL     1      -9.685  15.346  66.759  1.00  0.00    -0.254 C  
HETATM   19  C   UNL     1     -11.145  15.782  67.268  1.00  0.00    -0.211 C  
ENDROOT
BRANCH   3  20
HETATM   20  N   UNL     1      -7.512  17.010  69.292  1.00  0.00    -0.165 N  
HETATM   21  C   UNL     1      -7.031  15.822  70.358  1.00  0.00     0.624 C  
HETATM   22  C   UNL     1      -5.535  15.909  70.662  1.00  0.00    -0.115 C  
HETATM   23  C   UNL     1      -6.991  18.320  69.801  1.00  0.00     0.258 C  
HETATM   24  C   UNL     1      -5.166  17.304  71.155  1.00  0.00    -0.110 C  
HETATM   25  C   UNL     1      -6.768  16.553  67.968  1.00  0.00    -0.137 C  
HETATM   26  C   UNL     1      -5.506  18.316  70.079  1.00  0.00    -0.241 C  
ENDBRANCH   3  20
BRANCH   5  27
HETATM   27  O   UNL     1     -10.274  19.559  66.580  1.00  0.00    -0.375 OA 
BRANCH  27  28
HETATM   28  C   UNL     1      -9.509  20.203  65.668  1.00  0.00     0.112 C  
HETATM   29  C   UNL     1      -8.192  20.573  66.310  1.00  0.00     0.014 C  
HETATM   30  O   UNL     1      -9.762  20.281  64.478  1.00  0.00     1.445 OA 
ENDBRANCH  27  28
ENDBRANCH   5  27
BRANCH  10  31
HETATM   31  O   UNL     1      -9.013   9.810  65.816  1.00  0.00    -0.145 OA 
BRANCH  31  32
HETATM   32  C   UNL     1      -8.960   9.348  64.564  1.00  0.00    -0.181 C  
HETATM   33  C   UNL     1      -8.785   7.861  64.658  1.00  0.00     0.240 C  
HETATM   34  O   UNL     1      -9.006  10.002  63.549  1.00  0.00    -0.215 OA 
ENDBRANCH  31  32
ENDBRANCH  10  31
BRANCH   9  35
HETATM   35  N   UNL     1      -6.806  11.188  67.174  1.00  0.00    -0.098 NA 
HETATM   36  C   UNL     1      -5.806  11.110  69.413  1.00  0.00    -0.048 C  
HETATM   37  C   UNL     1      -5.768  11.736  68.026  1.00  0.00    -0.046 C  
HETATM   38  C   UNL     1      -5.569   9.609  69.326  1.00  0.00    -0.035 C  
HETATM   39  C   UNL     1      -6.582   8.994  68.376  1.00  0.00    -0.059 C  
HETATM   40  C   UNL     1      -6.723   9.735  67.037  1.00  0.00    -0.075 C  
ENDBRANCH   9  35
TORSDOF 6
ENDMDL
MODEL       72
REMARK 921   NORMALIZED FREE ENERGY PREDICTED BY IDOCK:    3.39 KCAL/MOL
REMARK 922        TOTAL FREE ENERGY PREDICTED BY IDOCK:    2.90 KCAL/MOL
REMARK 923 INTER-LIGAND FREE ENERGY PREDICTED BY IDOCK:    1.41 KCAL/MOL
REMARK 924 INTRA-LIGAND FREE ENERGY PREDICTED BY IDOCK:    1.50 KCAL/MOL
REMARK 927      BINDING AFFINITY PREDICTED BY RF-SCORE:    0.00 PKD
ROOT
HETATM    1  C   UNL     1      -9.523  14.664  69.597  1.00  0.00     0.275 C  
HETATM    2  C   UNL     1      -9.141  14.873  68.208  1.00  0.00    -0.179 C  
HETATM    3  C   UNL     1     -10.647  14.757  68.111  1.00  0.00    -0.241 C  
HETATM    4  C   UNL     1     -10.471   9.605  69.198  1.00  0.00    -0.230 C  
HETATM    5  C   UNL     1     -11.462  14.017  69.907  1.00  0.00    -0.206 C  
HETATM    6  C   UNL     1     -11.312  15.227  69.404  1.00  0.00    -0.304 C  
HETATM    7  C   UNL     1      -9.509  10.556  68.420  1.00  0.00    -0.158 C  
HETATM    8  C   UNL     1      -9.680  10.200  66.814  1.00  0.00    -0.235 C  
HETATM    9  C   UNL     1      -8.385   9.889  65.989  1.00  0.00    -0.122 C  
HETATM   10  C   UNL     1      -7.611   8.975  66.968  1.00  0.00    -0.091 C  
HETATM   11  C   UNL     1      -6.959   9.888  68.003  1.00  0.00    -0.077 C  
HETATM   12  C   UNL     1     -11.761  16.609  69.847  1.00  0.00     0.541 C  
HETATM   13  C   UNL     1     -12.402  13.786  68.635  1.00  0.00    -0.014 C  
HETATM   14  C   UNL     1      -8.066  10.225  69.027  1.00  0.00    -0.132 C  
HETATM   15  C   UNL     1      -7.596  11.115  70.178  1.00  0.00     1.020 C  
HETATM   16  C   UNL     1     -11.649  12.175  68.682  1.00  0.00    -0.372 C  
HETATM   17  C   UNL     1      -7.795  12.601  69.946  1.00  0.00     1.936 C  
HETATM   18  C   UNL     1     -10.015  12.058  68.653  1.00  0.00    -0.151 C  
HETATM   19  C   UNL     1      -9.284  12.925  69.790  1.00  0.00     2.410 C  
ENDROOT
BRANCH   3  20
HETATM   20  N   UNL     1     -11.197  14.741  66.349  1.00  0.00    -0.341 N  
HETATM   21  C   UNL     1     -12.786  14.931  65.884  1.00  0.00     0.583 C  
HETATM   22  C   UNL     1     -12.954  14.779  64.372  1.00  0.00     0.629 C  
HETATM   23  C   UNL     1     -10.688  13.476  65.727  1.00  0.00    -0.275 C  
HETATM   24  C   UNL     1     -12.375  13.451  63.897  1.00  0.00    -0.410 C  
HETATM   25  C   UNL     1     -10.532  16.026  65.700  1.00  0.00    -0.397 C  
HETATM   26  C   UNL     1     -10.898  13.406  64.233  1.00  0.00    -0.383 C  
ENDBRANCH   3  20
BRANCH   5  27
HETATM   27  O   UNL     1     -12.713  14.615  70.726  1.00  0.00    -0.327 OA 
BRANCH  27  28
HETATM   28  C   UNL     1     -13.080  14.379  72.008  1.00  0.00    -0.361 C  
HETATM   29  C   UNL     1     -11.968  14.833  72.926  1.00  0.00    -0.236 C  
HETATM   30  O   UNL     1     -14.200  14.052  72.363  1.00  0.00    -0.587 OA 
ENDBRANCH  27  28
ENDBRANCH   5  27
BRANCH  10  31
HETATM   31  O   UNL     1      -6.955   7.802  66.527  1.00  0.00    -0.064 OA 
BRANCH  31  32
HETATM   32  C   UNL     1      -5.806   7.299  66.985  1.00  0.00    -0.026 C  
HETATM   33  C   UNL     1      -5.140   8.387  67.774  1.00  0.00    -0.034 C  
HETATM   34  O   UNL     1      -5.366   6.194  66.774  1.00  0.00    -0.008 OA 
ENDBRANCH  31  32
ENDBRANCH  10  31
BRANCH   9  35
HETATM   35  N   UNL     1      -8.499   9.397  64.607  1.00  0.00    -0.156 NA 
HETATM   36  C   UNL     1      -6.469   9.311  63.230  1.00  0.00    -0.091 C  
HETATM   37  C   UNL     1      -7.765  10.048  63.539  1.00  0.00    -0.146 C  
HETATM   38  C   UNL     1      -6.763   7.890  62.770  1.00  0.00    -0.084 C  
HETATM   39  C   UNL     1      -7.605   7.185  63.820  1.00  0.00    -0.109 C  
HETATM   40  C   UNL     1      -8.812   7.999  64.313  1.00  0.00     0.560 C  
ENDBRANCH   9  35
TORSDOF 6
ENDMDL
MODEL       73
REMARK 921   NORMALIZED FREE ENERGY PREDICTED BY IDOCK:    3.63 KCAL/MOL
REMARK 922        TOTAL FREE ENERGY PREDICTED BY IDOCK:    3.23 KCAL/MOL
REMARK 923 INTER-LIGAND FREE ENERGY PREDICTED BY IDOCK:    2.77 KCAL/MOL
REMARK 924 INTRA-LIGAND FREE ENERGY PREDICTED BY IDOCK:    0.46 KCAL/MOL
REMARK 927      BINDING AFFINITY PREDICTED BY RF-SCORE:    0.00 PKD
ROOT
HETATM    1  C   UNL     1      -9.937  12.117  69.284  1.00  0.00     0.444 C  
HETATM    2  C   UNL     1     -10.920  13.089  68.830  1.00  0.00    -0.271 C  
HETATM    3  C   UNL     1     -10.615  12.327  67.559  1.00  0.00    -0.218 C  
HETATM    4  C   UNL     1      -5.807  14.456  67.257  1.00  0.00     0.540 C  
HETATM    5  C   UNL     1      -8.900  11.126  67.795  1.00  0.00    -0.135 C  
HETATM    6  C   UNL     1     -10.196  10.891  67.874  1.00  0.00    -0.205 C  
HETATM    7  C   UNL     1      -7.176  15.003  67.767  1.00  0.00    -0.186 C  
HETATM    8  C   UNL     1      -7.713  16.082  66.634  1.00  0.00    -0.239 C  
HETATM    9  C   UNL     1      -8.123  17.514  67.119  1.00  0.00    -0.210 C  
HETATM   10  C   UNL     1      -6.977  17.842  68.106  1.00  0.00    -0.212 C  
HETATM   11  C   UNL     1      -7.290  17.107  69.406  1.00  0.00     0.009 C  
HETATM   12  C   UNL     1     -11.021   9.631  68.061  1.00  0.00    -0.197 C  
HETATM   13  C   UNL     1      -9.227  11.482  66.271  1.00  0.00    -0.222 C  
HETATM   14  C   UNL     1      -6.827  15.648  69.189  1.00  0.00    -0.159 C  
HETATM   15  C   UNL     1      -7.028  14.747  70.408  1.00  0.00     0.199 C  
HETATM   16  C   UNL     1      -8.003  12.739  66.560  1.00  0.00     0.482 C  
HETATM   17  C   UNL     1      -8.345  13.994  70.425  1.00  0.00     2.620 C  
HETATM   18  C   UNL     1      -8.204  13.777  67.812  1.00  0.00    -0.174 C  
HETATM   19  C   UNL     1      -8.439  13.048  69.224  1.00  0.00     0.851 C  
ENDROOT
BRANCH   3  20
HETATM   20  N   UNL     1     -11.451  13.101  66.107  1.00  0.00    -0.317 N  
HETATM   21  C   UNL     1     -10.738  13.240  64.607  1.00  0.00    -0.400 C  
HETATM   22  C   UNL     1     -11.627  14.008  63.628  1.00  0.00     0.219 C  
HETATM   23  C   UNL     1     -11.909  14.466  66.523  1.00  0.00    -0.390 C  
HETATM   24  C   UNL     1     -12.015  15.365  64.204  1.00  0.00    -0.111 C  
HETATM   25  C   UNL     1     -12.672  12.144  65.778  1.00  0.00     1.343 C  
HETATM   26  C   UNL     1     -12.779  15.154  65.497  1.00  0.00     0.627 C  
ENDBRANCH   3  20
BRANCH   5  27
HETATM   27  O   UNL     1      -8.738   9.573  67.400  1.00  0.00    -0.125 OA 
BRANCH  27  28
HETATM   28  C   UNL     1      -8.167   8.572  68.110  1.00  0.00    -0.120 C  
HETATM   29  C   UNL     1      -7.044   9.143  68.944  1.00  0.00    -0.068 C  
HETATM   30  O   UNL     1      -8.620   7.445  68.213  1.00  0.00    -0.124 OA 
ENDBRANCH  27  28
ENDBRANCH   5  27
BRANCH  10  31
HETATM   31  O   UNL     1      -6.358  19.113  68.128  1.00  0.00    -0.214 OA 
BRANCH  31  32
HETATM   32  C   UNL     1      -5.578  19.615  69.089  1.00  0.00    -0.207 C  
HETATM   33  C   UNL     1      -5.274  21.032  68.703  1.00  0.00    -0.346 C  
HETATM   34  O   UNL     1      -5.165  19.032  70.062  1.00  0.00    -0.193 OA 
ENDBRANCH  31  32
ENDBRANCH  10  31
BRANCH   9  35
HETATM   35  N   UNL     1      -8.437  18.559  66.132  1.00  0.00    -0.479 NA 
HETATM   36  C   UNL     1     -10.752  19.360  65.981  1.00  0.00    -0.512 C  
HETATM   37  C   UNL     1      -9.666  18.490  65.364  1.00  0.00     1.123 C  
HETATM   38  C   UNL     1     -10.317  20.818  65.999  1.00  0.00     0.611 C  
HETATM   39  C   UNL     1      -8.987  20.937  66.723  1.00  0.00     0.065 C  
HETATM   40  C   UNL     1      -7.927  19.922  66.268  1.00  0.00    -0.327 C  
ENDBRANCH   9  35
TORSDOF 6
ENDMDL
MODEL       74
REMARK 921   NORMALIZED FREE ENERGY PREDICTED BY IDOCK:    3.75 KCAL/MOL
REMARK 922        TOTAL FREE ENERGY PREDICTED BY IDOCK:    3.40 KCAL/MOL
REMARK 923 INTER-LIGAND FREE ENERGY PREDICTED BY IDOCK:    2.26 KCAL/MOL
REMARK 924 INTRA-LIGAND FREE ENERGY PREDICTED BY IDOCK:    1.13 KCAL/MOL
REMARK 927      BINDING AFFINITY PREDICTED BY RF-SCORE:    0.00 PKD
ROOT
HETATM    1  C   UNL     1     -10.805  14.942  64.534  1.00  0.00    -0.162 C  
HETATM    2  C   UNL     1     -11.822  14.395  65.419  1.00  0.00    -0.366 C  
HETATM    3  C   UNL     1     -10.942  15.163  66.382  1.00  0.00    -0.329 C  
HETATM    4  C   UNL     1      -7.043  11.662  65.851  1.00  0.00     0.670 C  
HETATM    5  C   UNL     1      -9.129  15.717  65.464  1.00  0.00     0.277 C  
HETATM    6  C   UNL     1     -10.271  16.342  65.679  1.00  0.00    -0.349 C  
HETATM    7  C   UNL     1      -8.597  11.525  65.840  1.00  0.00     0.009 C  
HETATM    8  C   UNL     1      -9.024  10.814  67.271  1.00  0.00    -0.143 C  
HETATM    9  C   UNL     1      -9.936   9.541  67.216  1.00  0.00    -0.189 C  
HETATM   10  C   UNL     1      -9.287   8.752  66.053  1.00  0.00    -0.232 C  
HETATM   11  C   UNL     1      -9.779   9.390  64.757  1.00  0.00     0.160 C  
HETATM   12  C   UNL     1     -10.741  17.769  65.459  1.00  0.00    -0.009 C  
HETATM   13  C   UNL     1      -9.049  15.666  67.060  1.00  0.00    -0.239 C  
HETATM   14  C   UNL     1      -8.896  10.640  64.541  1.00  0.00    -0.189 C  
HETATM   15  C   UNL     1      -9.214  11.408  63.258  1.00  0.00    -0.200 C  
HETATM   16  C   UNL     1      -8.363  14.060  66.726  1.00  0.00     0.075 C  
HETATM   17  C   UNL     1     -10.217  12.534  63.430  1.00  0.00    -0.100 C  
HETATM   18  C   UNL     1      -9.216  13.001  65.813  1.00  0.00     0.246 C  
HETATM   19  C   UNL     1      -9.673  13.595  64.392  1.00  0.00     0.778 C  
ENDROOT
BRANCH   3  20
HETATM   20  N   UNL     1     -11.461  14.872  68.129  1.00  0.00    -0.318 N  
HETATM   21  C   UNL     1     -10.951  15.816  69.405  1.00  0.00    -0.296 C  
HETATM   22  C   UNL     1     -11.464  15.281  70.743  1.00  0.00    -0.361 C  
HETATM   23  C   UNL     1     -11.148  13.445  68.463  1.00  0.00    -0.270 C  
HETATM   24  C   UNL     1     -11.075  13.818  70.922  1.00  0.00     1.300 C  
HETATM   25  C   UNL     1     -13.022  15.152  68.146  1.00  0.00     2.154 C  
HETATM   26  C   UNL     1     -11.687  13.001  69.802  1.00  0.00    -0.346 C  
ENDBRANCH   3  20
BRANCH   5  27
HETATM   27  O   UNL     1      -8.439  17.173  65.474  1.00  0.00    -0.255 OA 
BRANCH  27  28
HETATM   28  C   UNL     1      -7.274  17.556  66.047  1.00  0.00    -0.263 C  
HETATM   29  C   UNL     1      -6.138  16.800  65.398  1.00  0.00     2.693 C  
HETATM   30  O   UNL     1      -7.150  18.501  66.808  1.00  0.00    -0.201 OA 
ENDBRANCH  27  28
ENDBRANCH   5  27
BRANCH  10  31
HETATM   31  O   UNL     1      -9.074   7.356  66.133  1.00  0.00    -0.168 OA 
BRANCH  31  32
HETATM   32  C   UNL     1      -7.918   6.706  65.979  1.00  0.00    -0.112 C  
HETATM   33  C   UNL     1      -7.124   7.469  64.961  1.00  0.00    -0.060 C  
HETATM   34  O   UNL     1      -7.588   5.679  66.523  1.00  0.00    -0.089 OA 
ENDBRANCH  31  32
ENDBRANCH  10  31
BRANCH   9  35
HETATM   35  N   UNL     1     -10.197   8.775  68.444  1.00  0.00    -0.192 NA 
HETATM   36  C   UNL     1      -9.701   6.371  68.445  1.00  0.00    -0.131 C  
HETATM   37  C   UNL     1     -10.775   7.447  68.365  1.00  0.00    -0.096 C  
HETATM   38  C   UNL     1      -8.959   6.459  69.772  1.00  0.00    -0.141 C  
HETATM   39  C   UNL     1      -8.401   7.862  69.944  1.00  0.00    -0.122 C  
HETATM   40  C   UNL     1      -9.413   8.983  69.660  1.00  0.00    -0.171 C  
ENDBRANCH   9  35
TORSDOF 6
ENDMDL
MODEL       75
REMARK 921   NORMALIZED FREE ENERGY PREDICTED BY IDOCK:    4.13 KCAL/MOL
REMARK 922        TOTAL FREE ENERGY PREDICTED BY IDOCK:    3.91 KCAL/MOL
REMARK 923 INTER-LIGAND FREE ENERGY PREDICTED BY IDOCK:    1.01 KCAL/MOL
REMARK 924 INTRA-LIGAND FREE ENERGY PREDICTED BY IDOCK:    2.90 KCAL/MOL
REMARK 927      BINDING AFFINITY PREDICTED BY RF-SCORE:    0.00 PKD
ROOT
HETATM    1  C   UNL     1     -12.037   6.190  71.592  1.00  0.00    -0.105 C  
HETATM    2  C   UNL     1     -12.490   6.134  70.210  1.00  0.00     1.366 C  
HETATM    3  C   UNL     1     -11.035   5.735  70.085  1.00  0.00    -0.298 C  
HETATM    4  C   UNL     1      -9.439  10.633  71.189  1.00  0.00     3.860 C  
HETATM    5  C   UNL     1      -9.989   6.140  71.868  1.00  0.00    -0.164 C  
HETATM    6  C   UNL     1     -10.547   5.056  71.364  1.00  0.00    -0.161 C  
HETATM    7  C   UNL     1     -10.679  10.070  70.427  1.00  0.00    -0.369 C  
HETATM    8  C   UNL     1     -10.424  10.362  68.818  1.00  0.00    -0.219 C  
HETATM    9  C   UNL     1     -11.551  11.100  68.018  1.00  0.00    -0.263 C  
HETATM   10  C   UNL     1     -11.954  12.213  69.015  1.00  0.00    -0.247 C  
HETATM   11  C   UNL     1     -12.859  11.566  70.059  1.00  0.00     0.175 C  
HETATM   12  C   UNL     1     -10.585   3.601  71.796  1.00  0.00     0.359 C  
HETATM   13  C   UNL     1      -9.046   6.050  70.579  1.00  0.00    -0.157 C  
HETATM   14  C   UNL     1     -11.915  10.865  71.061  1.00  0.00    -0.375 C  
HETATM   15  C   UNL     1     -12.639  10.176  72.218  1.00  0.00    -0.058 C  
HETATM   16  C   UNL     1      -9.210   7.821  70.644  1.00  0.00    -0.161 C  
HETATM   17  C   UNL     1     -12.959   8.712  71.979  1.00  0.00    -0.419 C  
HETATM   18  C   UNL     1     -10.708   8.484  70.646  1.00  0.00    -0.251 C  
HETATM   19  C   UNL     1     -11.670   7.905  71.794  1.00  0.00    -0.329 C  
ENDROOT
BRANCH   3  20
HETATM   20  N   UNL     1     -10.542   5.580  68.314  1.00  0.00    -0.173 N  
HETATM   21  C   UNL     1     -10.127   4.130  67.603  1.00  0.00     0.133 C  
HETATM   22  C   UNL     1      -9.672   4.321  66.156  1.00  0.00    -0.220 C  
HETATM   23  C   UNL     1      -9.421   6.545  68.069  1.00  0.00    -0.120 C  
HETATM   24  C   UNL     1      -8.541   5.340  66.077  1.00  0.00    -0.124 C  
HETATM   25  C   UNL     1     -11.841   5.964  67.490  1.00  0.00     2.483 C  
HETATM   26  C   UNL     1      -9.033   6.669  66.614  1.00  0.00    -0.150 C  
ENDBRANCH   3  20
BRANCH   5  27
HETATM   27  O   UNL     1      -9.000   5.146  72.662  1.00  0.00    -0.125 OA 
BRANCH  27  28
HETATM   28  C   UNL     1      -7.740   5.375  73.101  1.00  0.00    -0.101 C  
HETATM   29  C   UNL     1      -7.720   6.672  73.877  1.00  0.00    -0.088 C  
HETATM   30  O   UNL     1      -6.829   4.566  73.055  1.00  0.00    -0.057 OA 
ENDBRANCH  27  28
ENDBRANCH   5  27
BRANCH  10  31
HETATM   31  O   UNL     1     -12.182  13.542  68.589  1.00  0.00    -0.323 OA 
BRANCH  31  32
HETATM   32  C   UNL     1     -11.719  14.662  69.152  1.00  0.00    -0.309 C  
HETATM   33  C   UNL     1     -11.079  15.464  68.059  1.00  0.00    -0.312 C  
HETATM   34  O   UNL     1     -11.770  14.956  70.323  1.00  0.00    -0.269 OA 
ENDBRANCH  31  32
ENDBRANCH  10  31
BRANCH   9  35
HETATM   35  N   UNL     1     -11.300  11.537  66.636  1.00  0.00    -0.397 NA 
HETATM   36  C   UNL     1     -11.734  13.882  66.058  1.00  0.00    -0.381 C  
HETATM   37  C   UNL     1     -12.223  12.443  65.979  1.00  0.00    -0.092 C  
HETATM   38  C   UNL     1     -10.390  14.025  65.358  1.00  0.00    -0.377 C  
HETATM   39  C   UNL     1      -9.404  13.035  65.954  1.00  0.00     0.047 C  
HETATM   40  C   UNL     1      -9.947  11.604  66.086  1.00  0.00    -0.221 C  
ENDBRANCH   9  35
TORSDOF 6
ENDMDL
MODEL       76
REMARK 921   NORMALIZED FREE ENERGY PREDICTED BY IDOCK:    4.57 KCAL/MOL
REMARK 922        TOTAL FREE ENERGY PREDICTED BY IDOCK:    4.50 KCAL/MOL
REMARK 923 INTER-LIGAND FREE ENERGY PREDICTED BY IDOCK:    5.38 KCAL/MOL
REMARK 924 INTRA-LIGAND FREE ENERGY PREDICTED BY IDOCK:   -0.88 KCAL/MOL
REMARK 927      BINDING AFFINITY PREDICTED BY RF-SCORE:    0.00 PKD
ROOT
HETATM    1  C   UNL     1      -8.522  15.623  70.512  1.00  0.00     1.683 C  
HETATM    2  C   UNL     1      -8.596  14.171  70.441  1.00  0.00     2.559 C  
HETATM    3  C   UNL     1      -7.189  14.443  69.953  1.00  0.00     0.113 C  
HETATM    4  C   UNL     1      -8.985  16.494  65.445  1.00  0.00     0.923 C  
HETATM    5  C   UNL     1      -6.922  16.490  69.531  1.00  0.00    -0.136 C  
HETATM    6  C   UNL     1      -6.640  15.729  70.571  1.00  0.00     0.469 C  
HETATM    7  C   UNL     1      -9.498  15.340  66.362  1.00  0.00    -0.326 C  
HETATM    8  C   UNL     1      -9.174  13.922  65.574  1.00  0.00     0.540 C  
HETATM    9  C   UNL     1     -10.350  12.907  65.374  1.00  0.00    -0.296 C  
HETATM   10  C   UNL     1     -11.500  13.852  64.951  1.00  0.00    -0.350 C  
HETATM   11  C   UNL     1     -12.029  14.503  66.226  1.00  0.00    -0.335 C  
HETATM   12  C   UNL     1      -5.900  15.970  71.875  1.00  0.00     1.171 C  
HETATM   13  C   UNL     1      -5.889  15.539  68.766  1.00  0.00    -0.096 C  
HETATM   14  C   UNL     1     -11.056  15.659  66.546  1.00  0.00    -0.135 C  
HETATM   15  C   UNL     1     -11.438  16.467  67.786  1.00  0.00     0.068 C  
HETATM   16  C   UNL     1      -7.063  15.742  67.445  1.00  0.00    -0.236 C  
HETATM   17  C   UNL     1     -10.794  15.987  69.074  1.00  0.00    -0.283 C  
HETATM   18  C   UNL     1      -8.636  15.369  67.711  1.00  0.00    -0.162 C  
HETATM   19  C   UNL     1      -9.270  16.109  68.988  1.00  0.00    -0.252 C  
ENDROOT
BRANCH   3  20
HETATM   20  N   UNL     1      -6.385  12.893  69.356  1.00  0.00    -0.109 N  
HETATM   21  C   UNL     1      -5.681  12.748  67.852  1.00  0.00    -0.116 C  
HETATM   22  C   UNL     1      -5.182  11.325  67.597  1.00  0.00    -0.043 C  
HETATM   23  C   UNL     1      -7.378  11.781  69.504  1.00  0.00     0.238 C  
HETATM   24  C   UNL     1      -6.305  10.315  67.803  1.00  0.00    -0.057 C  
HETATM   25  C   UNL     1      -5.128  12.692  70.303  1.00  0.00    -0.101 C  
HETATM   26  C   UNL     1      -6.802  10.411  69.232  1.00  0.00    -0.073 C  
ENDBRANCH   3  20
BRANCH   5  27
HETATM   27  O   UNL     1      -5.705  17.431  70.009  1.00  0.00    -0.231 OA 
BRANCH  27  28
HETATM   28  C   UNL     1      -5.593  18.777  69.932  1.00  0.00    -0.237 C  
HETATM   29  C   UNL     1      -5.603  19.187  68.477  1.00  0.00    -0.213 C  
HETATM   30  O   UNL     1      -5.681  19.539  70.881  1.00  0.00    -0.235 OA 
ENDBRANCH  27  28
ENDBRANCH   5  27
BRANCH  10  31
HETATM   31  O   UNL     1     -12.378  13.524  63.892  1.00  0.00    -0.634 OA 
BRANCH  31  32
HETATM   32  C   UNL     1     -13.167  12.450  63.800  1.00  0.00     0.256 C  
HETATM   33  C   UNL     1     -12.687  11.660  62.619  1.00  0.00     1.105 C  
HETATM   34  O   UNL     1     -14.109  12.183  64.507  1.00  0.00     0.902 OA 
ENDBRANCH  31  32
ENDBRANCH  10  31
BRANCH   9  35
HETATM   35  N   UNL     1     -10.154  11.718  64.530  1.00  0.00    -0.265 NA 
HETATM   36  C   UNL     1      -7.859  11.046  63.980  1.00  0.00     0.564 C  
HETATM   37  C   UNL     1      -9.136  11.718  63.496  1.00  0.00     0.226 C  
HETATM   38  C   UNL     1      -8.128   9.593  64.344  1.00  0.00    -0.141 C  
HETATM   39  C   UNL     1      -9.248   9.530  65.368  1.00  0.00    -0.306 C  
HETATM   40  C   UNL     1     -10.480  10.375  65.009  1.00  0.00    -0.069 C  
ENDBRANCH   9  35
TORSDOF 6
ENDMDL
MODEL       77
REMARK 921   NORMALIZED FREE ENERGY PREDICTED BY IDOCK:    5.03 KCAL/MOL
REMARK 922        TOTAL FREE ENERGY PREDICTED BY IDOCK:    5.13 KCAL/MOL
REMARK 923 INTER-LIGAND FREE ENERGY PREDICTED BY IDOCK:    4.20 KCAL/MOL
REMARK 924 INTRA-LIGAND FREE ENERGY PREDICTED BY IDOCK:    0.93 KCAL/MOL
REMARK 927      BINDING AFFINITY PREDICTED BY RF-SCORE:    0.00 PKD
ROOT
HETATM    1  C   UNL     1     -12.442  12.351  68.356  1.00  0.00     0.722 C  
HETATM    2  C   UNL     1     -12.395  10.928  68.656  1.00  0.00     0.345 C  
HETATM    3  C   UNL     1     -11.291  11.475  69.535  1.00  0.00    -0.274 C  
HETATM    4  C   UNL     1      -8.245  12.466  65.353  1.00  0.00     1.893 C  
HETATM    5  C   UNL     1     -10.821  13.459  69.004  1.00  0.00    -0.183 C  
HETATM    6  C   UNL     1     -11.583  12.920  69.936  1.00  0.00    -0.246 C  
HETATM    7  C   UNL     1      -9.280  11.341  65.666  1.00  0.00    -0.231 C  
HETATM    8  C   UNL     1      -8.414   9.962  65.954  1.00  0.00    -0.137 C  
HETATM    9  C   UNL     1      -8.795   8.673  65.149  1.00  0.00    -0.103 C  
HETATM   10  C   UNL     1      -8.995   9.250  63.727  1.00  0.00    -0.040 C  
HETATM   11  C   UNL     1     -10.376   9.900  63.704  1.00  0.00     1.483 C  
HETATM   12  C   UNL     1     -12.369  13.490  71.104  1.00  0.00    -0.377 C  
HETATM   13  C   UNL     1      -9.638  12.704  69.772  1.00  0.00     2.174 C  
HETATM   14  C   UNL     1     -10.199  11.289  64.357  1.00  0.00    -0.377 C  
HETATM   15  C   UNL     1     -11.481  12.121  64.398  1.00  0.00    -0.417 C  
HETATM   16  C   UNL     1      -9.054  12.454  68.110  1.00  0.00    -0.200 C  
HETATM   17  C   UNL     1     -12.289  11.972  65.674  1.00  0.00     0.366 C  
HETATM   18  C   UNL     1     -10.043  11.742  67.015  1.00  0.00    -0.232 C  
HETATM   19  C   UNL     1     -11.477  12.452  66.881  1.00  0.00    -0.423 C  
ENDROOT
BRANCH   3  20
HETATM   20  N   UNL     1     -10.358  10.109  70.353  1.00  0.00    -0.204 N  
HETATM   21  C   UNL     1      -8.695  10.081  70.476  1.00  0.00     0.440 C  
HETATM   22  C   UNL     1      -8.198   8.784  71.115  1.00  0.00    -0.204 C  
HETATM   23  C   UNL     1     -10.789   8.821  69.717  1.00  0.00    -0.193 C  
HETATM   24  C   UNL     1      -8.736   7.572  70.362  1.00  0.00    -0.144 C  
HETATM   25  C   UNL     1     -10.777  10.182  71.880  1.00  0.00     2.008 C  
HETATM   26  C   UNL     1     -10.251   7.592  70.409  1.00  0.00    -0.202 C  
ENDBRANCH   3  20
BRANCH   5  27
HETATM   27  O   UNL     1     -10.662  14.719  69.994  1.00  0.00    -0.184 OA 
BRANCH  27  28
HETATM   28  C   UNL     1     -10.096  15.924  69.751  1.00  0.00    -0.247 C  
HETATM   29  C   UNL     1     -11.158  16.994  69.856  1.00  0.00     0.355 C  
HETATM   30  O   UNL     1      -8.896  16.126  69.669  1.00  0.00    -0.092 OA 
ENDBRANCH  27  28
ENDBRANCH   5  27
BRANCH  10  31
HETATM   31  O   UNL     1      -8.489   8.592  62.582  1.00  0.00    -0.190 OA 
BRANCH  31  32
HETATM   32  C   UNL     1      -7.664   7.542  62.552  1.00  0.00    -0.120 C  
HETATM   33  C   UNL     1      -8.524   6.319  62.430  1.00  0.00     0.023 C  
HETATM   34  O   UNL     1      -6.460   7.566  62.645  1.00  0.00    -0.064 OA 
ENDBRANCH  31  32
ENDBRANCH  10  31
BRANCH   9  35
HETATM   35  N   UNL     1      -7.946   7.475  65.242  1.00  0.00    -0.120 NA 
HETATM   36  C   UNL     1      -6.357   7.315  67.105  1.00  0.00    -0.051 C  
HETATM   37  C   UNL     1      -6.551   7.598  65.622  1.00  0.00    -0.045 C  
HETATM   38  C   UNL     1      -6.787   5.893  67.435  1.00  0.00    -0.063 C  
HETATM   39  C   UNL     1      -8.221   5.683  66.980  1.00  0.00    -0.101 C  
HETATM   40  C   UNL     1      -8.505   6.159  65.547  1.00  0.00    -0.149 C  
ENDBRANCH   9  35
TORSDOF 6
ENDMDL
MODEL       78
REMARK 921   NORMALIZED FREE ENERGY PREDICTED BY IDOCK:    5.22 KCAL/MOL
REMARK 922        TOTAL FREE ENERGY PREDICTED BY IDOCK:    5.38 KCAL/MOL
REMARK 923 INTER-LIGAND FREE ENERGY PREDICTED BY IDOCK:    4.32 KCAL/MOL
REMARK 924 INTRA-LIGAND FREE ENERGY PREDICTED BY IDOCK:    1.06 KCAL/MOL
REMARK 927      BINDING AFFINITY PREDICTED BY RF-SCORE:    0.00 PKD
ROOT
HETATM    1  C   UNL     1     -10.131  14.398  68.086  1.00  0.00    -0.226 C  
HETATM    2  C   UNL     1      -8.897  13.770  68.534  1.00  0.00    -0.116 C  
HETATM    3  C   UNL     1      -9.038  13.228  67.128  1.00  0.00    -0.231 C  
HETATM    4  C   UNL     1     -13.124  10.217  68.537  1.00  0.00     5.183 C  
HETATM    5  C   UNL     1     -10.963  13.615  66.363  1.00  0.00    -0.297 C  
HETATM    6  C   UNL     1      -9.794  14.215  66.240  1.00  0.00    -0.321 C  
HETATM    7  C   UNL     1     -11.833  10.668  69.289  1.00  0.00    -0.309 C  
HETATM    8  C   UNL     1     -10.844   9.345  69.376  1.00  0.00    -0.208 C  
HETATM    9  C   UNL     1     -10.286   8.937  70.782  1.00  0.00    -0.226 C  
HETATM   10  C   UNL     1     -11.544   9.097  71.668  1.00  0.00    -0.379 C  
HETATM   11  C   UNL     1     -11.697  10.589  71.954  1.00  0.00     0.853 C  
HETATM   12  C   UNL     1      -9.300  15.383  65.404  1.00  0.00     0.140 C  
HETATM   13  C   UNL     1     -10.222  12.392  65.645  1.00  0.00    -0.285 C  
HETATM   14  C   UNL     1     -12.373  11.191  70.702  1.00  0.00    -0.482 C  
HETATM   15  C   UNL     1     -12.647  12.692  70.807  1.00  0.00    -0.302 C  
HETATM   16  C   UNL     1     -11.209  11.449  66.786  1.00  0.00    -0.319 C  
HETATM   17  C   UNL     1     -11.545  13.574  70.250  1.00  0.00    -0.138 C  
HETATM   18  C   UNL     1     -11.107  11.775  68.388  1.00  0.00    -0.286 C  
HETATM   19  C   UNL     1     -11.360  13.319  68.752  1.00  0.00    -0.331 C  
ENDROOT
BRANCH   3  20
HETATM   20  N   UNL     1      -7.749  11.955  66.778  1.00  0.00    -0.101 N  
HETATM   21  C   UNL     1      -7.728  11.030  65.391  1.00  0.00     0.215 C  
HETATM   22  C   UNL     1      -6.602   9.996  65.419  1.00  0.00    -0.110 C  
HETATM   23  C   UNL     1      -7.703  11.021  67.950  1.00  0.00    -0.104 C  
HETATM   24  C   UNL     1      -6.689   9.139  66.676  1.00  0.00    -0.076 C  
HETATM   25  C   UNL     1      -6.398  12.772  66.621  1.00  0.00     1.234 C  
HETATM   26  C   UNL     1      -6.563  10.032  67.894  1.00  0.00    -0.063 C  
ENDBRANCH   3  20
BRANCH   5  27
HETATM   27  O   UNL     1     -11.329  14.240  64.924  1.00  0.00    -0.339 OA 
BRANCH  27  28
HETATM   28  C   UNL     1     -12.535  14.314  64.314  1.00  0.00    -0.272 C  
HETATM   29  C   UNL     1     -12.605  13.255  63.238  1.00  0.00    -0.054 C  
HETATM   30  O   UNL     1     -13.476  14.982  64.709  1.00  0.00     0.392 OA 
ENDBRANCH  27  28
ENDBRANCH   5  27
BRANCH  10  31
HETATM   31  O   UNL     1     -11.888   8.137  72.648  1.00  0.00    -0.395 OA 
BRANCH  31  32
HETATM   32  C   UNL     1     -12.862   7.226  72.579  1.00  0.00     0.362 C  
HETATM   33  C   UNL     1     -12.950   6.792  71.146  1.00  0.00    -0.152 C  
HETATM   34  O   UNL     1     -13.565   6.850  73.487  1.00  0.00     3.184 OA 
ENDBRANCH  31  32
ENDBRANCH  10  31
BRANCH   9  35
HETATM   35  N   UNL     1      -9.549   7.673  70.937  1.00  0.00    -0.165 NA 
HETATM   36  C   UNL     1      -9.731   6.472  73.069  1.00  0.00    -0.167 C  
HETATM   37  C   UNL     1      -8.876   7.370  72.186  1.00  0.00    -0.124 C  
HETATM   38  C   UNL     1     -10.003   5.146  72.373  1.00  0.00    -0.225 C  
HETATM   39  C   UNL     1     -10.634   5.409  71.017  1.00  0.00    -0.275 C  
HETATM   40  C   UNL     1      -9.910   6.476  70.180  1.00  0.00    -0.166 C  
ENDBRANCH   9  35
TORSDOF 6
ENDMDL
MODEL       79
REMARK 921   NORMALIZED FREE ENERGY PREDICTED BY IDOCK:    5.64 KCAL/MOL
REMARK 922        TOTAL FREE ENERGY PREDICTED BY IDOCK:    5.95 KCAL/MOL
REMARK 923 INTER-LIGAND FREE ENERGY PREDICTED BY IDOCK:    5.69 KCAL/MOL
REMARK 924 INTRA-LIGAND FREE ENERGY PREDICTED BY IDOCK:    0.25 KCAL/MOL
REMARK 927      BINDING AFFINITY PREDICTED BY RF-SCORE:    0.00 PKD
ROOT
HETATM    1  C   UNL     1      -8.291  17.149  66.452  1.00  0.00    -0.315 C  
HETATM    2  C   UNL     1      -8.815  15.976  65.768  1.00  0.00     0.008 C  
HETATM    3  C   UNL     1     -10.022  16.458  66.544  1.00  0.00    -0.282 C  
HETATM    4  C   UNL     1      -7.864  14.975  71.115  1.00  0.00     2.585 C  
HETATM    5  C   UNL     1      -9.468  17.897  67.979  1.00  0.00    -0.279 C  
HETATM    6  C   UNL     1      -9.962  17.970  66.757  1.00  0.00    -0.346 C  
HETATM    7  C   UNL     1      -7.798  14.384  69.672  1.00  0.00     0.280 C  
HETATM    8  C   UNL     1      -8.720  13.011  69.676  1.00  0.00     1.927 C  
HETATM    9  C   UNL     1      -8.071  11.688  69.144  1.00  0.00     0.195 C  
HETATM   10  C   UNL     1      -6.669  11.753  69.796  1.00  0.00     0.016 C  
HETATM   11  C   UNL     1      -5.836  12.720  68.959  1.00  0.00    -0.076 C  
HETATM   12  C   UNL     1     -10.451  19.118  65.892  1.00  0.00    -0.500 C  
HETATM   13  C   UNL     1     -10.847  17.159  68.312  1.00  0.00    -0.314 C  
HETATM   14  C   UNL     1      -6.236  14.137  69.428  1.00  0.00    -0.109 C  
HETATM   15  C   UNL     1      -5.476  15.261  68.723  1.00  0.00    -0.090 C  
HETATM   16  C   UNL     1      -9.784  16.178  69.347  1.00  0.00    -0.219 C  
HETATM   17  C   UNL     1      -6.170  15.815  67.492  1.00  0.00    -0.173 C  
HETATM   18  C   UNL     1      -8.481  15.440  68.681  1.00  0.00    -0.170 C  
HETATM   19  C   UNL     1      -7.517  16.437  67.870  1.00  0.00    -0.151 C  
ENDROOT
BRANCH   3  20
HETATM   20  N   UNL     1     -11.422  15.265  66.395  1.00  0.00    -0.170 N  
HETATM   21  C   UNL     1     -11.356  13.699  66.965  1.00  0.00    -0.324 C  
HETATM   22  C   UNL     1     -12.623  12.918  66.617  1.00  0.00     0.479 C  
HETATM   23  C   UNL     1     -11.818  15.208  64.951  1.00  0.00    -0.239 C  
HETATM   24  C   UNL     1     -12.893  12.970  65.117  1.00  0.00    -0.335 C  
HETATM   25  C   UNL     1     -12.575  15.871  67.300  1.00  0.00     2.263 C  
HETATM   26  C   UNL     1     -13.078  14.414  64.697  1.00  0.00     0.559 C  
ENDBRANCH   3  20
BRANCH   5  27
HETATM   27  O   UNL     1     -10.166  19.325  68.244  1.00  0.00    -0.393 OA 
BRANCH  27  28
HETATM   28  C   UNL     1      -9.630  20.444  68.784  1.00  0.00     0.282 C  
HETATM   29  C   UNL     1      -9.819  20.403  70.283  1.00  0.00     0.981 C  
HETATM   30  O   UNL     1      -8.932  21.242  68.182  1.00  0.00     0.592 OA 
ENDBRANCH  27  28
ENDBRANCH   5  27
BRANCH  10  31
HETATM   31  O   UNL     1      -6.073  10.615  70.388  1.00  0.00    -0.110 OA 
BRANCH  31  32
HETATM   32  C   UNL     1      -5.622  10.498  71.639  1.00  0.00     0.185 C  
HETATM   33  C   UNL     1      -5.597   9.032  71.955  1.00  0.00    -0.062 C  
HETATM   34  O   UNL     1      -5.327  11.398  72.388  1.00  0.00    -0.246 OA 
ENDBRANCH  31  32
ENDBRANCH  10  31
BRANCH   9  35
HETATM   35  N   UNL     1      -8.787  10.411  69.290  1.00  0.00    -0.169 NA 
HETATM   36  C   UNL     1     -10.080  10.029  71.340  1.00  0.00     1.131 C  
HETATM   37  C   UNL     1      -8.803   9.726  70.568  1.00  0.00     0.020 C  
HETATM   38  C   UNL     1     -11.297   9.551  70.560  1.00  0.00    -0.343 C  
HETATM   39  C   UNL     1     -11.285  10.177  69.176  1.00  0.00    -0.234 C  
HETATM   40  C   UNL     1      -9.935  10.075  68.449  1.00  0.00    -0.160 C  
ENDBRANCH   9  35
TORSDOF 6
ENDMDL
MODEL       80
REMARK 921   NORMALIZED FREE ENERGY PREDICTED BY IDOCK:    5.80 KCAL/MOL
REMARK 922        TOTAL FREE ENERGY PREDICTED BY IDOCK:    6.17 KCAL/MOL
REMARK 923 INTER-LIGAND FREE ENERGY PREDICTED BY IDOCK:    0.35 KCAL/MOL
REMARK 924 INTRA-LIGAND FREE ENERGY PREDICTED BY IDOCK:    5.82 KCAL/MOL
REMARK 927      BINDING AFFINITY PREDICTED BY RF-SCORE:    0.00 PKD
ROOT
HETATM    1  C   UNL     1      -9.871  10.854  64.832  1.00  0.00    -0.339 C  
HETATM    2  C   UNL     1      -8.494  11.244  65.094  1.00  0.00     0.235 C  
HETATM    3  C   UNL     1      -8.911  10.637  66.417  1.00  0.00    -0.154 C  
HETATM    4  C   UNL     1     -12.091  14.706  67.456  1.00  0.00    -0.212 C  
HETATM    5  C   UNL     1     -10.998  10.366  66.496  1.00  0.00     0.054 C  
HETATM    6  C   UNL     1      -9.985   9.571  66.210  1.00  0.00    -0.344 C  
HETATM    7  C   UNL     1     -10.723  14.595  66.714  1.00  0.00    -0.301 C  
HETATM    8  C   UNL     1      -9.581  15.247  67.717  1.00  0.00    -0.206 C  
HETATM    9  C   UNL     1      -8.642  16.358  67.136  1.00  0.00    -0.181 C  
HETATM   10  C   UNL     1      -9.649  17.225  66.344  1.00  0.00    -0.274 C  
HETATM   11  C   UNL     1      -9.917  16.501  65.028  1.00  0.00     0.672 C  
HETATM   12  C   UNL     1      -9.870   8.085  65.920  1.00  0.00     0.250 C  
HETATM   13  C   UNL     1     -10.309  10.450  67.936  1.00  0.00    -0.227 C  
HETATM   14  C   UNL     1     -10.956  15.404  65.354  1.00  0.00    -0.376 C  
HETATM   15  C   UNL     1     -11.386  14.579  64.141  1.00  0.00     0.009 C  
HETATM   16  C   UNL     1     -10.849  12.140  67.822  1.00  0.00    -0.263 C  
HETATM   17  C   UNL     1     -10.582  13.310  63.925  1.00  0.00    -0.075 C  
HETATM   18  C   UNL     1     -10.394  13.039  66.530  1.00  0.00    -0.278 C  
HETATM   19  C   UNL     1     -10.745  12.362  65.116  1.00  0.00    -0.327 C  
ENDROOT
BRANCH   3  20
HETATM   20  N   UNL     1      -7.596  10.865  67.692  1.00  0.00    -0.095 N  
HETATM   21  C   UNL     1      -5.972  10.656  67.380  1.00  0.00    -0.052 C  
HETATM   22  C   UNL     1      -5.128  10.817  68.645  1.00  0.00    -0.041 C  
HETATM   23  C   UNL     1      -7.949  10.002  68.866  1.00  0.00    -0.101 C  
HETATM   24  C   UNL     1      -5.623   9.884  69.744  1.00  0.00    -0.037 C  
HETATM   25  C   UNL     1      -7.642  12.407  68.059  1.00  0.00    -0.128 C  
HETATM   26  C   UNL     1      -7.064  10.222  70.070  1.00  0.00    -0.161 C  
ENDBRANCH   3  20
BRANCH   5  27
HETATM   27  O   UNL     1     -11.790   9.039  66.949  1.00  0.00     2.567 OA 
BRANCH  27  28
HETATM   28  C   UNL     1     -11.442   8.119  67.879  1.00  0.00     1.336 C  
HETATM   29  C   UNL     1     -11.023   6.848  67.176  1.00  0.00    -0.427 C  
HETATM   30  O   UNL     1     -11.292   8.351  69.066  1.00  0.00     0.294 OA 
ENDBRANCH  27  28
ENDBRANCH   5  27
BRANCH  10  31
HETATM   31  O   UNL     1      -9.610  18.638  66.394  1.00  0.00    -0.322 OA 
BRANCH  31  32
HETATM   32  C   UNL     1     -10.560  19.487  65.992  1.00  0.00    -0.491 C  
HETATM   33  C   UNL     1     -11.321  19.897  67.218  1.00  0.00     0.381 C  
HETATM   34  O   UNL     1     -10.790  19.830  64.857  1.00  0.00    -0.157 OA 
ENDBRANCH  31  32
ENDBRANCH  10  31
BRANCH   9  35
HETATM   35  N   UNL     1      -7.732  17.089  68.033  1.00  0.00    -0.176 NA 
HETATM   36  C   UNL     1      -7.227  19.435  67.519  1.00  0.00    -0.247 C  
HETATM   37  C   UNL     1      -6.739  17.993  67.484  1.00  0.00    -0.182 C  
HETATM   38  C   UNL     1      -7.488  19.872  68.954  1.00  0.00    -0.233 C  
HETATM   39  C   UNL     1      -8.463  18.907  69.605  1.00  0.00     0.615 C  
HETATM   40  C   UNL     1      -8.112  17.424  69.405  1.00  0.00     0.343 C  
ENDBRANCH   9  35
TORSDOF 6
ENDMDL
MODEL       81
REMARK 921   NORMALIZED FREE ENERGY PREDICTED BY IDOCK:    7.33 KCAL/MOL
REMARK 922        TOTAL FREE ENERGY PREDICTED BY IDOCK:    8.22 KCAL/MOL
REMARK 923 INTER-LIGAND FREE ENERGY PREDICTED BY IDOCK:    7.68 KCAL/MOL
REMARK 924 INTRA-LIGAND FREE ENERGY PREDICTED BY IDOCK:    0.54 KCAL/MOL
REMARK 927      BINDING AFFINITY PREDICTED BY RF-SCORE:    0.00 PKD
ROOT
HETATM    1  C   UNL     1      -7.495  15.863  66.237  1.00  0.00     0.597 C  
HETATM    2  C   UNL     1      -7.964  14.835  65.320  1.00  0.00     6.095 C  
HETATM    3  C   UNL     1      -9.250  15.283  65.982  1.00  0.00    -0.273 C  
HETATM    4  C   UNL     1      -7.862  13.037  70.541  1.00  0.00     4.267 C  
HETATM    5  C   UNL     1      -8.850  16.468  67.677  1.00  0.00    -0.192 C  
HETATM    6  C   UNL     1      -9.153  16.743  66.423  1.00  0.00    -0.321 C  
HETATM    7  C   UNL     1      -7.610  12.650  69.050  1.00  0.00     0.146 C  
HETATM    8  C   UNL     1      -8.584  11.354  68.722  1.00  0.00    -0.085 C  
HETATM    9  C   UNL     1      -7.924  10.078  68.097  1.00  0.00    -0.100 C  
HETATM   10  C   UNL     1      -6.633   9.958  68.941  1.00  0.00    -0.045 C  
HETATM   11  C   UNL     1      -5.642  10.976  68.381  1.00  0.00    -0.043 C  
HETATM   12  C   UNL     1      -9.456  18.030  65.677  1.00  0.00     0.542 C  
HETATM   13  C   UNL     1     -10.295  15.784  67.701  1.00  0.00    -0.281 C  
HETATM   14  C   UNL     1      -6.042  12.336  68.994  1.00  0.00    -0.076 C  
HETATM   15  C   UNL     1      -5.136  13.495  68.575  1.00  0.00    -0.081 C  
HETATM   16  C   UNL     1      -9.442  14.599  68.718  1.00  0.00    -0.199 C  
HETATM   17  C   UNL     1      -5.614  14.259  67.355  1.00  0.00     0.356 C  
HETATM   18  C   UNL     1      -8.091  13.876  68.140  1.00  0.00    -0.150 C  
HETATM   19  C   UNL     1      -6.973  14.911  67.628  1.00  0.00    -0.207 C  
ENDROOT
BRANCH   3  20
HETATM   20  N   UNL     1     -10.665  14.218  65.465  1.00  0.00    -0.314 N  
HETATM   21  C   UNL     1     -11.606  13.358  66.540  1.00  0.00    -0.357 C  
HETATM   22  C   UNL     1     -12.640  12.493  65.820  1.00  0.00     0.193 C  
HETATM   23  C   UNL     1     -10.156  13.255  64.435  1.00  0.00    -0.163 C  
HETATM   24  C   UNL     1     -11.963  11.584  64.799  1.00  0.00     0.164 C  
HETATM   25  C   UNL     1     -11.733  15.221  64.857  1.00  0.00    -0.230 C  
HETATM   26  C   UNL     1     -11.242  12.438  63.776  1.00  0.00    -0.520 C  
ENDBRANCH   3  20
BRANCH   5  27
HETATM   27  O   UNL     1      -9.514  17.888  68.050  1.00  0.00    -0.265 OA 
BRANCH  27  28
HETATM   28  C   UNL     1     -10.264  18.217  69.127  1.00  0.00    -0.116 C  
HETATM   29  C   UNL     1     -10.068  19.684  69.430  1.00  0.00    -0.214 C  
HETATM   30  O   UNL     1     -11.111  17.499  69.631  1.00  0.00     0.480 OA 
ENDBRANCH  27  28
ENDBRANCH   5  27
BRANCH  10  31
HETATM   31  O   UNL     1      -6.183   8.712  69.436  1.00  0.00    -0.040 OA 
BRANCH  31  32
HETATM   32  C   UNL     1      -6.019   8.362  70.714  1.00  0.00    -0.032 C  
HETATM   33  C   UNL     1      -5.440   9.553  71.418  1.00  0.00    -0.070 C  
HETATM   34  O   UNL     1      -6.253   7.283  71.203  1.00  0.00    -0.036 OA 
ENDBRANCH  31  32
ENDBRANCH  10  31
BRANCH   9  35
HETATM   35  N   UNL     1      -8.711   8.844  67.951  1.00  0.00    -0.129 NA 
HETATM   36  C   UNL     1      -7.511   6.713  67.748  1.00  0.00    -0.098 C  
HETATM   37  C   UNL     1      -8.282   7.810  67.028  1.00  0.00    -0.117 C  
HETATM   38  C   UNL     1      -8.392   6.043  68.793  1.00  0.00    -0.106 C  
HETATM   39  C   UNL     1      -8.938   7.097  69.741  1.00  0.00    -0.142 C  
HETATM   40  C   UNL     1      -9.537   8.326  69.041  1.00  0.00    -0.156 C  
ENDBRANCH   9  35
TORSDOF 6
ENDMDL
MODEL       82
REMARK 921   NORMALIZED FREE ENERGY PREDICTED BY IDOCK:    9.81 KCAL/MOL
REMARK 922        TOTAL FREE ENERGY PREDICTED BY IDOCK:   11.58 KCAL/MOL
REMARK 923 INTER-LIGAND FREE ENERGY PREDICTED BY IDOCK:   10.43 KCAL/MOL
REMARK 924 INTRA-LIGAND FREE ENERGY PREDICTED BY IDOCK:    1.15 KCAL/MOL
REMARK 927      BINDING AFFINITY PREDICTED BY RF-SCORE:    0.00 PKD
ROOT
HETATM    1  C   UNL     1     -11.883  11.530  69.053  1.00  0.00    -0.408 C  
HETATM    2  C   UNL     1     -12.502  12.354  68.026  1.00  0.00     0.860 C  
HETATM    3  C   UNL     1     -11.225  11.906  67.348  1.00  0.00    -0.305 C  
HETATM    4  C   UNL     1      -8.304  14.961  70.493  1.00  0.00     1.449 C  
HETATM    5  C   UNL     1      -9.898  11.045  68.739  1.00  0.00    -0.198 C  
HETATM    6  C   UNL     1     -10.773  10.549  67.885  1.00  0.00    -0.305 C  
HETATM    7  C   UNL     1      -9.731  15.127  69.883  1.00  0.00    -0.025 C  
HETATM    8  C   UNL     1      -9.611  16.264  68.687  1.00  0.00    -0.237 C  
HETATM    9  C   UNL     1     -10.601  17.477  68.725  1.00  0.00    -0.241 C  
HETATM   10  C   UNL     1     -10.579  17.843  70.228  1.00  0.00     1.440 C  
HETATM   11  C   UNL     1     -11.484  16.841  70.940  1.00  0.00     0.380 C  
HETATM   12  C   UNL     1     -11.129   9.138  67.452  1.00  0.00     0.226 C  
HETATM   13  C   UNL     1      -9.177  11.594  67.422  1.00  0.00    -0.168 C  
HETATM   14  C   UNL     1     -10.634  15.565  71.130  1.00  0.00     0.193 C  
HETATM   15  C   UNL     1     -11.362  14.439  71.866  1.00  0.00     0.806 C  
HETATM   16  C   UNL     1      -8.872  12.996  68.474  1.00  0.00    -0.038 C  
HETATM   17  C   UNL     1     -12.073  13.451  70.960  1.00  0.00    -0.192 C  
HETATM   18  C   UNL     1     -10.138  13.734  69.207  1.00  0.00     0.229 C  
HETATM   19  C   UNL     1     -11.067  12.734  70.054  1.00  0.00     0.406 C  
ENDROOT
BRANCH   3  20
HETATM   20  N   UNL     1     -11.011  12.746  65.719  1.00  0.00    -0.272 N  
HETATM   21  C   UNL     1     -10.689  14.375  65.564  1.00  0.00    -0.336 C  
HETATM   22  C   UNL     1     -10.659  14.807  64.097  1.00  0.00     0.874 C  
HETATM   23  C   UNL     1     -12.221  12.440  64.888  1.00  0.00    -0.418 C  
HETATM   24  C   UNL     1     -11.951  14.411  63.393  1.00  0.00     0.676 C  
HETATM   25  C   UNL     1      -9.695  12.114  65.100  1.00  0.00    -0.114 C  
HETATM   26  C   UNL     1     -12.108  12.904  63.455  1.00  0.00    -0.633 C  
ENDBRANCH   3  20
BRANCH   5  27
HETATM   27  O   UNL     1      -9.106   9.650  68.592  1.00  0.00    -0.130 OA 
BRANCH  27  28
HETATM   28  C   UNL     1      -8.249   9.065  69.461  1.00  0.00    -0.114 C  
HETATM   29  C   UNL     1      -7.630   7.856  68.799  1.00  0.00    -0.100 C  
HETATM   30  O   UNL     1      -7.885   9.556  70.517  1.00  0.00    -0.154 OA 
ENDBRANCH  27  28
ENDBRANCH   5  27
BRANCH  10  31
HETATM   31  O   UNL     1     -10.509  19.186  70.663  1.00  0.00     1.151 OA 
BRANCH  31  32
HETATM   32  C   UNL     1      -9.672  20.133  70.231  1.00  0.00     0.938 C  
HETATM   33  C   UNL     1     -10.507  21.157  69.521  1.00  0.00     1.104 C  
HETATM   34  O   UNL     1      -8.471  20.146  70.353  1.00  0.00     0.933 OA 
ENDBRANCH  31  32
ENDBRANCH  10  31
BRANCH   9  35
HETATM   35  N   UNL     1     -10.420  18.598  67.789  1.00  0.00    -0.410 NA 
HETATM   36  C   UNL     1      -8.525  18.520  66.232  1.00  0.00    -0.227 C  
HETATM   37  C   UNL     1      -9.091  19.111  67.515  1.00  0.00    -0.294 C  
HETATM   38  C   UNL     1      -9.402  18.892  65.044  1.00  0.00     2.822 C  
HETATM   39  C   UNL     1     -10.830  18.449  65.316  1.00  0.00     0.528 C  
HETATM   40  C   UNL     1     -11.363  18.849  66.700  1.00  0.00     0.735 C  
ENDBRANCH   9  35
TORSDOF 6
ENDMDL
MODEL       83
REMARK 921   NORMALIZED FREE ENERGY PREDICTED BY IDOCK:   10.60 KCAL/MOL
REMARK 922        TOTAL FREE ENERGY PREDICTED BY IDOCK:   12.65 KCAL/MOL
REMARK 923 INTER-LIGAND FREE ENERGY PREDICTED BY IDOCK:    8.48 KCAL/MOL
REMARK 924 INTRA-LIGAND FREE ENERGY PREDICTED BY IDOCK:    4.17 KCAL/MOL
REMARK 927      BINDING AFFINITY PREDICTED BY RF-SCORE:    0.00 PKD
ROOT
HETATM    1  C   UNL     1     -10.984   7.197  68.796  1.00  0.00    -0.094 C  
HETATM    2  C   UNL     1     -10.107   7.475  67.669  1.00  0.00    -0.243 C  
HETATM    3  C   UNL     1      -9.118   7.205  68.783  1.00  0.00    -0.134 C  
HETATM    4  C   UNL     1     -10.349  11.734  71.176  1.00  0.00     6.012 C  
HETATM    5  C   UNL     1     -10.081   7.194  70.657  1.00  0.00    -0.191 C  
HETATM    6  C   UNL     1      -9.712   6.248  69.815  1.00  0.00    -0.185 C  
HETATM    7  C   UNL     1     -10.271  11.318  69.674  1.00  0.00     0.262 C  
HETATM    8  C   UNL     1      -8.914  12.029  69.050  1.00  0.00     0.342 C  
HETATM    9  C   UNL     1      -9.066  12.883  67.746  1.00  0.00    -0.197 C  
HETATM   10  C   UNL     1     -10.359  13.676  68.049  1.00  0.00    -0.250 C  
HETATM   11  C   UNL     1     -11.529  12.730  67.791  1.00  0.00    -0.376 C  
HETATM   12  C   UNL     1      -9.719   4.731  69.878  1.00  0.00    -0.274 C  
HETATM   13  C   UNL     1      -8.513   7.495  70.745  1.00  0.00    -0.126 C  
HETATM   14  C   UNL     1     -11.647  11.850  69.055  1.00  0.00    -0.376 C  
HETATM   15  C   UNL     1     -12.799  10.845  69.005  1.00  0.00     1.186 C  
HETATM   16  C   UNL     1      -9.092   9.176  70.810  1.00  0.00    -0.313 C  
HETATM   17  C   UNL     1     -12.419   9.477  68.471  1.00  0.00     3.796 C  
HETATM   18  C   UNL     1     -10.070   9.730  69.618  1.00  0.00    -0.250 C  
HETATM   19  C   UNL     1     -11.371   8.820  69.374  1.00  0.00     0.300 C  
ENDROOT
BRANCH   3  20
HETATM   20  N   UNL     1      -7.390   7.541  68.229  1.00  0.00    -0.093 N  
HETATM   21  C   UNL     1      -6.703   9.060  68.243  1.00  0.00    -0.061 C  
HETATM   22  C   UNL     1      -5.298   9.049  67.640  1.00  0.00    -0.034 C  
HETATM   23  C   UNL     1      -7.243   6.987  66.844  1.00  0.00    -0.077 C  
HETATM   24  C   UNL     1      -5.317   8.444  66.241  1.00  0.00    -0.028 C  
HETATM   25  C   UNL     1      -6.470   6.778  69.271  1.00  0.00    -0.043 C  
HETATM   26  C   UNL     1      -5.824   7.018  66.325  1.00  0.00    -0.034 C  
ENDBRANCH   3  20
BRANCH   5  27
HETATM   27  O   UNL     1      -9.936   6.088  71.818  1.00  0.00    -0.169 OA 
BRANCH  27  28
HETATM   28  C   UNL     1     -10.419   4.824  71.851  1.00  0.00    -0.130 C  
HETATM   29  C   UNL     1      -9.382   3.920  72.478  1.00  0.00    -0.159 C  
HETATM   30  O   UNL     1     -11.572   4.512  71.607  1.00  0.00     1.114 OA 
ENDBRANCH  27  28
ENDBRANCH   5  27
BRANCH  10  31
HETATM   31  O   UNL     1     -10.470  15.055  67.755  1.00  0.00    -0.244 OA 
BRANCH  31  32
HETATM   32  C   UNL     1     -10.970  16.011  68.542  1.00  0.00    -0.326 C  
HETATM   33  C   UNL     1     -10.381  15.802  69.906  1.00  0.00    -0.313 C  
HETATM   34  O   UNL     1     -11.771  16.859  68.229  1.00  0.00     0.154 OA 
ENDBRANCH  31  32
ENDBRANCH  10  31
BRANCH   9  35
HETATM   35  N   UNL     1      -7.928  13.676  67.254  1.00  0.00    -0.150 NA 
HETATM   36  C   UNL     1      -6.770  15.155  68.833  1.00  0.00    -0.110 C  
HETATM   37  C   UNL     1      -7.760  15.052  67.681  1.00  0.00    -0.168 C  
HETATM   38  C   UNL     1      -5.400  14.648  68.403  1.00  0.00    -0.108 C  
HETATM   39  C   UNL     1      -5.533  13.233  67.867  1.00  0.00    -0.118 C  
HETATM   40  C   UNL     1      -6.671  13.047  66.852  1.00  0.00     0.690 C  
ENDBRANCH   9  35
TORSDOF 6
ENDMDL
MODEL       84
REMARK 921   NORMALIZED FREE ENERGY PREDICTED BY IDOCK:   10.84 KCAL/MOL
REMARK 922        TOTAL FREE ENERGY PREDICTED BY IDOCK:   12.97 KCAL/MOL
REMARK 923 INTER-LIGAND FREE ENERGY PREDICTED BY IDOCK:   10.74 KCAL/MOL
REMARK 924 INTRA-LIGAND FREE ENERGY PREDICTED BY IDOCK:    2.23 KCAL/MOL
REMARK 927      BINDING AFFINITY PREDICTED BY RF-SCORE:    0.00 PKD
ROOT
HETATM    1  C   UNL     1      -6.981  12.086  67.628  1.00  0.00    -0.118 C  
HETATM    2  C   UNL     1      -7.044  10.869  66.834  1.00  0.00    -0.120 C  
HETATM    3  C   UNL     1      -8.508  11.208  67.014  1.00  0.00    -0.146 C  
HETATM    4  C   UNL     1      -8.331   9.937  72.123  1.00  0.00     3.445 C  
HETATM    5  C   UNL     1      -8.761  12.689  68.491  1.00  0.00    -0.048 C  
HETATM    6  C   UNL     1      -8.700  12.715  67.174  1.00  0.00    -0.201 C  
HETATM    7  C   UNL     1      -7.604   9.368  70.865  1.00  0.00    -0.097 C  
HETATM    8  C   UNL     1      -8.295   7.901  70.536  1.00  0.00    -0.124 C  
HETATM    9  C   UNL     1      -7.349   6.662  70.378  1.00  0.00    -0.082 C  
HETATM   10  C   UNL     1      -6.366   6.877  71.554  1.00  0.00    -0.041 C  
HETATM   11  C   UNL     1      -5.364   7.936  71.105  1.00  0.00    -0.030 C  
HETATM   12  C   UNL     1      -8.896  13.809  66.139  1.00  0.00     0.372 C  
HETATM   13  C   UNL     1     -10.067  11.800  68.246  1.00  0.00    -0.199 C  
HETATM   14  C   UNL     1      -6.068   9.296  71.307  1.00  0.00    -0.077 C  
HETATM   15  C   UNL     1      -5.202  10.503  70.941  1.00  0.00    -0.087 C  
HETATM   16  C   UNL     1      -9.443  10.934  69.668  1.00  0.00     0.305 C  
HETATM   17  C   UNL     1      -5.368  10.986  69.512  1.00  0.00    -0.038 C  
HETATM   18  C   UNL     1      -7.913  10.349  69.639  1.00  0.00    -0.129 C  
HETATM   19  C   UNL     1      -6.806  11.453  69.267  1.00  0.00    -0.119 C  
ENDROOT
BRANCH   3  20
HETATM   20  N   UNL     1      -9.585   9.869  66.341  1.00  0.00    -0.188 N  
HETATM   21  C   UNL     1     -11.180   9.667  66.782  1.00  0.00     0.668 C  
HETATM   22  C   UNL     1     -11.791   8.423  66.138  1.00  0.00     6.974 C  
HETATM   23  C   UNL     1      -8.881   8.565  66.566  1.00  0.00    -0.140 C  
HETATM   24  C   UNL     1     -10.951   7.188  66.450  1.00  0.00     0.805 C  
HETATM   25  C   UNL     1      -9.734  10.200  64.797  1.00  0.00    -0.322 C  
HETATM   26  C   UNL     1      -9.553   7.388  65.899  1.00  0.00     0.198 C  
ENDBRANCH   3  20
BRANCH   5  27
HETATM   27  O   UNL     1      -9.649  14.028  68.384  1.00  0.00    -0.216 OA 
BRANCH  27  28
HETATM   28  C   UNL     1     -10.264  14.720  69.371  1.00  0.00    -0.130 C  
HETATM   29  C   UNL     1     -10.903  15.955  68.778  1.00  0.00    -0.284 C  
HETATM   30  O   UNL     1     -10.448  14.304  70.503  1.00  0.00     0.618 OA 
ENDBRANCH  27  28
ENDBRANCH   5  27
BRANCH  10  31
HETATM   31  O   UNL     1      -5.960   5.807  72.384  1.00  0.00    -0.036 OA 
BRANCH  31  32
HETATM   32  C   UNL     1      -6.060   4.500  72.126  1.00  0.00    -0.017 C  
HETATM   33  C   UNL     1      -6.646   3.861  73.350  1.00  0.00    -0.042 C  
HETATM   34  O   UNL     1      -5.711   3.934  71.118  1.00  0.00    -0.011 OA 
ENDBRANCH  31  32
ENDBRANCH  10  31
BRANCH   9  35
HETATM   35  N   UNL     1      -7.924   5.313  70.260  1.00  0.00    -0.082 NA 
HETATM   36  C   UNL     1     -10.081   4.869  71.342  1.00  0.00    -0.268 C  
HETATM   37  C   UNL     1      -8.571   4.695  71.402  1.00  0.00    -0.111 C  
HETATM   38  C   UNL     1     -10.644   4.203  70.094  1.00  0.00     1.137 C  
HETATM   39  C   UNL     1      -9.940   4.757  68.868  1.00  0.00    -0.197 C  
HETATM   40  C   UNL     1      -8.408   4.794  68.982  1.00  0.00    -0.081 C  
ENDBRANCH   9  35
TORSDOF 6
ENDMDL
MODEL       85
REMARK 921   NORMALIZED FREE ENERGY PREDICTED BY IDOCK:   11.38 KCAL/MOL
REMARK 922        TOTAL FREE ENERGY PREDICTED BY IDOCK:   13.70 KCAL/MOL
REMARK 923 INTER-LIGAND FREE ENERGY PREDICTED BY IDOCK:    8.11 KCAL/MOL
REMARK 924 INTRA-LIGAND FREE ENERGY PREDICTED BY IDOCK:    5.60 KCAL/MOL
REMARK 927      BINDING AFFINITY PREDICTED BY RF-SCORE:    0.00 PKD
ROOT
HETATM    1  C   UNL     1     -10.959  12.403  67.976  1.00  0.00    -0.262 C  
HETATM    2  C   UNL     1     -10.413  12.445  69.324  1.00  0.00     0.176 C  
HETATM    3  C   UNL     1      -9.266  12.989  68.500  1.00  0.00    -0.062 C  
HETATM    4  C   UNL     1      -8.330   8.251  66.396  1.00  0.00    -0.117 C  
HETATM    5  C   UNL     1      -9.590  12.651  66.446  1.00  0.00    -0.248 C  
HETATM    6  C   UNL     1      -9.785  13.685  67.242  1.00  0.00    -0.243 C  
HETATM    7  C   UNL     1      -8.827   8.704  67.804  1.00  0.00    -0.137 C  
HETATM    8  C   UNL     1      -7.568   8.475  68.852  1.00  0.00    -0.096 C  
HETATM    9  C   UNL     1      -7.837   7.647  70.154  1.00  0.00    -0.097 C  
HETATM   10  C   UNL     1      -8.686   6.477  69.601  1.00  0.00    -0.139 C  
HETATM   11  C   UNL     1     -10.106   7.008  69.420  1.00  0.00    -0.175 C  
HETATM   12  C   UNL     1     -10.224  15.119  67.007  1.00  0.00    -0.262 C  
HETATM   13  C   UNL     1      -8.051  12.862  66.825  1.00  0.00     0.140 C  
HETATM   14  C   UNL     1     -10.101   7.777  68.080  1.00  0.00    -0.227 C  
HETATM   15  C   UNL     1     -11.460   8.364  67.697  1.00  0.00     1.435 C  
HETATM   16  C   UNL     1      -8.058  11.084  66.796  1.00  0.00    -0.151 C  
HETATM   17  C   UNL     1     -11.680   9.794  68.155  1.00  0.00     0.907 C  
HETATM   18  C   UNL     1      -9.133  10.274  67.730  1.00  0.00    -0.138 C  
HETATM   19  C   UNL     1     -10.657  10.729  67.503  1.00  0.00    -0.280 C  
ENDROOT
BRANCH   3  20
HETATM   20  N   UNL     1      -7.761  13.232  69.539  1.00  0.00     0.577 N  
HETATM   21  C   UNL     1      -7.742  14.173  70.916  1.00  0.00     2.836 C  
HETATM   22  C   UNL     1      -6.338  14.267  71.515  1.00  0.00     0.438 C  
HETATM   23  C   UNL     1      -6.663  13.715  68.641  1.00  0.00    -0.100 C  
HETATM   24  C   UNL     1      -5.340  14.758  70.473  1.00  0.00    -0.128 C  
HETATM   25  C   UNL     1      -7.443  11.800  70.143  1.00  0.00     1.653 C  
HETATM   26  C   UNL     1      -5.312  13.781  69.314  1.00  0.00    -0.078 C  
ENDBRANCH   3  20
BRANCH   5  27
HETATM   27  O   UNL     1      -9.444  13.720  65.249  1.00  0.00     0.060 OA 
BRANCH  27  28
HETATM   28  C   UNL     1     -10.375  14.123  64.353  1.00  0.00     0.133 C  
HETATM   29  C   UNL     1     -11.527  14.759  65.097  1.00  0.00    -0.371 C  
HETATM   30  O   UNL     1     -10.211  14.154  63.145  1.00  0.00     3.552 OA 
ENDBRANCH  27  28
ENDBRANCH   5  27
BRANCH  10  31
HETATM   31  O   UNL     1      -8.463   5.142  70.010  1.00  0.00    -0.094 OA 
BRANCH  31  32
HETATM   32  C   UNL     1      -7.625   4.258  69.461  1.00  0.00    -0.054 C  
HETATM   33  C   UNL     1      -7.216   4.818  68.131  1.00  0.00    -0.065 C  
HETATM   34  O   UNL     1      -7.289   3.196  69.927  1.00  0.00    -0.044 OA 
ENDBRANCH  31  32
ENDBRANCH  10  31
BRANCH   9  35
HETATM   35  N   UNL     1      -6.714   7.268  71.025  1.00  0.00    -0.047 NA 
HETATM   36  C   UNL     1      -7.004   5.355  72.535  1.00  0.00    -0.082 C  
HETATM   37  C   UNL     1      -6.959   6.871  72.399  1.00  0.00    -0.066 C  
HETATM   38  C   UNL     1      -5.672   4.745  72.123  1.00  0.00    -0.012 C  
HETATM   39  C   UNL     1      -5.325   5.198  70.715  1.00  0.00    -0.004 C  
HETATM   40  C   UNL     1      -5.476   6.710  70.483  1.00  0.00    -0.022 C  
ENDBRANCH   9  35
TORSDOF 6
ENDMDL
MODEL       86
REMARK 921   NORMALIZED FREE ENERGY PREDICTED BY IDOCK:   12.18 KCAL/MOL
REMARK 922        TOTAL FREE ENERGY PREDICTED BY IDOCK:   14.79 KCAL/MOL
REMARK 923 INTER-LIGAND FREE ENERGY PREDICTED BY IDOCK:   12.47 KCAL/MOL
REMARK 924 INTRA-LIGAND FREE ENERGY PREDICTED BY IDOCK:    2.32 KCAL/MOL
REMARK 927      BINDING AFFINITY PREDICTED BY RF-SCORE:    0.00 PKD
ROOT
HETATM    1  C   UNL     1      -9.388  14.179  67.383  1.00  0.00    -0.215 C  
HETATM    2  C   UNL     1      -8.442  13.168  66.936  1.00  0.00    -0.081 C  
HETATM    3  C   UNL     1      -9.423  13.217  65.785  1.00  0.00     0.047 C  
HETATM    4  C   UNL     1     -13.172  10.917  68.685  1.00  0.00     4.003 C  
HETATM    5  C   UNL     1     -11.160  14.281  66.322  1.00  0.00    -0.323 C  
HETATM    6  C   UNL     1     -10.058  14.602  65.671  1.00  0.00    -0.389 C  
HETATM    7  C   UNL     1     -11.620  10.760  68.644  1.00  0.00    -0.342 C  
HETATM    8  C   UNL     1     -11.305   9.306  67.919  1.00  0.00     0.534 C  
HETATM    9  C   UNL     1     -10.361   8.303  68.664  1.00  0.00    -0.200 C  
HETATM   10  C   UNL     1     -10.882   8.415  70.117  1.00  0.00    -0.236 C  
HETATM   11  C   UNL     1     -10.292   9.696  70.701  1.00  0.00    -0.365 C  
HETATM   12  C   UNL     1      -9.606  15.847  64.929  1.00  0.00     1.077 C  
HETATM   13  C   UNL     1     -11.382  13.266  65.107  1.00  0.00    -0.318 C  
HETATM   14  C   UNL     1     -11.183  10.846  70.181  1.00  0.00    -0.317 C  
HETATM   15  C   UNL     1     -10.770  12.228  70.689  1.00  0.00     2.924 C  
HETATM   16  C   UNL     1     -11.995  12.226  66.413  1.00  0.00    -0.286 C  
HETATM   17  C   UNL     1      -9.815  12.976  69.777  1.00  0.00     1.809 C  
HETATM   18  C   UNL     1     -11.037  11.920  67.706  1.00  0.00    -0.295 C  
HETATM   19  C   UNL     1     -10.469  13.243  68.419  1.00  0.00    -0.261 C  
ENDROOT
BRANCH   3  20
HETATM   20  N   UNL     1      -9.057  11.898  64.547  1.00  0.00     0.334 N  
HETATM   21  C   UNL     1      -9.352  10.280  64.818  1.00  0.00    -0.260 C  
HETATM   22  C   UNL     1      -8.861   9.414  63.658  1.00  0.00    -0.198 C  
HETATM   23  C   UNL     1      -7.619  12.038  64.147  1.00  0.00     3.859 C  
HETATM   24  C   UNL     1      -7.388   9.686  63.369  1.00  0.00    -0.119 C  
HETATM   25  C   UNL     1     -10.037  12.189  63.334  1.00  0.00    -0.351 C  
HETATM   26  C   UNL     1      -7.217  11.145  62.997  1.00  0.00     0.621 C  
ENDBRANCH   3  20
BRANCH   5  27
HETATM   27  O   UNL     1     -11.884  15.449  65.481  1.00  0.00     0.001 OA 
BRANCH  27  28
HETATM   28  C   UNL     1     -12.560  15.359  64.312  1.00  0.00     0.245 C  
HETATM   29  C   UNL     1     -13.873  14.654  64.559  1.00  0.00     3.345 C  
HETATM   30  O   UNL     1     -12.250  15.935  63.283  1.00  0.00     0.290 OA 
ENDBRANCH  27  28
ENDBRANCH   5  27
BRANCH  10  31
HETATM   31  O   UNL     1     -11.067   7.272  70.929  1.00  0.00    -0.248 OA 
BRANCH  31  32
HETATM   32  C   UNL     1     -11.776   7.189  72.057  1.00  0.00    -0.289 C  
HETATM   33  C   UNL     1     -10.979   7.882  73.122  1.00  0.00    -0.301 C  
HETATM   34  O   UNL     1     -12.837   6.630  72.205  1.00  0.00    -0.215 OA 
ENDBRANCH  31  32
ENDBRANCH  10  31
BRANCH   9  35
HETATM   35  N   UNL     1     -10.192   6.936  68.147  1.00  0.00    -0.167 NA 
HETATM   36  C   UNL     1      -7.940   5.962  68.143  1.00  0.00    -0.109 C  
HETATM   37  C   UNL     1      -9.047   6.606  67.320  1.00  0.00    -0.118 C  
HETATM   38  C   UNL     1      -8.430   4.664  68.769  1.00  0.00    -0.092 C  
HETATM   39  C   UNL     1      -9.682   4.939  69.583  1.00  0.00    -0.266 C  
HETATM   40  C   UNL     1     -10.741   5.776  68.849  1.00  0.00    -0.263 C  
ENDBRANCH   9  35
TORSDOF 6
ENDMDL
MODEL       87
REMARK 921   NORMALIZED FREE ENERGY PREDICTED BY IDOCK:   14.20 KCAL/MOL
REMARK 922        TOTAL FREE ENERGY PREDICTED BY IDOCK:   17.51 KCAL/MOL
REMARK 923 INTER-LIGAND FREE ENERGY PREDICTED BY IDOCK:    8.72 KCAL/MOL
REMARK 924 INTRA-LIGAND FREE ENERGY PREDICTED BY IDOCK:    8.79 KCAL/MOL
REMARK 927      BINDING AFFINITY PREDICTED BY RF-SCORE:    0.00 PKD
ROOT
HETATM    1  C   UNL     1      -8.854  11.300  69.242  1.00  0.00     0.249 C  
HETATM    2  C   UNL     1      -9.155  12.390  70.158  1.00  0.00     4.139 C  
HETATM    3  C   UNL     1     -10.536  11.948  69.722  1.00  0.00     0.589 C  
HETATM    4  C   UNL     1      -9.802  13.904  64.887  1.00  0.00    -0.015 C  
HETATM    5  C   UNL     1     -10.424  10.663  68.057  1.00  0.00    -0.196 C  
HETATM    6  C   UNL     1     -10.541  10.465  69.356  1.00  0.00    -0.267 C  
HETATM    7  C   UNL     1      -9.319  14.362  66.298  1.00  0.00    -0.261 C  
HETATM    8  C   UNL     1     -10.202  15.704  66.694  1.00  0.00    -0.283 C  
HETATM    9  C   UNL     1      -9.426  16.989  67.139  1.00  0.00    -0.242 C  
HETATM   10  C   UNL     1      -8.275  17.024  66.106  1.00  0.00    -0.249 C  
HETATM   11  C   UNL     1      -7.234  16.007  66.569  1.00  0.00     0.164 C  
HETATM   12  C   UNL     1     -10.757   9.229  70.211  1.00  0.00    -0.284 C  
HETATM   13  C   UNL     1     -11.840  11.390  68.210  1.00  0.00    -0.320 C  
HETATM   14  C   UNL     1      -7.754  14.629  66.102  1.00  0.00     2.291 C  
HETATM   15  C   UNL     1      -6.821  13.467  66.445  1.00  0.00     2.944 C  
HETATM   16  C   UNL     1     -11.124  12.491  67.011  1.00  0.00    -0.326 C  
HETATM   17  C   UNL     1      -7.127  12.783  67.765  1.00  0.00    -0.132 C  
HETATM   18  C   UNL     1      -9.684  13.201  67.338  1.00  0.00    -0.220 C  
HETATM   19  C   UNL     1      -8.526  12.161  67.736  1.00  0.00    -0.160 C  
ENDROOT
BRANCH   3  20
HETATM   20  N   UNL     1     -11.833  13.083  70.384  1.00  0.00    -0.238 N  
HETATM   21  C   UNL     1     -12.597  14.239  69.457  1.00  0.00     0.013 C  
HETATM   22  C   UNL     1     -13.552  15.092  70.293  1.00  0.00     0.362 C  
HETATM   23  C   UNL     1     -11.263  13.768  71.589  1.00  0.00     2.496 C  
HETATM   24  C   UNL     1     -12.823  15.704  71.485  1.00  0.00    -0.538 C  
HETATM   25  C   UNL     1     -13.050  12.139  70.762  1.00  0.00     0.268 C  
HETATM   26  C   UNL     1     -12.273  14.591  72.354  1.00  0.00    -0.249 C  
ENDBRANCH   3  20
BRANCH   5  27
HETATM   27  O   UNL     1     -11.169   9.247  67.870  1.00  0.00     0.004 OA 
BRANCH  27  28
HETATM   28  C   UNL     1     -11.134   8.157  68.671  1.00  0.00     0.364 C  
HETATM   29  C   UNL     1     -12.200   8.296  69.733  1.00  0.00     1.348 C  
HETATM   30  O   UNL     1     -10.492   7.145  68.443  1.00  0.00    -0.189 OA 
ENDBRANCH  27  28
ENDBRANCH   5  27
BRANCH  10  31
HETATM   31  O   UNL     1      -7.877  18.228  65.480  1.00  0.00    -0.446 OA 
BRANCH  31  32
HETATM   32  C   UNL     1      -6.790  18.956  65.747  1.00  0.00    -0.272 C  
HETATM   33  C   UNL     1      -5.740  18.547  64.757  1.00  0.00    -0.195 C  
HETATM   34  O   UNL     1      -6.661  19.762  66.638  1.00  0.00    -0.188 OA 
ENDBRANCH  31  32
ENDBRANCH  10  31
BRANCH   9  35
HETATM   35  N   UNL     1     -10.154  18.253  67.331  1.00  0.00    -0.335 NA 
HETATM   36  C   UNL     1      -8.870  20.257  67.929  1.00  0.00    -0.247 C  
HETATM   37  C   UNL     1      -9.790  19.146  68.415  1.00  0.00    -0.404 C  
HETATM   38  C   UNL     1      -9.567  21.099  66.870  1.00  0.00     0.245 C  
HETATM   39  C   UNL     1     -10.044  20.198  65.744  1.00  0.00    -0.362 C  
HETATM   40  C   UNL     1     -10.799  18.945  66.216  1.00  0.00    -0.135 C  
ENDBRANCH   9  35
TORSDOF 6
ENDMDL
MODEL       88
REMARK 921   NORMALIZED FREE ENERGY PREDICTED BY IDOCK:   14.71 KCAL/MOL
REMARK 922        TOTAL FREE ENERGY PREDICTED BY IDOCK:   18.20 KCAL/MOL
REMARK 923 INTER-LIGAND FREE ENERGY PREDICTED BY IDOCK:   17.69 KCAL/MOL
REMARK 924 INTRA-LIGAND FREE ENERGY PREDICTED BY IDOCK:    0.50 KCAL/MOL
REMARK 927      BINDING AFFINITY PREDICTED BY RF-SCORE:    0.00 PKD
ROOT
HETATM    1  C   UNL     1      -5.984  10.765  66.989  1.00  0.00    -0.063 C  
HETATM    2  C   UNL     1      -6.627   9.911  66.001  1.00  0.00    -0.086 C  
HETATM    3  C   UNL     1      -7.734  10.882  66.352  1.00  0.00    -0.154 C  
HETATM    4  C   UNL     1      -8.308   8.739  71.129  1.00  0.00    -0.219 C  
HETATM    5  C   UNL     1      -7.248  11.984  68.080  1.00  0.00    -0.090 C  
HETATM    6  C   UNL     1      -7.156  12.228  66.787  1.00  0.00     0.165 C  
HETATM    7  C   UNL     1      -7.935   8.139  69.738  1.00  0.00    -0.111 C  
HETATM    8  C   UNL     1      -9.255   7.292  69.212  1.00  0.00    -0.144 C  
HETATM    9  C   UNL     1      -9.044   5.805  68.766  1.00  0.00    -0.115 C  
HETATM   10  C   UNL     1      -8.107   5.282  69.881  1.00  0.00    -0.084 C  
HETATM   11  C   UNL     1      -6.703   5.779  69.547  1.00  0.00    -0.059 C  
HETATM   12  C   UNL     1      -6.765  13.452  65.978  1.00  0.00     4.966 C  
HETATM   13  C   UNL     1      -8.818  11.914  67.786  1.00  0.00    -0.166 C  
HETATM   14  C   UNL     1      -6.644   7.242  70.040  1.00  0.00    -0.046 C  
HETATM   15  C   UNL     1      -5.288   7.914  69.824  1.00  0.00    -0.023 C  
HETATM   16  C   UNL     1      -8.732  10.600  68.981  1.00  0.00    -0.152 C  
HETATM   17  C   UNL     1      -5.165   8.680  68.519  1.00  0.00    -0.033 C  
HETATM   18  C   UNL     1      -7.693   9.359  68.730  1.00  0.00    -0.080 C  
HETATM   19  C   UNL     1      -6.177   9.827  68.472  1.00  0.00    -0.046 C  
ENDROOT
BRANCH   3  20
HETATM   20  N   UNL     1      -9.319  10.399  65.540  1.00  0.00    -0.183 N  
HETATM   21  C   UNL     1      -9.410   9.823  63.978  1.00  0.00    -0.155 C  
HETATM   22  C   UNL     1     -10.858   9.597  63.543  1.00  0.00     4.695 C  
HETATM   23  C   UNL     1     -10.259  11.561  65.653  1.00  0.00    -0.248 C  
HETATM   24  C   UNL     1     -11.682  10.866  63.733  1.00  0.00     1.213 C  
HETATM   25  C   UNL     1      -9.833   9.142  66.359  1.00  0.00    -0.280 C  
HETATM   26  C   UNL     1     -11.666  11.251  65.199  1.00  0.00     0.384 C  
ENDBRANCH   3  20
BRANCH   5  27
HETATM   27  O   UNL     1      -7.354  13.579  68.279  1.00  0.00    -0.094 OA 
BRANCH  27  28
HETATM   28  C   UNL     1      -8.055  14.274  69.204  1.00  0.00     0.074 C  
HETATM   29  C   UNL     1      -7.087  15.038  70.078  1.00  0.00    -0.055 C  
HETATM   30  O   UNL     1      -9.265  14.421  69.196  1.00  0.00    -0.071 OA 
ENDBRANCH  27  28
ENDBRANCH   5  27
BRANCH  10  31
HETATM   31  O   UNL     1      -8.300   4.014  70.477  1.00  0.00    -0.064 OA 
BRANCH  31  32
HETATM   32  C   UNL     1      -9.316   3.635  71.257  1.00  0.00    -0.144 C  
HETATM   33  C   UNL     1      -9.738   4.845  72.037  1.00  0.00    -0.219 C  
HETATM   34  O   UNL     1      -9.781   2.524  71.349  1.00  0.00    -0.149 OA 
ENDBRANCH  31  32
ENDBRANCH  10  31
BRANCH   9  35
HETATM   35  N   UNL     1     -10.210   4.962  68.459  1.00  0.00    -0.088 NA 
HETATM   36  C   UNL     1     -11.852   5.790  66.835  1.00  0.00     2.168 C  
HETATM   37  C   UNL     1     -11.522   5.561  68.303  1.00  0.00     1.566 C  
HETATM   38  C   UNL     1     -11.870   4.468  66.081  1.00  0.00     4.127 C  
HETATM   39  C   UNL     1     -10.542   3.757  66.280  1.00  0.00     1.207 C  
HETATM   40  C   UNL     1     -10.073   3.695  67.742  1.00  0.00     0.544 C  
ENDBRANCH   9  35
TORSDOF 6
ENDMDL
MODEL       89
REMARK 921   NORMALIZED FREE ENERGY PREDICTED BY IDOCK:   14.85 KCAL/MOL
REMARK 922        TOTAL FREE ENERGY PREDICTED BY IDOCK:   18.38 KCAL/MOL
REMARK 923 INTER-LIGAND FREE ENERGY PREDICTED BY IDOCK:   12.77 KCAL/MOL
REMARK 924 INTRA-LIGAND FREE ENERGY PREDICTED BY IDOCK:    5.61 KCAL/MOL
REMARK 927      BINDING AFFINITY PREDICTED BY RF-SCORE:    0.00 PKD
ROOT
HETATM    1  C   UNL     1     -10.572   6.540  72.227  1.00  0.00    -0.238 C  
HETATM    2  C   UNL     1     -11.081   7.023  70.953  1.00  0.00    -0.300 C  
HETATM    3  C   UNL     1     -10.385   5.740  70.552  1.00  0.00    -0.247 C  
HETATM    4  C   UNL     1      -5.644   7.857  71.438  1.00  0.00    -0.034 C  
HETATM    5  C   UNL     1      -9.172   5.022  72.117  1.00  0.00    -0.135 C  
HETATM    6  C   UNL     1     -10.392   4.737  71.704  1.00  0.00    -0.215 C  
HETATM    7  C   UNL     1      -6.986   8.451  70.908  1.00  0.00    -0.052 C  
HETATM    8  C   UNL     1      -6.786   8.711  69.286  1.00  0.00    -0.050 C  
HETATM    9  C   UNL     1      -7.120  10.135  68.724  1.00  0.00    -0.075 C  
HETATM   10  C   UNL     1      -6.481  11.045  69.800  1.00  0.00    -0.137 C  
HETATM   11  C   UNL     1      -7.448  11.079  70.981  1.00  0.00     3.285 C  
HETATM   12  C   UNL     1     -11.415   3.689  72.106  1.00  0.00     1.509 C  
HETATM   13  C   UNL     1      -8.739   4.486  70.675  1.00  0.00    -0.127 C  
HETATM   14  C   UNL     1      -7.188   9.780  71.776  1.00  0.00     1.082 C  
HETATM   15  C   UNL     1      -8.047   9.641  73.033  1.00  0.00     3.230 C  
HETATM   16  C   UNL     1      -7.571   5.822  70.804  1.00  0.00    -0.092 C  
HETATM   17  C   UNL     1      -9.346   8.884  72.829  1.00  0.00     0.401 C  
HETATM   18  C   UNL     1      -8.120   7.337  71.097  1.00  0.00    -0.102 C  
HETATM   19  C   UNL     1      -9.065   7.444  72.392  1.00  0.00    -0.164 C  
ENDROOT
BRANCH   3  20
HETATM   20  N   UNL     1     -10.363   5.545  68.717  1.00  0.00    -0.205 N  
HETATM   21  C   UNL     1      -8.962   5.550  67.813  1.00  0.00    -0.108 C  
HETATM   22  C   UNL     1      -9.257   5.466  66.315  1.00  0.00    -0.157 C  
HETATM   23  C   UNL     1     -11.281   6.580  68.140  1.00  0.00    -0.150 C  
HETATM   24  C   UNL     1     -10.214   6.575  65.892  1.00  0.00     0.647 C  
HETATM   25  C   UNL     1     -10.892   4.074  68.454  1.00  0.00     2.775 C  
HETATM   26  C   UNL     1     -11.514   6.425  66.655  1.00  0.00     0.554 C  
ENDBRANCH   3  20
BRANCH   5  27
HETATM   27  O   UNL     1      -9.117   3.519  72.694  1.00  0.00    -0.097 OA 
BRANCH  27  28
HETATM   28  C   UNL     1      -8.077   2.866  73.264  1.00  0.00    -0.068 C  
HETATM   29  C   UNL     1      -8.616   1.770  74.154  1.00  0.00    -0.054 C  
HETATM   30  O   UNL     1      -6.908   3.007  72.946  1.00  0.00    -0.025 OA 
ENDBRANCH  27  28
ENDBRANCH   5  27
BRANCH  10  31
HETATM   31  O   UNL     1      -5.731  12.192  69.450  1.00  0.00    -0.071 OA 
BRANCH  31  32
HETATM   32  C   UNL     1      -6.153  13.255  68.761  1.00  0.00    -0.086 C  
HETATM   33  C   UNL     1      -7.630  13.364  68.996  1.00  0.00     0.101 C  
HETATM   34  O   UNL     1      -5.484  13.969  68.052  1.00  0.00    -0.115 OA 
ENDBRANCH  31  32
ENDBRANCH  10  31
BRANCH   9  35
HETATM   35  N   UNL     1      -6.793  10.465  67.328  1.00  0.00    -0.080 NA 
HETATM   36  C   UNL     1      -8.609  10.474  65.678  1.00  0.00    -0.182 C  
HETATM   37  C   UNL     1      -7.409   9.727  66.242  1.00  0.00    -0.099 C  
HETATM   38  C   UNL     1      -8.180  11.823  65.117  1.00  0.00     1.080 C  
HETATM   39  C   UNL     1      -7.452  12.608  66.195  1.00  0.00     1.702 C  
HETATM   40  C   UNL     1      -6.369  11.808  66.936  1.00  0.00    -0.131 C  
ENDBRANCH   9  35
TORSDOF 6
ENDMDL
MODEL       90
REMARK 921   NORMALIZED FREE ENERGY PREDICTED BY IDOCK:   15.89 KCAL/MOL
REMARK 922        TOTAL FREE ENERGY PREDICTED BY IDOCK:   19.80 KCAL/MOL
REMARK 923 INTER-LIGAND FREE ENERGY PREDICTED BY IDOCK:   12.87 KCAL/MOL
REMARK 924 INTRA-LIGAND FREE ENERGY PREDICTED BY IDOCK:    6.93 KCAL/MOL
REMARK 927      BINDING AFFINITY PREDICTED BY RF-SCORE:    0.00 PKD
ROOT
HETATM    1  C   UNL     1     -11.936   9.595  69.542  1.00  0.00     0.420 C  
HETATM    2  C   UNL     1     -11.768   8.492  70.476  1.00  0.00    -0.082 C  
HETATM    3  C   UNL     1     -10.588   9.378  70.813  1.00  0.00    -0.303 C  
HETATM    4  C   UNL     1      -8.200   8.179  66.273  1.00  0.00    -0.114 C  
HETATM    5  C   UNL     1     -10.307  10.851  69.333  1.00  0.00    -0.145 C  
HETATM    6  C   UNL     1     -10.905  10.842  70.510  1.00  0.00     0.221 C  
HETATM    7  C   UNL     1      -9.117   7.361  67.235  1.00  0.00    -0.135 C  
HETATM    8  C   UNL     1      -8.143   6.279  68.019  1.00  0.00    -0.115 C  
HETATM    9  C   UNL     1      -8.556   4.768  67.996  1.00  0.00    -0.102 C  
HETATM   10  C   UNL     1      -8.979   4.590  66.519  1.00  0.00    -0.114 C  
HETATM   11  C   UNL     1     -10.385   5.170  66.389  1.00  0.00    -0.332 C  
HETATM   12  C   UNL     1     -11.555  11.917  71.362  1.00  0.00     1.792 C  
HETATM   13  C   UNL     1      -8.991  10.542  70.186  1.00  0.00     0.644 C  
HETATM   14  C   UNL     1     -10.201   6.699  66.262  1.00  0.00     0.101 C  
HETATM   15  C   UNL     1     -11.511   7.468  66.086  1.00  0.00     3.773 C  
HETATM   16  C   UNL     1      -8.625   9.512  68.783  1.00  0.00    -0.123 C  
HETATM   17  C   UNL     1     -12.128   7.967  67.380  1.00  0.00     4.666 C  
HETATM   18  C   UNL     1      -9.711   8.376  68.322  1.00  0.00    -0.170 C  
HETATM   19  C   UNL     1     -11.188   8.956  68.075  1.00  0.00     0.435 C  
ENDROOT
BRANCH   3  20
HETATM   20  N   UNL     1      -9.476   8.561  72.039  1.00  0.00    -0.269 N  
HETATM   21  C   UNL     1      -8.859   7.026  71.835  1.00  0.00    -0.125 C  
HETATM   22  C   UNL     1      -8.051   6.576  73.052  1.00  0.00    -0.107 C  
HETATM   23  C   UNL     1     -10.162   8.604  73.371  1.00  0.00     1.354 C  
HETATM   24  C   UNL     1      -8.884   6.693  74.324  1.00  0.00    -0.180 C  
HETATM   25  C   UNL     1      -8.148   9.428  72.031  1.00  0.00     1.049 C  
HETATM   26  C   UNL     1      -9.294   8.139  74.517  1.00  0.00     1.423 C  
ENDBRANCH   3  20
BRANCH   5  27
HETATM   27  O   UNL     1     -10.088  12.431  69.563  1.00  0.00     0.508 OA 
BRANCH  27  28
HETATM   28  C   UNL     1     -10.977  13.441  69.418  1.00  0.00    -0.026 C  
HETATM   29  C   UNL     1     -10.396  14.472  68.479  1.00  0.00    -0.242 C  
HETATM   30  O   UNL     1     -12.130  13.416  69.813  1.00  0.00    -0.322 OA 
ENDBRANCH  27  28
ENDBRANCH   5  27
BRANCH  10  31
HETATM   31  O   UNL     1      -8.597   3.453  65.769  1.00  0.00    -0.110 OA 
BRANCH  31  32
HETATM   32  C   UNL     1      -7.569   3.352  64.923  1.00  0.00    -0.077 C  
HETATM   33  C   UNL     1      -7.468   4.664  64.205  1.00  0.00    -0.066 C  
HETATM   34  O   UNL     1      -6.877   2.379  64.741  1.00  0.00    -0.044 OA 
ENDBRANCH  31  32
ENDBRANCH  10  31
BRANCH   9  35
HETATM   35  N   UNL     1      -7.635   3.750  68.526  1.00  0.00    -0.054 NA 
HETATM   36  C   UNL     1      -7.101   1.815  67.115  1.00  0.00    -0.043 C  
HETATM   37  C   UNL     1      -7.898   2.341  68.300  1.00  0.00    -0.054 C  
HETATM   38  C   UNL     1      -5.608   1.956  67.374  1.00  0.00    -0.018 C  
HETATM   39  C   UNL     1      -5.288   3.405  67.700  1.00  0.00    -0.013 C  
HETATM   40  C   UNL     1      -6.219   4.037  68.747  1.00  0.00    -0.032 C  
ENDBRANCH   9  35
TORSDOF 6
ENDMDL
MODEL       91
REMARK 921   NORMALIZED FREE ENERGY PREDICTED BY IDOCK:   16.46 KCAL/MOL
REMARK 922        TOTAL FREE ENERGY PREDICTED BY IDOCK:   20.57 KCAL/MOL
REMARK 923 INTER-LIGAND FREE ENERGY PREDICTED BY IDOCK:   20.14 KCAL/MOL
REMARK 924 INTRA-LIGAND FREE ENERGY PREDICTED BY IDOCK:    0.43 KCAL/MOL
REMARK 927      BINDING AFFINITY PREDICTED BY RF-SCORE:    0.00 PKD
ROOT
HETATM    1  C   UNL     1      -9.929  14.911  67.494  1.00  0.00    -0.219 C  
HETATM    2  C   UNL     1      -9.180  14.886  68.741  1.00  0.00    -0.193 C  
HETATM    3  C   UNL     1      -8.217  14.225  67.779  1.00  0.00    -0.174 C  
HETATM    4  C   UNL     1     -11.235   9.917  67.484  1.00  0.00     0.010 C  
HETATM    5  C   UNL     1      -9.184  13.721  65.976  1.00  0.00     0.089 C  
HETATM    6  C   UNL     1      -8.434  14.738  66.356  1.00  0.00     0.167 C  
HETATM    7  C   UNL     1     -10.931  10.919  68.641  1.00  0.00    -0.274 C  
HETATM    8  C   UNL     1      -9.935  10.134  69.704  1.00  0.00    -0.262 C  
HETATM    9  C   UNL     1     -10.350  10.105  71.214  1.00  0.00     0.967 C  
HETATM   10  C   UNL     1     -11.863   9.800  71.109  1.00  0.00    -0.382 C  
HETATM   11  C   UNL     1     -12.554  11.113  70.750  1.00  0.00    -0.445 C  
HETATM   12  C   UNL     1      -7.849  15.935  65.629  1.00  0.00     2.240 C  
HETATM   13  C   UNL     1      -7.865  12.861  66.258  1.00  0.00     1.205 C  
HETATM   14  C   UNL     1     -12.375  11.282  69.225  1.00  0.00    -0.172 C  
HETATM   15  C   UNL     1     -13.037  12.539  68.659  1.00  0.00     2.981 C  
HETATM   16  C   UNL     1      -9.059  11.688  66.859  1.00  0.00    -0.188 C  
HETATM   17  C   UNL     1     -12.126  13.750  68.582  1.00  0.00    -0.333 C  
HETATM   18  C   UNL     1     -10.121  12.151  68.018  1.00  0.00    -0.204 C  
HETATM   19  C   UNL     1     -10.948  13.477  67.643  1.00  0.00    -0.280 C  
ENDROOT
BRANCH   3  20
HETATM   20  N   UNL     1      -6.736  13.575  68.667  1.00  0.00    -0.087 N  
HETATM   21  C   UNL     1      -6.566  11.979  69.118  1.00  0.00    -0.107 C  
HETATM   22  C   UNL     1      -5.285  11.753  69.921  1.00  0.00    -0.078 C  
HETATM   23  C   UNL     1      -6.535  14.418  69.890  1.00  0.00    -0.152 C  
HETATM   24  C   UNL     1      -5.227  12.694  71.119  1.00  0.00    -0.161 C  
HETATM   25  C   UNL     1      -5.539  13.732  67.639  1.00  0.00     0.009 C  
HETATM   26  C   UNL     1      -5.248  14.127  70.624  1.00  0.00    -0.113 C  
ENDBRANCH   3  20
BRANCH   5  27
HETATM   27  O   UNL     1      -8.670  14.023  64.480  1.00  0.00     3.362 OA 
BRANCH  27  28
HETATM   28  C   UNL     1      -9.087  13.478  63.313  1.00  0.00     7.122 C  
HETATM   29  C   UNL     1      -8.040  12.503  62.826  1.00  0.00     4.633 C  
HETATM   30  O   UNL     1     -10.208  13.601  62.849  1.00  0.00     3.140 OA 
ENDBRANCH  27  28
ENDBRANCH   5  27
BRANCH  10  31
HETATM   31  O   UNL     1     -12.492   8.865  71.963  1.00  0.00    -0.342 OA 
BRANCH  31  32
HETATM   32  C   UNL     1     -13.793   8.782  72.251  1.00  0.00    -0.447 C  
HETATM   33  C   UNL     1     -14.376   7.752  71.329  1.00  0.00    -0.425 C  
HETATM   34  O   UNL     1     -14.396   9.436  73.068  1.00  0.00    -0.299 OA 
ENDBRANCH  31  32
ENDBRANCH  10  31
BRANCH   9  35
HETATM   35  N   UNL     1      -9.593   9.275  72.164  1.00  0.00     0.009 NA 
HETATM   36  C   UNL     1     -10.198   6.907  72.381  1.00  0.00    -0.208 C  
HETATM   37  C   UNL     1     -10.281   8.300  72.989  1.00  0.00    -0.090 C  
HETATM   38  C   UNL     1      -8.748   6.459  72.274  1.00  0.00    -0.131 C  
HETATM   39  C   UNL     1      -7.959   7.491  71.487  1.00  0.00    -0.094 C  
HETATM   40  C   UNL     1      -8.187   8.941  71.941  1.00  0.00     0.062 C  
ENDBRANCH   9  35
TORSDOF 6
ENDMDL
MODEL       92
REMARK 921   NORMALIZED FREE ENERGY PREDICTED BY IDOCK:   22.92 KCAL/MOL
REMARK 922        TOTAL FREE ENERGY PREDICTED BY IDOCK:   29.29 KCAL/MOL
REMARK 923 INTER-LIGAND FREE ENERGY PREDICTED BY IDOCK:   30.33 KCAL/MOL
REMARK 924 INTRA-LIGAND FREE ENERGY PREDICTED BY IDOCK:   -1.04 KCAL/MOL
REMARK 927      BINDING AFFINITY PREDICTED BY RF-SCORE:    0.00 PKD
ROOT
HETATM    1  C   UNL     1      -8.591  14.372  70.712  1.00  0.00     3.113 C  
HETATM    2  C   UNL     1      -7.813  14.620  69.507  1.00  0.00     0.028 C  
HETATM    3  C   UNL     1      -9.169  15.179  69.132  1.00  0.00    -0.215 C  
HETATM    4  C   UNL     1     -11.260  10.350  68.883  1.00  0.00    -0.290 C  
HETATM    5  C   UNL     1     -10.639  14.580  70.517  1.00  0.00     0.521 C  
HETATM    6  C   UNL     1      -9.914  15.673  70.371  1.00  0.00     0.246 C  
HETATM    7  C   UNL     1      -9.842  10.908  68.546  1.00  0.00    -0.188 C  
HETATM    8  C   UNL     1      -9.714  10.925  66.896  1.00  0.00    -0.210 C  
HETATM    9  C   UNL     1      -8.470  10.227  66.249  1.00  0.00    -0.135 C  
HETATM   10  C   UNL     1      -8.385   8.924  67.079  1.00  0.00    -0.106 C  
HETATM   11  C   UNL     1      -7.726   9.287  68.406  1.00  0.00    -0.090 C  
HETATM   12  C   UNL     1      -9.899  17.020  71.071  1.00  0.00     3.702 C  
HETATM   13  C   UNL     1     -11.233  14.985  69.089  1.00  0.00    -0.293 C  
HETATM   14  C   UNL     1      -8.845   9.896  69.281  1.00  0.00    -0.178 C  
HETATM   15  C   UNL     1      -8.385  10.298  70.683  1.00  0.00     1.112 C  
HETATM   16  C   UNL     1     -11.190  13.223  68.849  1.00  0.00    -0.322 C  
HETATM   17  C   UNL     1      -7.935  11.742  70.808  1.00  0.00     5.569 C  
HETATM   18  C   UNL     1      -9.778  12.422  69.065  1.00  0.00     0.292 C  
HETATM   19  C   UNL     1      -9.092  12.694  70.492  1.00  0.00     6.751 C  
ENDROOT
BRANCH   3  20
HETATM   20  N   UNL     1      -9.207  15.687  67.358  1.00  0.00    -0.196 N  
HETATM   21  C   UNL     1      -9.906  14.767  66.157  1.00  0.00    -0.312 C  
HETATM   22  C   UNL     1      -9.702  15.391  64.776  1.00  0.00     0.792 C  
HETATM   23  C   UNL     1      -7.798  15.986  66.942  1.00  0.00    -0.249 C  
HETATM   24  C   UNL     1      -8.222  15.644  64.513  1.00  0.00     9.246 C  
HETATM   25  C   UNL     1     -10.120  16.983  67.322  1.00  0.00    -0.295 C  
HETATM   26  C   UNL     1      -7.688  16.596  65.565  1.00  0.00     1.674 C  
ENDBRANCH   3  20
BRANCH   5  27
HETATM   27  O   UNL     1     -11.733  15.516  71.240  1.00  0.00    -0.323 OA 
BRANCH  27  28
HETATM   28  C   UNL     1     -12.414  15.293  72.387  1.00  0.00    -0.362 C  
HETATM   29  C   UNL     1     -13.869  15.055  72.055  1.00  0.00    -0.578 C  
HETATM   30  O   UNL     1     -11.900  15.109  73.478  1.00  0.00    -0.407 OA 
ENDBRANCH  27  28
ENDBRANCH   5  27
BRANCH  10  31
HETATM   31  O   UNL     1      -8.137   7.672  66.469  1.00  0.00    -0.112 OA 
BRANCH  31  32
HETATM   32  C   UNL     1      -8.966   6.628  66.402  1.00  0.00    -0.148 C  
HETATM   33  C   UNL     1      -8.929   5.958  67.744  1.00  0.00    -0.111 C  
HETATM   34  O   UNL     1      -9.596   6.266  65.437  1.00  0.00     0.347 OA 
ENDBRANCH  31  32
ENDBRANCH  10  31
BRANCH   9  35
HETATM   35  N   UNL     1      -8.401  10.063  64.788  1.00  0.00    -0.155 NA 
HETATM   36  C   UNL     1     -10.312  10.810  63.442  1.00  0.00    -0.196 C  
HETATM   37  C   UNL     1      -9.571   9.627  64.048  1.00  0.00     0.219 C  
HETATM   38  C   UNL     1      -9.414  11.555  62.464  1.00  0.00     0.051 C  
HETATM   39  C   UNL     1      -8.132  11.964  63.168  1.00  0.00     1.769 C  
HETATM   40  C   UNL     1      -7.466  10.836  63.972  1.00  0.00     0.369 C  
ENDBRANCH   9  35
TORSDOF 6
ENDMDL
MODEL       93
REMARK 921   NORMALIZED FREE ENERGY PREDICTED BY IDOCK:   23.47 KCAL/MOL
REMARK 922        TOTAL FREE ENERGY PREDICTED BY IDOCK:   30.04 KCAL/MOL
REMARK 923 INTER-LIGAND FREE ENERGY PREDICTED BY IDOCK:   30.02 KCAL/MOL
REMARK 924 INTRA-LIGAND FREE ENERGY PREDICTED BY IDOCK:    0.02 KCAL/MOL
REMARK 927      BINDING AFFINITY PREDICTED BY RF-SCORE:    0.00 PKD
ROOT
HETATM    1  C   UNL     1     -10.516  12.295  64.952  1.00  0.00    -0.321 C  
HETATM    2  C   UNL     1     -10.776  13.645  65.427  1.00  0.00    -0.311 C  
HETATM    3  C   UNL     1      -9.270  13.551  65.542  1.00  0.00     0.566 C  
HETATM    4  C   UNL     1      -9.637  10.193  69.584  1.00  0.00    -0.237 C  
HETATM    5  C   UNL     1      -8.623  11.557  65.334  1.00  0.00     0.251 C  
HETATM    6  C   UNL     1      -8.706  12.580  64.505  1.00  0.00     2.016 C  
HETATM    7  C   UNL     1     -10.511  11.403  69.131  1.00  0.00    -0.159 C  
HETATM    8  C   UNL     1     -10.214  12.634  70.195  1.00  0.00     2.533 C  
HETATM    9  C   UNL     1     -11.441  13.321  70.885  1.00  0.00     1.034 C  
HETATM   10  C   UNL     1     -12.312  12.095  71.250  1.00  0.00    -0.070 C  
HETATM   11  C   UNL     1     -13.031  11.668  69.973  1.00  0.00     0.438 C  
HETATM   12  C   UNL     1      -8.270  12.801  63.068  1.00  0.00     6.080 C  
HETATM   13  C   UNL     1      -7.584  12.489  66.114  1.00  0.00     1.349 C  
HETATM   14  C   UNL     1     -12.006  10.834  69.171  1.00  0.00    -0.302 C  
HETATM   15  C   UNL     1     -12.554  10.279  67.855  1.00  0.00     4.343 C  
HETATM   16  C   UNL     1      -8.370  11.755  67.531  1.00  0.00    -0.154 C  
HETATM   17  C   UNL     1     -12.307  11.163  66.647  1.00  0.00     2.632 C  
HETATM   18  C   UNL     1      -9.998  11.861  67.685  1.00  0.00    -0.197 C  
HETATM   19  C   UNL     1     -10.805  11.329  66.402  1.00  0.00    -0.306 C  
ENDROOT
BRANCH   3  20
HETATM   20  N   UNL     1      -8.575  15.047  66.370  1.00  0.00    -0.153 N  
HETATM   21  C   UNL     1      -6.956  15.228  66.724  1.00  0.00     0.705 C  
HETATM   22  C   UNL     1      -6.688  16.522  67.494  1.00  0.00    -0.175 C  
HETATM   23  C   UNL     1      -9.346  15.263  67.637  1.00  0.00    -0.199 C  
HETATM   24  C   UNL     1      -7.558  16.594  68.744  1.00  0.00    -0.227 C  
HETATM   25  C   UNL     1      -8.796  16.229  65.336  1.00  0.00     1.064 C  
HETATM   26  C   UNL     1      -9.017  16.562  68.335  1.00  0.00    -0.219 C  
ENDBRANCH   3  20
BRANCH   5  27
HETATM   27  O   UNL     1      -7.433  11.013  64.394  1.00  0.00     0.401 OA 
BRANCH  27  28
HETATM   28  C   UNL     1      -7.027   9.738  64.192  1.00  0.00    -0.123 C  
HETATM   29  C   UNL     1      -6.874   9.055  65.532  1.00  0.00    -0.073 C  
HETATM   30  O   UNL     1      -6.995   9.181  63.108  1.00  0.00    -0.090 OA 
ENDBRANCH  27  28
ENDBRANCH   5  27
BRANCH  10  31
HETATM   31  O   UNL     1     -12.952  11.988  72.507  1.00  0.00    -0.088 OA 
BRANCH  31  32
HETATM   32  C   UNL     1     -13.394  10.873  73.095  1.00  0.00     3.467 C  
HETATM   33  C   UNL     1     -12.668   9.728  72.455  1.00  0.00    -0.214 C  
HETATM   34  O   UNL     1     -14.244  10.796  73.949  1.00  0.00     4.596 OA 
ENDBRANCH  31  32
ENDBRANCH  10  31
BRANCH   9  35
HETATM   35  N   UNL     1     -11.221  14.296  71.965  1.00  0.00     1.236 NA 
HETATM   36  C   UNL     1     -12.455  16.415  71.890  1.00  0.00     0.067 C  
HETATM   37  C   UNL     1     -11.126  15.711  71.661  1.00  0.00    -0.140 C  
HETATM   38  C   UNL     1     -12.875  16.298  73.348  1.00  0.00    -0.534 C  
HETATM   39  C   UNL     1     -12.911  14.832  73.745  1.00  0.00    -0.101 C  
HETATM   40  C   UNL     1     -11.662  14.036  73.335  1.00  0.00     1.635 C  
ENDBRANCH   9  35
TORSDOF 6
ENDMDL
MODEL       94
REMARK 921   NORMALIZED FREE ENERGY PREDICTED BY IDOCK:   23.79 KCAL/MOL
REMARK 922        TOTAL FREE ENERGY PREDICTED BY IDOCK:   30.47 KCAL/MOL
REMARK 923 INTER-LIGAND FREE ENERGY PREDICTED BY IDOCK:   29.27 KCAL/MOL
REMARK 924 INTRA-LIGAND FREE ENERGY PREDICTED BY IDOCK:    1.20 KCAL/MOL
REMARK 927      BINDING AFFINITY PREDICTED BY RF-SCORE:    0.00 PKD
ROOT
HETATM    1  C   UNL     1      -6.751   7.209  69.610  1.00  0.00    -0.049 C  
HETATM    2  C   UNL     1      -6.633   8.647  69.800  1.00  0.00    -0.042 C  
HETATM    3  C   UNL     1      -7.952   8.343  70.477  1.00  0.00    -0.098 C  
HETATM    4  C   UNL     1     -10.283   7.390  65.850  1.00  0.00     0.977 C  
HETATM    5  C   UNL     1      -8.615   6.403  69.996  1.00  0.00    -0.135 C  
HETATM    6  C   UNL     1      -7.965   6.916  71.023  1.00  0.00    -0.102 C  
HETATM    7  C   UNL     1      -9.164   8.386  66.286  1.00  0.00    -0.263 C  
HETATM    8  C   UNL     1      -9.845   9.893  66.306  1.00  0.00    -0.308 C  
HETATM    9  C   UNL     1      -9.127  11.034  65.508  1.00  0.00    -0.207 C  
HETATM   10  C   UNL     1      -8.758  10.303  64.195  1.00  0.00    -0.204 C  
HETATM   11  C   UNL     1      -7.514   9.469  64.489  1.00  0.00    -0.114 C  
HETATM   12  C   UNL     1      -7.508   6.357  72.359  1.00  0.00    -0.096 C  
HETATM   13  C   UNL     1      -9.789   7.383  70.463  1.00  0.00    -0.180 C  
HETATM   14  C   UNL     1      -8.020   8.186  65.185  1.00  0.00    -0.126 C  
HETATM   15  C   UNL     1      -6.912   7.192  65.534  1.00  0.00    -0.056 C  
HETATM   16  C   UNL     1     -10.009   7.552  68.706  1.00  0.00    -0.175 C  
HETATM   17  C   UNL     1      -6.343   7.348  66.932  1.00  0.00    -0.048 C  
HETATM   18  C   UNL     1      -8.736   8.014  67.784  1.00  0.00    -0.127 C  
HETATM   19  C   UNL     1      -7.428   7.102  67.983  1.00  0.00    -0.099 C  
ENDROOT
BRANCH   3  20
HETATM   20  N   UNL     1      -8.799   9.897  71.001  1.00  0.00     0.662 N  
HETATM   21  C   UNL     1     -10.272   9.918  71.781  1.00  0.00     1.523 C  
HETATM   22  C   UNL     1     -10.772  11.346  72.005  1.00  0.00     7.969 C  
HETATM   23  C   UNL     1      -8.907  10.783  69.797  1.00  0.00     0.465 C  
HETATM   24  C   UNL     1     -10.810  12.116  70.689  1.00  0.00     2.420 C  
HETATM   25  C   UNL     1      -7.856  10.524  72.111  1.00  0.00     6.442 C  
HETATM   26  C   UNL     1      -9.412  12.172  70.108  1.00  0.00     3.592 C  
ENDBRANCH   3  20
BRANCH   5  27
HETATM   27  O   UNL     1      -9.147   5.276  71.018  1.00  0.00    -0.138 OA 
BRANCH  27  28
HETATM   28  C   UNL     1      -8.668   4.028  71.228  1.00  0.00    -0.090 C  
HETATM   29  C   UNL     1      -7.783   3.641  70.066  1.00  0.00    -0.047 C  
HETATM   30  O   UNL     1      -8.769   3.411  72.276  1.00  0.00    -0.085 OA 
ENDBRANCH  27  28
ENDBRANCH   5  27
BRANCH  10  31
HETATM   31  O   UNL     1      -8.935  10.913  62.932  1.00  0.00    -0.234 OA 
BRANCH  31  32
HETATM   32  C   UNL     1      -8.776  12.204  62.629  1.00  0.00     1.889 C  
HETATM   33  C   UNL     1      -7.300  12.464  62.599  1.00  0.00     4.413 C  
HETATM   34  O   UNL     1      -9.652  13.017  62.451  1.00  0.00     3.723 OA 
ENDBRANCH  31  32
ENDBRANCH  10  31
BRANCH   9  35
HETATM   35  N   UNL     1      -9.784  12.341  65.351  1.00  0.00    -0.188 NA 
HETATM   36  C   UNL     1     -12.193  12.495  65.790  1.00  0.00    -0.361 C  
HETATM   37  C   UNL     1     -11.096  12.429  64.738  1.00  0.00    -0.304 C  
HETATM   38  C   UNL     1     -12.022  13.732  66.660  1.00  0.00    -0.469 C  
HETATM   39  C   UNL     1     -10.628  13.733  67.264  1.00  0.00    -0.275 C  
HETATM   40  C   UNL     1      -9.503  13.456  66.255  1.00  0.00    -0.183 C  
ENDBRANCH   9  35
TORSDOF 6
ENDMDL
MODEL       95
REMARK 921   NORMALIZED FREE ENERGY PREDICTED BY IDOCK:   24.19 KCAL/MOL
REMARK 922        TOTAL FREE ENERGY PREDICTED BY IDOCK:   31.01 KCAL/MOL
REMARK 923 INTER-LIGAND FREE ENERGY PREDICTED BY IDOCK:   28.08 KCAL/MOL
REMARK 924 INTRA-LIGAND FREE ENERGY PREDICTED BY IDOCK:    2.93 KCAL/MOL
REMARK 927      BINDING AFFINITY PREDICTED BY RF-SCORE:    0.00 PKD
ROOT
HETATM    1  C   UNL     1     -11.476  13.704  70.960  1.00  0.00     0.771 C  
HETATM    2  C   UNL     1     -12.072  14.785  70.190  1.00  0.00    -0.382 C  
HETATM    3  C   UNL     1     -12.051  13.653  69.186  1.00  0.00    -0.319 C  
HETATM    4  C   UNL     1      -6.807  13.913  68.770  1.00  0.00    -0.105 C  
HETATM    5  C   UNL     1     -10.847  12.065  69.869  1.00  0.00     0.521 C  
HETATM    6  C   UNL     1     -12.145  12.301  69.892  1.00  0.00    -0.319 C  
HETATM    7  C   UNL     1      -7.905  14.996  69.003  1.00  0.00    -0.170 C  
HETATM    8  C   UNL     1      -8.047  15.845  67.590  1.00  0.00    -0.160 C  
HETATM    9  C   UNL     1      -7.942  17.406  67.657  1.00  0.00    -0.193 C  
HETATM   10  C   UNL     1      -6.748  17.590  68.623  1.00  0.00    -0.211 C  
HETATM   11  C   UNL     1      -7.285  17.379  70.036  1.00  0.00     1.098 C  
HETATM   12  C   UNL     1     -13.350  11.483  70.322  1.00  0.00     0.979 C  
HETATM   13  C   UNL     1     -11.042  12.084  68.282  1.00  0.00    -0.290 C  
HETATM   14  C   UNL     1      -7.349  15.848  70.238  1.00  0.00     0.827 C  
HETATM   15  C   UNL     1      -7.838  15.427  71.624  1.00  0.00     4.523 C  
HETATM   16  C   UNL     1      -9.460  12.895  68.347  1.00  0.00    -0.162 C  
HETATM   17  C   UNL     1      -9.333  15.185  71.719  1.00  0.00     4.192 C  
HETATM   18  C   UNL     1      -9.289  14.238  69.270  1.00  0.00     0.232 C  
HETATM   19  C   UNL     1      -9.750  14.037  70.795  1.00  0.00     3.661 C  
ENDROOT
BRANCH   3  20
HETATM   20  N   UNL     1     -12.581  14.238  67.518  1.00  0.00     0.178 N  
HETATM   21  C   UNL     1     -12.898  13.209  66.245  1.00  0.00     0.543 C  
HETATM   22  C   UNL     1     -13.222  13.980  64.964  1.00  0.00     0.204 C  
HETATM   23  C   UNL     1     -11.575  15.246  67.051  1.00  0.00    -0.095 C  
HETATM   24  C   UNL     1     -12.110  14.970  64.636  1.00  0.00    -0.330 C  
HETATM   25  C   UNL     1     -14.008  14.892  67.746  1.00  0.00     9.364 C  
HETATM   26  C   UNL     1     -11.972  15.956  65.778  1.00  0.00     1.005 C  
ENDBRANCH   3  20
BRANCH   5  27
HETATM   27  O   UNL     1     -11.227  10.499  69.898  1.00  0.00    -0.263 OA 
BRANCH  27  28
HETATM   28  C   UNL     1     -10.484   9.454  70.331  1.00  0.00    -0.256 C  
HETATM   29  C   UNL     1     -10.921   9.089  71.730  1.00  0.00    -0.443 C  
HETATM   30  O   UNL     1      -9.738   8.792  69.629  1.00  0.00    -0.168 OA 
ENDBRANCH  27  28
ENDBRANCH   5  27
BRANCH  10  31
HETATM   31  O   UNL     1      -5.732  18.543  68.374  1.00  0.00    -0.177 OA 
BRANCH  31  32
HETATM   32  C   UNL     1      -5.309  18.981  67.185  1.00  0.00    -0.150 C  
HETATM   33  C   UNL     1      -5.139  20.466  67.306  1.00  0.00    -0.177 C  
HETATM   34  O   UNL     1      -5.134  18.317  66.191  1.00  0.00    -0.136 OA 
ENDBRANCH  31  32
ENDBRANCH  10  31
BRANCH   9  35
HETATM   35  N   UNL     1      -7.886  18.189  66.412  1.00  0.00    -0.262 NA 
HETATM   36  C   UNL     1      -9.947  18.443  65.104  1.00  0.00     1.643 C  
HETATM   37  C   UNL     1      -8.604  17.738  65.235  1.00  0.00     2.023 C  
HETATM   38  C   UNL     1      -9.746  19.945  64.958  1.00  0.00     1.484 C  
HETATM   39  C   UNL     1      -8.925  20.459  66.128  1.00  0.00    -0.097 C  
HETATM   40  C   UNL     1      -7.662  19.634  66.424  1.00  0.00    -0.298 C  
ENDBRANCH   9  35
TORSDOF 6
ENDMDL
MODEL       96
REMARK 921   NORMALIZED FREE ENERGY PREDICTED BY IDOCK:   28.32 KCAL/MOL
REMARK 922        TOTAL FREE ENERGY PREDICTED BY IDOCK:   36.58 KCAL/MOL
REMARK 923 INTER-LIGAND FREE ENERGY PREDICTED BY IDOCK:   22.16 KCAL/MOL
REMARK 924 INTRA-LIGAND FREE ENERGY PREDICTED BY IDOCK:   14.42 KCAL/MOL
REMARK 927      BINDING AFFINITY PREDICTED BY RF-SCORE:    0.00 PKD
ROOT
HETATM    1  C   UNL     1      -9.657  11.020  69.480  1.00  0.00     0.226 C  
HETATM    2  C   UNL     1      -9.511  12.210  70.305  1.00  0.00     4.270 C  
HETATM    3  C   UNL     1     -10.972  11.866  70.498  1.00  0.00     1.549 C  
HETATM    4  C   UNL     1     -12.121  13.309  65.564  1.00  0.00    -0.480 C  
HETATM    5  C   UNL     1     -11.600  10.434  69.087  1.00  0.00    -0.164 C  
HETATM    6  C   UNL     1     -11.201  10.363  70.342  1.00  0.00    -0.399 C  
HETATM    7  C   UNL     1     -11.093  13.841  66.610  1.00  0.00    -0.316 C  
HETATM    8  C   UNL     1     -11.673  15.291  67.156  1.00  0.00    -0.061 C  
HETATM    9  C   UNL     1     -10.717  16.531  67.107  1.00  0.00    -0.220 C  
HETATM   10  C   UNL     1     -10.072  16.363  65.711  1.00  0.00    -0.327 C  
HETATM   11  C   UNL     1      -8.989  15.297  65.849  1.00  0.00    -0.011 C  
HETATM   12  C   UNL     1     -11.123   9.234  71.354  1.00  0.00    -0.437 C  
HETATM   13  C   UNL     1     -12.798  11.304  69.692  1.00  0.00     0.318 C  
HETATM   14  C   UNL     1      -9.723  13.939  65.788  1.00  0.00    -0.190 C  
HETATM   15  C   UNL     1      -8.794  12.728  65.876  1.00  0.00     0.482 C  
HETATM   16  C   UNL     1     -12.561  12.222  68.187  1.00  0.00     1.332 C  
HETATM   17  C   UNL     1      -8.585  12.195  67.282  1.00  0.00    -0.180 C  
HETATM   18  C   UNL     1     -11.075  12.817  67.840  1.00  0.00    -0.281 C  
HETATM   19  C   UNL     1      -9.911  11.710  67.875  1.00  0.00    -0.189 C  
ENDROOT
BRANCH   3  20
HETATM   20  N   UNL     1     -11.836  13.173  71.473  1.00  0.00     0.832 N  
HETATM   21  C   UNL     1     -12.864  14.295  70.791  1.00  0.00    -0.337 C  
HETATM   22  C   UNL     1     -13.356  15.310  71.823  1.00  0.00    -0.540 C  
HETATM   23  C   UNL     1     -10.795  13.922  72.250  1.00  0.00     4.578 C  
HETATM   24  C   UNL     1     -12.179  15.970  72.533  1.00  0.00    -0.612 C  
HETATM   25  C   UNL     1     -12.830  12.386  72.426  1.00  0.00     0.326 C  
HETATM   26  C   UNL     1     -11.368  14.905  73.243  1.00  0.00     0.438 C  
ENDBRANCH   3  20
BRANCH   5  27
HETATM   27  O   UNL     1     -12.432   9.085  69.374  1.00  0.00     1.650 OA 
BRANCH  27  28
HETATM   28  C   UNL     1     -13.271   8.808  70.400  1.00  0.00     1.121 C  
HETATM   29  C   UNL     1     -14.321   9.892  70.480  1.00  0.00     1.450 C  
HETATM   30  O   UNL     1     -13.295   7.755  71.015  1.00  0.00    -0.130 OA 
ENDBRANCH  27  28
ENDBRANCH   5  27
BRANCH  10  31
HETATM   31  O   UNL     1      -9.893  17.464  64.840  1.00  0.00     0.730 OA 
BRANCH  31  32
HETATM   32  C   UNL     1      -9.829  18.755  65.174  1.00  0.00     1.865 C  
HETATM   33  C   UNL     1      -8.596  18.926  66.010  1.00  0.00    -0.050 C  
HETATM   34  O   UNL     1     -10.628  19.615  64.890  1.00  0.00     0.094 OA 
ENDBRANCH  31  32
ENDBRANCH  10  31
BRANCH   9  35
HETATM   35  N   UNL     1     -11.240  17.870  67.416  1.00  0.00     0.137 NA 
HETATM   36  C   UNL     1     -11.152  18.648  69.742  1.00  0.00     2.699 C  
HETATM   37  C   UNL     1     -12.017  18.089  68.621  1.00  0.00     3.609 C  
HETATM   38  C   UNL     1     -10.562  19.992  69.338  1.00  0.00     0.348 C  
HETATM   39  C   UNL     1      -9.803  19.837  68.032  1.00  0.00    -0.533 C  
HETATM   40  C   UNL     1     -10.576  19.083  66.938  1.00  0.00    -0.436 C  
ENDBRANCH   9  35
TORSDOF 6
ENDMDL
MODEL       97
REMARK 921   NORMALIZED FREE ENERGY PREDICTED BY IDOCK:   30.38 KCAL/MOL
REMARK 922        TOTAL FREE ENERGY PREDICTED BY IDOCK:   39.37 KCAL/MOL
REMARK 923 INTER-LIGAND FREE ENERGY PREDICTED BY IDOCK:   38.50 KCAL/MOL
REMARK 924 INTRA-LIGAND FREE ENERGY PREDICTED BY IDOCK:    0.87 KCAL/MOL
REMARK 927      BINDING AFFINITY PREDICTED BY RF-SCORE:    0.00 PKD
ROOT
HETATM    1  C   UNL     1     -12.165  10.657  67.395  1.00  0.00     2.319 C  
HETATM    2  C   UNL     1     -10.893  10.755  66.697  1.00  0.00    -0.228 C  
HETATM    3  C   UNL     1     -10.460  10.751  68.147  1.00  0.00    -0.185 C  
HETATM    4  C   UNL     1     -12.404  15.589  68.899  1.00  0.00     0.055 C  
HETATM    5  C   UNL     1     -12.109  11.052  69.424  1.00  0.00    -0.318 C  
HETATM    6  C   UNL     1     -11.460   9.981  69.009  1.00  0.00    -0.069 C  
HETATM    7  C   UNL     1     -11.730  14.898  67.673  1.00  0.00    -0.329 C  
HETATM    8  C   UNL     1     -10.212  15.542  67.536  1.00  0.00    -0.254 C  
HETATM    9  C   UNL     1      -9.783  16.123  66.146  1.00  0.00    -0.323 C  
HETATM   10  C   UNL     1     -11.057  16.896  65.733  1.00  0.00     0.238 C  
HETATM   11  C   UNL     1     -12.050  15.864  65.205  1.00  0.00     0.852 C  
HETATM   12  C   UNL     1     -11.546   8.505  69.355  1.00  0.00     0.695 C  
HETATM   13  C   UNL     1     -10.706  11.438  70.088  1.00  0.00     0.578 C  
HETATM   14  C   UNL     1     -12.709  15.236  66.454  1.00  0.00     1.452 C  
HETATM   15  C   UNL     1     -13.773  14.187  66.131  1.00  0.00     2.926 C  
HETATM   16  C   UNL     1     -11.200  13.071  69.583  1.00  0.00    -0.080 C  
HETATM   17  C   UNL     1     -13.256  12.761  66.075  1.00  0.00     1.925 C  
HETATM   18  C   UNL     1     -11.581  13.340  68.013  1.00  0.00    -0.371 C  
HETATM   19  C   UNL     1     -12.698  12.339  67.437  1.00  0.00     2.145 C  
ENDROOT
BRANCH   3  20
HETATM   20  N   UNL     1      -8.646  11.057  68.298  1.00  0.00    -0.136 N  
HETATM   21  C   UNL     1      -7.536  10.560  67.157  1.00  0.00    -0.097 C  
HETATM   22  C   UNL     1      -6.103  10.866  67.594  1.00  0.00    -0.047 C  
HETATM   23  C   UNL     1      -8.205  10.523  69.627  1.00  0.00    -0.015 C  
HETATM   24  C   UNL     1      -5.819  10.268  68.967  1.00  0.00    -0.037 C  
HETATM   25  C   UNL     1      -8.488  12.633  68.213  1.00  0.00    -0.163 C  
HETATM   26  C   UNL     1      -6.777  10.868  69.977  1.00  0.00    -0.128 C  
ENDBRANCH   3  20
BRANCH   5  27
HETATM   27  O   UNL     1     -12.494  10.195  70.733  1.00  0.00    -0.309 OA 
BRANCH  27  28
HETATM   28  C   UNL     1     -12.887  10.637  71.950  1.00  0.00    -0.382 C  
HETATM   29  C   UNL     1     -11.667  10.808  72.826  1.00  0.00     5.057 C  
HETATM   30  O   UNL     1     -14.010  11.028  72.220  1.00  0.00     0.165 OA 
ENDBRANCH  27  28
ENDBRANCH   5  27
BRANCH  10  31
HETATM   31  O   UNL     1     -10.988  18.187  65.158  1.00  0.00    -0.637 OA 
BRANCH  31  32
HETATM   32  C   UNL     1     -11.717  19.257  65.486  1.00  0.00     2.643 C  
HETATM   33  C   UNL     1     -13.133  18.952  65.098  1.00  0.00    15.311 C  
HETATM   34  O   UNL     1     -11.311  20.289  65.966  1.00  0.00     0.429 OA 
ENDBRANCH  31  32
ENDBRANCH  10  31
BRANCH   9  35
HETATM   35  N   UNL     1      -8.516  16.860  66.021  1.00  0.00    -0.503 NA 
HETATM   36  C   UNL     1      -7.173  17.219  68.044  1.00  0.00    -0.192 C  
HETATM   37  C   UNL     1      -8.134  17.828  67.032  1.00  0.00    -0.219 C  
HETATM   38  C   UNL     1      -5.895  16.762  67.354  1.00  0.00    -0.190 C  
HETATM   39  C   UNL     1      -6.246  15.806  66.227  1.00  0.00     2.351 C  
HETATM   40  C   UNL     1      -7.370  16.302  65.305  1.00  0.00     4.576 C  
ENDBRANCH   9  35
TORSDOF 6
ENDMDL
MODEL       98
REMARK 921   NORMALIZED FREE ENERGY PREDICTED BY IDOCK:   32.62 KCAL/MOL
REMARK 922        TOTAL FREE ENERGY PREDICTED BY IDOCK:   42.39 KCAL/MOL
REMARK 923 INTER-LIGAND FREE ENERGY PREDICTED BY IDOCK:   37.45 KCAL/MOL
REMARK 924 INTRA-LIGAND FREE ENERGY PREDICTED BY IDOCK:    4.94 KCAL/MOL
REMARK 927      BINDING AFFINITY PREDICTED BY RF-SCORE:    0.00 PKD
ROOT
HETATM    1  C   UNL     1      -9.114  11.736  65.502  1.00  0.00     0.013 C  
HETATM    2  C   UNL     1      -7.956  11.759  66.383  1.00  0.00     0.065 C  
HETATM    3  C   UNL     1      -8.959  10.969  67.196  1.00  0.00    -0.143 C  
HETATM    4  C   UNL     1     -11.879  15.268  68.056  1.00  0.00    -0.176 C  
HETATM    5  C   UNL     1     -10.890  11.130  66.369  1.00  0.00    -0.225 C  
HETATM    6  C   UNL     1      -9.933  10.226  66.282  1.00  0.00    -0.295 C  
HETATM    7  C   UNL     1     -10.341  15.045  67.910  1.00  0.00    -0.241 C  
HETATM    8  C   UNL     1      -9.690  15.198  69.423  1.00  0.00    -0.206 C  
HETATM    9  C   UNL     1      -8.493  16.191  69.610  1.00  0.00     0.233 C  
HETATM   10  C   UNL     1      -8.971  17.406  68.781  1.00  0.00    -0.219 C  
HETATM   11  C   UNL     1      -8.710  17.072  67.315  1.00  0.00    -0.212 C  
HETATM   12  C   UNL     1      -9.844   8.854  65.637  1.00  0.00     0.006 C  
HETATM   13  C   UNL     1     -10.888  10.738  67.919  1.00  0.00    -0.313 C  
HETATM   14  C   UNL     1      -9.885  16.172  66.871  1.00  0.00    -0.247 C  
HETATM   15  C   UNL     1      -9.823  15.752  65.402  1.00  0.00    -0.212 C  
HETATM   16  C   UNL     1     -11.165  12.485  68.106  1.00  0.00    -0.312 C  
HETATM   17  C   UNL     1      -9.127  14.426  65.155  1.00  0.00     1.558 C  
HETATM   18  C   UNL     1     -10.112  13.537  67.421  1.00  0.00    -0.237 C  
HETATM   19  C   UNL     1      -9.878  13.288  65.851  1.00  0.00    -0.241 C  
ENDROOT
BRANCH   3  20
HETATM   20  N   UNL     1      -8.312  10.621  68.888  1.00  0.00    -0.143 N  
HETATM   21  C   UNL     1      -6.719  10.240  69.199  1.00  0.00    -0.058 C  
HETATM   22  C   UNL     1      -6.495   9.909  70.675  1.00  0.00    -0.106 C  
HETATM   23  C   UNL     1      -9.163   9.542  69.487  1.00  0.00    -0.189 C  
HETATM   24  C   UNL     1      -7.445   8.807  71.130  1.00  0.00    -0.115 C  
HETATM   25  C   UNL     1      -8.458  11.991  69.674  1.00  0.00     1.595 C  
HETATM   26  C   UNL     1      -8.874   9.277  70.945  1.00  0.00    -0.252 C  
ENDBRANCH   3  20
BRANCH   5  27
HETATM   27  O   UNL     1     -11.921   9.930  66.065  1.00  0.00     2.933 OA 
BRANCH  27  28
HETATM   28  C   UNL     1     -12.026   8.726  66.675  1.00  0.00     6.225 C  
HETATM   29  C   UNL     1     -12.357   8.943  68.133  1.00  0.00     5.433 C  
HETATM   30  O   UNL     1     -12.055   7.653  66.097  1.00  0.00     5.286 OA 
ENDBRANCH  27  28
ENDBRANCH   5  27
BRANCH  10  31
HETATM   31  O   UNL     1      -8.826  18.731  69.255  1.00  0.00    -0.050 OA 
BRANCH  31  32
HETATM   32  C   UNL     1      -8.899  19.857  68.540  1.00  0.00    -0.139 C  
HETATM   33  C   UNL     1     -10.256  20.443  68.794  1.00  0.00    -0.092 C  
HETATM   34  O   UNL     1      -8.053  20.300  67.801  1.00  0.00    -0.294 OA 
ENDBRANCH  31  32
ENDBRANCH  10  31
BRANCH   9  35
HETATM   35  N   UNL     1      -7.997  16.492  70.962  1.00  0.00     4.581 NA 
HETATM   36  C   UNL     1      -6.779  14.740  72.174  1.00  0.00     1.786 C  
HETATM   37  C   UNL     1      -8.090  15.495  72.012  1.00  0.00     6.883 C  
HETATM   38  C   UNL     1      -5.660  15.697  72.562  1.00  0.00     0.836 C  
HETATM   39  C   UNL     1      -5.573  16.813  71.536  1.00  0.00     0.611 C  
HETATM   40  C   UNL     1      -6.924  17.459  71.189  1.00  0.00     4.122 C  
ENDBRANCH   9  35
TORSDOF 6
ENDMDL
MODEL       99
REMARK 921   NORMALIZED FREE ENERGY PREDICTED BY IDOCK:   33.25 KCAL/MOL
REMARK 922        TOTAL FREE ENERGY PREDICTED BY IDOCK:   43.24 KCAL/MOL
REMARK 923 INTER-LIGAND FREE ENERGY PREDICTED BY IDOCK:   39.58 KCAL/MOL
REMARK 924 INTRA-LIGAND FREE ENERGY PREDICTED BY IDOCK:    3.66 KCAL/MOL
REMARK 927      BINDING AFFINITY PREDICTED BY RF-SCORE:    0.00 PKD
ROOT
HETATM    1  C   UNL     1     -13.158  14.063  67.896  1.00  0.00     2.599 C  
HETATM    2  C   UNL     1     -13.501  12.979  68.804  1.00  0.00     4.764 C  
HETATM    3  C   UNL     1     -12.765  13.938  69.715  1.00  0.00     0.104 C  
HETATM    4  C   UNL     1      -8.165  12.858  67.387  1.00  0.00    -0.187 C  
HETATM    5  C   UNL     1     -11.762  15.415  68.599  1.00  0.00    -0.354 C  
HETATM    6  C   UNL     1     -12.921  15.377  69.227  1.00  0.00     0.737 C  
HETATM    7  C   UNL     1      -9.427  11.991  67.690  1.00  0.00    -0.185 C  
HETATM    8  C   UNL     1      -9.023  10.976  68.932  1.00  0.00    -0.123 C  
HETATM    9  C   UNL     1      -9.278   9.442  68.739  1.00  0.00    -0.132 C  
HETATM   10  C   UNL     1      -8.777   9.229  67.291  1.00  0.00    -0.128 C  
HETATM   11  C   UNL     1      -9.884   9.721  66.362  1.00  0.00    -0.298 C  
HETATM   12  C   UNL     1     -13.990  16.416  69.515  1.00  0.00     5.521 C  
HETATM   13  C   UNL     1     -11.152  15.193  70.060  1.00  0.00    -0.297 C  
HETATM   14  C   UNL     1      -9.732  11.257  66.301  1.00  0.00    -0.246 C  
HETATM   15  C   UNL     1     -10.743  11.944  65.382  1.00  0.00    -0.330 C  
HETATM   16  C   UNL     1     -10.004  14.178  69.156  1.00  0.00     0.015 C  
HETATM   17  C   UNL     1     -12.009  12.412  66.075  1.00  0.00    -0.419 C  
HETATM   18  C   UNL     1     -10.580  12.975  68.206  1.00  0.00    -0.260 C  
HETATM   19  C   UNL     1     -11.680  13.462  67.141  1.00  0.00    -0.424 C  
ENDROOT
BRANCH   3  20
HETATM   20  N   UNL     1     -12.512  13.199  71.387  1.00  0.00    -0.250 N  
HETATM   21  C   UNL     1     -13.313  11.835  71.916  1.00  0.00    -0.296 C  
HETATM   22  C   UNL     1     -12.976  11.512  73.372  1.00  0.00     6.451 C  
HETATM   23  C   UNL     1     -12.736  14.281  72.400  1.00  0.00    -0.292 C  
HETATM   24  C   UNL     1     -13.245  12.717  74.267  1.00  0.00    11.633 C  
HETATM   25  C   UNL     1     -11.010  12.691  71.389  1.00  0.00     4.926 C  
HETATM   26  C   UNL     1     -12.382  13.876  73.811  1.00  0.00     1.609 C  
ENDBRANCH   3  20
BRANCH   5  27
HETATM   27  O   UNL     1     -11.786  17.007  68.848  1.00  0.00     0.353 OA 
BRANCH  27  28
HETATM   28  C   UNL     1     -11.037  17.743  69.703  1.00  0.00     1.425 C  
HETATM   29  C   UNL     1     -11.399  19.201  69.538  1.00  0.00     3.614 C  
HETATM   30  O   UNL     1     -10.345  17.284  70.595  1.00  0.00     0.949 OA 
ENDBRANCH  27  28
ENDBRANCH   5  27
BRANCH  10  31
HETATM   31  O   UNL     1      -7.984   8.113  66.938  1.00  0.00    -0.101 OA 
BRANCH  31  32
HETATM   32  C   UNL     1      -6.993   8.076  66.043  1.00  0.00    -0.058 C  
HETATM   33  C   UNL     1      -7.483   7.254  64.888  1.00  0.00    -0.091 C  
HETATM   34  O   UNL     1      -5.899   8.576  66.155  1.00  0.00    -0.043 OA 
ENDBRANCH  31  32
ENDBRANCH  10  31
BRANCH   9  35
HETATM   35  N   UNL     1      -8.777   8.486  69.739  1.00  0.00    -0.131 NA 
HETATM   36  C   UNL     1      -6.600   7.425  69.346  1.00  0.00    -0.037 C  
HETATM   37  C   UNL     1      -8.114   7.268  69.314  1.00  0.00    -0.124 C  
HETATM   38  C   UNL     1      -6.127   7.722  70.762  1.00  0.00    -0.034 C  
HETATM   39  C   UNL     1      -6.855   8.946  71.289  1.00  0.00    -0.090 C  
HETATM   40  C   UNL     1      -8.377   8.915  71.078  1.00  0.00    -0.191 C  
ENDBRANCH   9  35
TORSDOF 6
ENDMDL
MODEL      100
REMARK 921   NORMALIZED FREE ENERGY PREDICTED BY IDOCK:   34.65 KCAL/MOL
REMARK 922        TOTAL FREE ENERGY PREDICTED BY IDOCK:   45.13 KCAL/MOL
REMARK 923 INTER-LIGAND FREE ENERGY PREDICTED BY IDOCK:   32.42 KCAL/MOL
REMARK 924 INTRA-LIGAND FREE ENERGY PREDICTED BY IDOCK:   12.71 KCAL/MOL
REMARK 927      BINDING AFFINITY PREDICTED BY RF-SCORE:    0.00 PKD
ROOT
HETATM    1  C   UNL     1      -9.713   7.390  66.496  1.00  0.00    -0.225 C  
HETATM    2  C   UNL     1     -10.916   8.119  66.122  1.00  0.00     2.084 C  
HETATM    3  C   UNL     1      -9.968   8.466  64.994  1.00  0.00     1.976 C  
HETATM    4  C   UNL     1      -7.038  11.473  68.176  1.00  0.00    -0.076 C  
HETATM    5  C   UNL     1      -7.994   7.907  65.471  1.00  0.00    -0.119 C  
HETATM    6  C   UNL     1      -8.958   7.342  64.769  1.00  0.00     0.649 C  
HETATM    7  C   UNL     1      -8.569  11.175  68.114  1.00  0.00    -0.140 C  
HETATM    8  C   UNL     1      -9.297  12.536  67.518  1.00  0.00    -0.187 C  
HETATM    9  C   UNL     1     -10.488  13.147  68.331  1.00  0.00    -0.253 C  
HETATM   10  C   UNL     1      -9.950  13.056  69.778  1.00  0.00     1.682 C  
HETATM   11  C   UNL     1     -10.138  11.610  70.229  1.00  0.00     2.354 C  
HETATM   12  C   UNL     1      -9.032   6.095  63.906  1.00  0.00     0.761 C  
HETATM   13  C   UNL     1      -8.083   9.052  64.359  1.00  0.00    -0.146 C  
HETATM   14  C   UNL     1      -8.953  10.822  69.626  1.00  0.00     0.259 C  
HETATM   15  C   UNL     1      -8.944   9.338  69.997  1.00  0.00    -0.216 C  
HETATM   16  C   UNL     1      -7.793  10.098  65.768  1.00  0.00    -0.139 C  
HETATM   17  C   UNL     1      -9.644   8.435  68.999  1.00  0.00    -0.160 C  
HETATM   18  C   UNL     1      -8.793   9.990  67.062  1.00  0.00    -0.147 C  
HETATM   19  C   UNL     1      -8.946   8.498  67.637  1.00  0.00    -0.141 C  
ENDROOT
BRANCH   3  20
HETATM   20  N   UNL     1     -10.709   9.732  63.873  1.00  0.00     2.574 N  
HETATM   21  C   UNL     1     -10.750  11.360  64.231  1.00  0.00    -0.356 C  
HETATM   22  C   UNL     1     -11.508  12.153  63.166  1.00  0.00    -0.263 C  
HETATM   23  C   UNL     1     -12.110   9.298  63.564  1.00  0.00    14.545 C  
HETATM   24  C   UNL     1     -12.905  11.578  62.960  1.00  0.00     0.464 C  
HETATM   25  C   UNL     1      -9.790   9.725  62.581  1.00  0.00     0.691 C  
HETATM   26  C   UNL     1     -12.786  10.137  62.505  1.00  0.00     7.442 C  
ENDBRANCH   3  20
BRANCH   5  27
HETATM   27  O   UNL     1      -6.965   7.084  64.543  1.00  0.00    -0.048 OA 
BRANCH  27  28
HETATM   28  C   UNL     1      -7.166   6.559  63.312  1.00  0.00    -0.059 C  
HETATM   29  C   UNL     1      -6.017   5.635  62.981  1.00  0.00    -0.018 C  
HETATM   30  O   UNL     1      -8.201   6.655  62.674  1.00  0.00    -0.090 OA 
ENDBRANCH  27  28
ENDBRANCH   5  27
BRANCH  10  31
HETATM   31  O   UNL     1     -10.102  14.122  70.695  1.00  0.00     1.540 OA 
BRANCH  31  32
HETATM   32  C   UNL     1     -11.233  14.753  71.020  1.00  0.00    -0.073 C  
HETATM   33  C   UNL     1     -11.214  14.939  72.508  1.00  0.00     0.308 C  
HETATM   34  O   UNL     1     -12.121  15.078  70.268  1.00  0.00    -0.287 OA 
ENDBRANCH  31  32
ENDBRANCH  10  31
BRANCH   9  35
HETATM   35  N   UNL     1     -11.051  14.449  67.937  1.00  0.00    -0.266 NA 
HETATM   36  C   UNL     1      -9.654  16.449  68.200  1.00  0.00    -0.227 C  
HETATM   37  C   UNL     1     -10.808  15.624  68.752  1.00  0.00    -0.262 C  
HETATM   38  C   UNL     1      -9.973  16.937  66.794  1.00  0.00    -0.291 C  
HETATM   39  C   UNL     1     -10.318  15.747  65.915  1.00  0.00    -0.372 C  
HETATM   40  C   UNL     1     -11.330  14.773  66.539  1.00  0.00    -0.344 C  
ENDBRANCH   9  35
TORSDOF 6
ENDMDL
MODEL      101
REMARK 921   NORMALIZED FREE ENERGY PREDICTED BY IDOCK:   34.68 KCAL/MOL
REMARK 922        TOTAL FREE ENERGY PREDICTED BY IDOCK:   45.17 KCAL/MOL
REMARK 923 INTER-LIGAND FREE ENERGY PREDICTED BY IDOCK:   38.99 KCAL/MOL
REMARK 924 INTRA-LIGAND FREE ENERGY PREDICTED BY IDOCK:    6.18 KCAL/MOL
REMARK 927      BINDING AFFINITY PREDICTED BY RF-SCORE:    0.00 PKD
ROOT
HETATM    1  C   UNL     1      -5.540   8.036  67.201  1.00  0.00    -0.037 C  
HETATM    2  C   UNL     1      -5.451   8.989  68.296  1.00  0.00    -0.038 C  
HETATM    3  C   UNL     1      -6.626   8.132  68.715  1.00  0.00    -0.053 C  
HETATM    4  C   UNL     1      -9.651  10.147  64.903  1.00  0.00    -0.369 C  
HETATM    5  C   UNL     1      -7.279   6.921  67.120  1.00  0.00    -0.085 C  
HETATM    6  C   UNL     1      -6.490   6.716  68.157  1.00  0.00    -0.053 C  
HETATM    7  C   UNL     1      -8.517  10.754  65.786  1.00  0.00    -0.174 C  
HETATM    8  C   UNL     1      -9.247  11.758  66.880  1.00  0.00    -0.189 C  
HETATM    9  C   UNL     1      -8.719  13.228  66.994  1.00  0.00    -0.186 C  
HETATM   10  C   UNL     1      -8.543  13.606  65.504  1.00  0.00     2.128 C  
HETATM   11  C   UNL     1      -7.234  12.973  65.039  1.00  0.00     8.716 C  
HETATM   12  C   UNL     1      -5.794   5.487  68.716  1.00  0.00    -0.019 C  
HETATM   13  C   UNL     1      -8.399   7.171  68.234  1.00  0.00    -0.124 C  
HETATM   14  C   UNL     1      -7.565  11.494  64.734  1.00  0.00     1.599 C  
HETATM   15  C   UNL     1      -6.374  10.688  64.215  1.00  0.00     0.136 C  
HETATM   16  C   UNL     1      -8.913   8.423  67.080  1.00  0.00    -0.153 C  
HETATM   17  C   UNL     1      -5.588   9.962  65.292  1.00  0.00    -0.065 C  
HETATM   18  C   UNL     1      -7.832   9.553  66.593  1.00  0.00    -0.101 C  
HETATM   19  C   UNL     1      -6.473   8.933  66.001  1.00  0.00    -0.061 C  
ENDROOT
BRANCH   3  20
HETATM   20  N   UNL     1      -7.437   8.813  70.226  1.00  0.00    -0.061 N  
HETATM   21  C   UNL     1      -6.930   8.462  71.775  1.00  0.00    -0.088 C  
HETATM   22  C   UNL     1      -7.848   9.089  72.825  1.00  0.00     0.573 C  
HETATM   23  C   UNL     1      -8.899   8.491  70.140  1.00  0.00    -0.138 C  
HETATM   24  C   UNL     1      -9.296   8.676  72.590  1.00  0.00    -0.165 C  
HETATM   25  C   UNL     1      -7.173  10.376  70.165  1.00  0.00    -0.083 C  
HETATM   26  C   UNL     1      -9.730   9.148  71.217  1.00  0.00    -0.351 C  
ENDBRANCH   3  20
BRANCH   5  27
HETATM   27  O   UNL     1      -7.588   5.341  67.161  1.00  0.00    -0.090 OA 
BRANCH  27  28
HETATM   28  C   UNL     1      -7.664   4.519  68.234  1.00  0.00    -0.080 C  
HETATM   29  C   UNL     1      -9.099   4.458  68.702  1.00  0.00    -0.171 C  
HETATM   30  O   UNL     1      -6.764   3.793  68.620  1.00  0.00    -0.044 OA 
ENDBRANCH  27  28
ENDBRANCH   5  27
BRANCH  10  31
HETATM   31  O   UNL     1      -8.952  14.864  65.005  1.00  0.00     1.288 OA 
BRANCH  31  32
HETATM   32  C   UNL     1      -9.326  15.155  63.756  1.00  0.00     8.757 C  
HETATM   33  C   UNL     1      -9.753  16.593  63.756  1.00  0.00     8.710 C  
HETATM   34  O   UNL     1      -9.353  14.398  62.815  1.00  0.00    10.551 OA 
ENDBRANCH  31  32
ENDBRANCH  10  31
BRANCH   9  35
HETATM   35  N   UNL     1      -9.446  14.204  67.821  1.00  0.00    -0.202 NA 
HETATM   36  C   UNL     1     -11.899  14.163  67.785  1.00  0.00    -0.414 C  
HETATM   37  C   UNL     1     -10.633  14.857  67.303  1.00  0.00    -0.272 C  
HETATM   38  C   UNL     1     -11.987  14.212  69.303  1.00  0.00    -0.382 C  
HETATM   39  C   UNL     1     -10.726  13.612  69.900  1.00  0.00     0.486 C  
HETATM   40  C   UNL     1      -9.422  14.141  69.282  1.00  0.00     0.296 C  
ENDBRANCH   9  35
TORSDOF 6
ENDMDL
MODEL      102
REMARK 921   NORMALIZED FREE ENERGY PREDICTED BY IDOCK:   34.99 KCAL/MOL
REMARK 922        TOTAL FREE ENERGY PREDICTED BY IDOCK:   45.60 KCAL/MOL
REMARK 923 INTER-LIGAND FREE ENERGY PREDICTED BY IDOCK:   19.52 KCAL/MOL
REMARK 924 INTRA-LIGAND FREE ENERGY PREDICTED BY IDOCK:   26.08 KCAL/MOL
REMARK 927      BINDING AFFINITY PREDICTED BY RF-SCORE:    0.00 PKD
ROOT
HETATM    1  C   UNL     1     -11.773   9.239  68.751  1.00  0.00     0.968 C  
HETATM    2  C   UNL     1     -12.138  10.059  67.605  1.00  0.00     2.839 C  
HETATM    3  C   UNL     1     -10.746   9.594  67.234  1.00  0.00    -0.214 C  
HETATM    4  C   UNL     1      -8.575  12.655  70.931  1.00  0.00     9.593 C  
HETATM    5  C   UNL     1      -9.772   8.736  68.893  1.00  0.00    -0.172 C  
HETATM    6  C   UNL     1     -10.439   8.239  67.869  1.00  0.00    -0.259 C  
HETATM    7  C   UNL     1      -9.827  12.827  70.016  1.00  0.00     2.768 C  
HETATM    8  C   UNL     1      -9.432  13.952  68.869  1.00  0.00     0.047 C  
HETATM    9  C   UNL     1     -10.393  15.173  68.675  1.00  0.00    -0.232 C  
HETATM   10  C   UNL     1     -10.705  15.552  70.142  1.00  0.00    -0.329 C  
HETATM   11  C   UNL     1     -11.756  14.564  70.641  1.00  0.00    -0.330 C  
HETATM   12  C   UNL     1     -10.702   6.827  67.378  1.00  0.00    -0.405 C  
HETATM   13  C   UNL     1      -8.769   9.268  67.767  1.00  0.00    -0.120 C  
HETATM   14  C   UNL     1     -10.982  13.283  71.026  1.00  0.00     2.837 C  
HETATM   15  C   UNL     1     -11.867  12.170  71.588  1.00  0.00     1.605 C  
HETATM   16  C   UNL     1      -8.695  10.676  68.851  1.00  0.00    -0.163 C  
HETATM   17  C   UNL     1     -12.367  11.179  70.552  1.00  0.00    -0.454 C  
HETATM   18  C   UNL     1     -10.085  11.431  69.276  1.00  0.00     0.041 C  
HETATM   19  C   UNL     1     -11.191  10.446  69.900  1.00  0.00    -0.371 C  
ENDROOT
BRANCH   3  20
HETATM   20  N   UNL     1     -10.164  10.418  65.688  1.00  0.00    -0.260 N  
HETATM   21  C   UNL     1      -9.044  11.652  65.674  1.00  0.00    -0.080 C  
HETATM   22  C   UNL     1      -8.828  12.203  64.264  1.00  0.00     1.154 C  
HETATM   23  C   UNL     1     -11.376  10.894  64.945  1.00  0.00     0.480 C  
HETATM   24  C   UNL     1     -10.154  12.628  63.643  1.00  0.00    -0.074 C  
HETATM   25  C   UNL     1      -9.387   9.290  64.889  1.00  0.00    -0.073 C  
HETATM   26  C   UNL     1     -11.072  11.424  63.564  1.00  0.00    -0.373 C  
ENDBRANCH   3  20
BRANCH   5  27
HETATM   27  O   UNL     1      -8.981   7.333  68.938  1.00  0.00    -0.134 OA 
BRANCH  27  28
HETATM   28  C   UNL     1      -7.809   7.039  69.547  1.00  0.00    -0.119 C  
HETATM   29  C   UNL     1      -7.324   8.263  70.290  1.00  0.00    -0.055 C  
HETATM   30  O   UNL     1      -7.338   5.919  69.648  1.00  0.00    -0.071 OA 
ENDBRANCH  27  28
ENDBRANCH   5  27
BRANCH  10  31
HETATM   31  O   UNL     1     -10.722  16.899  70.572  1.00  0.00     0.066 OA 
BRANCH  31  32
HETATM   32  C   UNL     1     -10.447  17.984  69.843  1.00  0.00     0.948 C  
HETATM   33  C   UNL     1     -10.597  19.167  70.752  1.00  0.00     2.357 C  
HETATM   34  O   UNL     1     -10.168  18.012  68.668  1.00  0.00    -0.376 OA 
ENDBRANCH  31  32
ENDBRANCH  10  31
BRANCH   9  35
HETATM   35  N   UNL     1      -9.996  16.284  67.796  1.00  0.00    -0.242 NA 
HETATM   36  C   UNL     1      -8.823  18.195  68.792  1.00  0.00    -0.227 C  
HETATM   37  C   UNL     1     -10.137  17.655  68.246  1.00  0.00    -0.362 C  
HETATM   38  C   UNL     1      -7.754  18.187  67.708  1.00  0.00    -0.227 C  
HETATM   39  C   UNL     1      -7.623  16.784  67.141  1.00  0.00    -0.221 C  
HETATM   40  C   UNL     1      -8.962  16.123  66.775  1.00  0.00    -0.241 C  
ENDBRANCH   9  35
TORSDOF 6
ENDMDL
MODEL      103
REMARK 921   NORMALIZED FREE ENERGY PREDICTED BY IDOCK:   36.64 KCAL/MOL
REMARK 922        TOTAL FREE ENERGY PREDICTED BY IDOCK:   47.82 KCAL/MOL
REMARK 923 INTER-LIGAND FREE ENERGY PREDICTED BY IDOCK:   47.37 KCAL/MOL
REMARK 924 INTRA-LIGAND FREE ENERGY PREDICTED BY IDOCK:    0.44 KCAL/MOL
REMARK 927      BINDING AFFINITY PREDICTED BY RF-SCORE:    0.00 PKD
ROOT
HETATM    1  C   UNL     1      -9.313  15.738  71.093  1.00  0.00     2.941 C  
HETATM    2  C   UNL     1     -10.552  15.212  70.541  1.00  0.00    -0.127 C  
HETATM    3  C   UNL     1      -9.547  14.157  70.129  1.00  0.00     1.712 C  
HETATM    4  C   UNL     1      -7.336  17.415  66.630  1.00  0.00    -0.282 C  
HETATM    5  C   UNL     1      -7.577  14.847  70.410  1.00  0.00     0.699 C  
HETATM    6  C   UNL     1      -8.390  14.093  71.125  1.00  0.00     4.949 C  
HETATM    7  C   UNL     1      -8.805  17.230  67.122  1.00  0.00    -0.237 C  
HETATM    8  C   UNL     1      -9.632  16.490  65.894  1.00  0.00    -0.284 C  
HETATM    9  C   UNL     1     -10.964  17.152  65.402  1.00  0.00     0.035 C  
HETATM   10  C   UNL     1     -10.564  18.646  65.357  1.00  0.00     0.244 C  
HETATM   11  C   UNL     1     -10.618  19.162  66.793  1.00  0.00    -0.528 C  
HETATM   12  C   UNL     1      -8.225  13.301  72.410  1.00  0.00    14.188 C  
HETATM   13  C   UNL     1      -7.695  13.666  69.339  1.00  0.00     0.429 C  
HETATM   14  C   UNL     1      -9.292  18.718  67.451  1.00  0.00    -0.308 C  
HETATM   15  C   UNL     1      -9.138  19.175  68.902  1.00  0.00    -0.350 C  
HETATM   16  C   UNL     1      -7.675  15.033  68.200  1.00  0.00    -0.115 C  
HETATM   17  C   UNL     1      -9.620  18.171  69.933  1.00  0.00     1.060 C  
HETATM   18  C   UNL     1      -8.777  16.232  68.374  1.00  0.00    -0.205 C  
HETATM   19  C   UNL     1      -8.804  16.878  69.845  1.00  0.00     1.323 C  
ENDROOT
BRANCH   3  20
HETATM   20  N   UNL     1     -10.323  12.901  69.022  1.00  0.00    -0.021 N  
HETATM   21  C   UNL     1      -9.447  11.771  68.165  1.00  0.00    -0.193 C  
HETATM   22  C   UNL     1     -10.346  10.927  67.261  1.00  0.00    -0.255 C  
HETATM   23  C   UNL     1     -11.198  13.633  68.049  1.00  0.00    -0.267 C  
HETATM   24  C   UNL     1     -11.178  11.819  66.346  1.00  0.00    -0.382 C  
HETATM   25  C   UNL     1     -11.166  11.968  69.988  1.00  0.00     0.175 C  
HETATM   26  C   UNL     1     -12.049  12.724  67.194  1.00  0.00    -0.236 C  
ENDBRANCH   3  20
BRANCH   5  27
HETATM   27  O   UNL     1      -6.368  14.068  71.138  1.00  0.00    -0.078 OA 
BRANCH  27  28
HETATM   28  C   UNL     1      -5.549  14.505  72.122  1.00  0.00     0.003 C  
HETATM   29  C   UNL     1      -5.448  16.010  72.043  1.00  0.00     0.564 C  
HETATM   30  O   UNL     1      -5.135  13.816  73.040  1.00  0.00    -0.203 OA 
ENDBRANCH  27  28
ENDBRANCH   5  27
BRANCH  10  31
HETATM   31  O   UNL     1     -10.935  19.481  64.278  1.00  0.00     1.284 OA 
BRANCH  31  32
HETATM   32  C   UNL     1     -11.663  20.599  64.334  1.00  0.00     3.641 C  
HETATM   33  C   UNL     1     -11.783  20.965  65.784  1.00  0.00     3.973 C  
HETATM   34  O   UNL     1     -12.164  21.183  63.403  1.00  0.00     2.779 OA 
ENDBRANCH  31  32
ENDBRANCH  10  31
BRANCH   9  35
HETATM   35  N   UNL     1     -11.639  16.632  64.203  1.00  0.00    -1.093 NA 
HETATM   36  C   UNL     1     -11.064  14.376  63.428  1.00  0.00     2.106 C  
HETATM   37  C   UNL     1     -10.892  15.874  63.218  1.00  0.00     5.034 C  
HETATM   38  C   UNL     1     -12.527  13.983  63.281  1.00  0.00     0.493 C  
HETATM   39  C   UNL     1     -13.368  14.811  64.237  1.00  0.00     1.831 C  
HETATM   40  C   UNL     1     -13.067  16.318  64.201  1.00  0.00     3.071 C  
ENDBRANCH   9  35
TORSDOF 6
ENDMDL
MODEL      104
REMARK 921   NORMALIZED FREE ENERGY PREDICTED BY IDOCK:   38.36 KCAL/MOL
REMARK 922        TOTAL FREE ENERGY PREDICTED BY IDOCK:   50.15 KCAL/MOL
REMARK 923 INTER-LIGAND FREE ENERGY PREDICTED BY IDOCK:   50.40 KCAL/MOL
REMARK 924 INTRA-LIGAND FREE ENERGY PREDICTED BY IDOCK:   -0.25 KCAL/MOL
REMARK 927      BINDING AFFINITY PREDICTED BY RF-SCORE:    0.00 PKD
ROOT
HETATM    1  C   UNL     1     -11.120   6.607  66.023  1.00  0.00     1.727 C  
HETATM    2  C   UNL     1     -10.479   7.812  65.519  1.00  0.00     2.906 C  
HETATM    3  C   UNL     1      -9.307   7.043  66.092  1.00  0.00    -0.040 C  
HETATM    4  C   UNL     1     -10.964   7.894  71.019  1.00  0.00    -0.262 C  
HETATM    5  C   UNL     1      -9.972   5.440  67.286  1.00  0.00    -0.171 C  
HETATM    6  C   UNL     1      -9.566   5.538  66.034  1.00  0.00    -0.128 C  
HETATM    7  C   UNL     1     -11.031   8.751  69.717  1.00  0.00    -0.146 C  
HETATM    8  C   UNL     1      -9.926   9.971  69.890  1.00  0.00    -0.280 C  
HETATM    9  C   UNL     1     -10.415  11.442  69.661  1.00  0.00     0.211 C  
HETATM   10  C   UNL     1     -11.771  11.433  70.406  1.00  0.00    -0.268 C  
HETATM   11  C   UNL     1     -12.779  10.755  69.482  1.00  0.00     0.229 C  
HETATM   12  C   UNL     1      -9.294   4.522  64.939  1.00  0.00    -0.150 C  
HETATM   13  C   UNL     1      -8.486   5.921  67.630  1.00  0.00    -0.103 C  
HETATM   14  C   UNL     1     -12.554   9.236  69.654  1.00  0.00     1.620 C  
HETATM   15  C   UNL     1     -13.504   8.372  68.824  1.00  0.00    11.525 C  
HETATM   16  C   UNL     1      -9.339   6.815  68.909  1.00  0.00    -0.129 C  
HETATM   17  C   UNL     1     -12.968   7.978  67.460  1.00  0.00    13.400 C  
HETATM   18  C   UNL     1     -10.561   7.825  68.499  1.00  0.00    -0.153 C  
HETATM   19  C   UNL     1     -11.702   7.130  67.606  1.00  0.00     1.221 C  
ENDROOT
BRANCH   3  20
HETATM   20  N   UNL     1      -7.765   8.055  66.044  1.00  0.00    -0.085 N  
HETATM   21  C   UNL     1      -6.335   7.580  66.758  1.00  0.00    -0.049 C  
HETATM   22  C   UNL     1      -5.259   8.660  66.639  1.00  0.00    -0.035 C  
HETATM   23  C   UNL     1      -8.102   9.421  66.562  1.00  0.00    -0.111 C  
HETATM   24  C   UNL     1      -5.763   9.987  67.195  1.00  0.00    -0.046 C  
HETATM   25  C   UNL     1      -7.345   8.092  64.514  1.00  0.00    -0.089 C  
HETATM   26  C   UNL     1      -6.983  10.423  66.408  1.00  0.00    -0.114 C  
ENDBRANCH   3  20
BRANCH   5  27
HETATM   27  O   UNL     1      -9.466   3.911  67.231  1.00  0.00    -0.179 OA 
BRANCH  27  28
HETATM   28  C   UNL     1      -9.986   2.823  67.844  1.00  0.00     0.811 C  
HETATM   29  C   UNL     1      -9.036   2.372  68.930  1.00  0.00    -0.194 C  
HETATM   30  O   UNL     1     -11.122   2.409  67.684  1.00  0.00     5.743 OA 
ENDBRANCH  27  28
ENDBRANCH   5  27
BRANCH  10  31
HETATM   31  O   UNL     1     -12.166  12.504  71.240  1.00  0.00    -0.164 OA 
BRANCH  31  32
HETATM   32  C   UNL     1     -13.397  12.772  71.682  1.00  0.00    -0.254 C  
HETATM   33  C   UNL     1     -14.350  12.290  70.629  1.00  0.00     5.080 C  
HETATM   34  O   UNL     1     -13.690  13.331  72.713  1.00  0.00    -0.669 OA 
ENDBRANCH  31  32
ENDBRANCH  10  31
BRANCH   9  35
HETATM   35  N   UNL     1      -9.519  12.567  69.973  1.00  0.00     2.880 NA 
HETATM   36  C   UNL     1      -7.105  12.252  69.669  1.00  0.00     0.329 C  
HETATM   37  C   UNL     1      -8.261  12.329  70.656  1.00  0.00     6.445 C  
HETATM   38  C   UNL     1      -6.963  13.565  68.913  1.00  0.00    -0.108 C  
HETATM   39  C   UNL     1      -8.283  13.906  68.244  1.00  0.00    -0.158 C  
HETATM   40  C   UNL     1      -9.507  13.786  69.166  1.00  0.00     0.355 C  
ENDBRANCH   9  35
TORSDOF 6
ENDMDL
MODEL      105
REMARK 921   NORMALIZED FREE ENERGY PREDICTED BY IDOCK:   38.86 KCAL/MOL
REMARK 922        TOTAL FREE ENERGY PREDICTED BY IDOCK:   50.82 KCAL/MOL
REMARK 923 INTER-LIGAND FREE ENERGY PREDICTED BY IDOCK:   46.69 KCAL/MOL
REMARK 924 INTRA-LIGAND FREE ENERGY PREDICTED BY IDOCK:    4.12 KCAL/MOL
REMARK 927      BINDING AFFINITY PREDICTED BY RF-SCORE:    0.00 PKD
ROOT
HETATM    1  C   UNL     1      -9.597  15.645  67.240  1.00  0.00    -0.220 C  
HETATM    2  C   UNL     1      -8.691  14.507  67.281  1.00  0.00    -0.225 C  
HETATM    3  C   UNL     1      -9.452  14.263  65.995  1.00  0.00    -0.182 C  
HETATM    4  C   UNL     1     -13.846  13.073  68.647  1.00  0.00     8.385 C  
HETATM    5  C   UNL     1     -11.143  15.513  65.874  1.00  0.00    -0.205 C  
HETATM    6  C   UNL     1      -9.920  15.582  65.383  1.00  0.00    -0.339 C  
HETATM    7  C   UNL     1     -12.332  12.842  68.948  1.00  0.00     0.153 C  
HETATM    8  C   UNL     1     -12.041  11.228  68.729  1.00  0.00    -0.258 C  
HETATM    9  C   UNL     1     -11.340  10.444  69.890  1.00  0.00    -0.302 C  
HETATM   10  C   UNL     1     -12.089  10.996  71.127  1.00  0.00    -0.244 C  
HETATM   11  C   UNL     1     -11.485  12.364  71.434  1.00  0.00     2.532 C  
HETATM   12  C   UNL     1      -9.229  16.536  64.425  1.00  0.00     5.589 C  
HETATM   13  C   UNL     1     -11.252  14.199  64.969  1.00  0.00    -0.356 C  
HETATM   14  C   UNL     1     -12.158  13.352  70.455  1.00  0.00    -0.405 C  
HETATM   15  C   UNL     1     -11.705  14.802  70.630  1.00  0.00    -0.353 C  
HETATM   16  C   UNL     1     -12.178  13.612  66.370  1.00  0.00    -0.472 C  
HETATM   17  C   UNL     1     -10.541  15.209  69.746  1.00  0.00    -0.267 C  
HETATM   18  C   UNL     1     -11.488  13.653  67.855  1.00  0.00    -0.348 C  
HETATM   19  C   UNL     1     -10.925  15.099  68.268  1.00  0.00    -0.276 C  
ENDROOT
BRANCH   3  20
HETATM   20  N   UNL     1      -9.009  12.626  65.266  1.00  0.00     0.700 N  
HETATM   21  C   UNL     1      -8.944  11.216  66.153  1.00  0.00    -0.195 C  
HETATM   22  C   UNL     1      -8.457  10.039  65.306  1.00  0.00    -0.161 C  
HETATM   23  C   UNL     1      -7.695  12.784  64.563  1.00  0.00     7.145 C  
HETATM   24  C   UNL     1      -7.120  10.364  64.650  1.00  0.00    -0.017 C  
HETATM   25  C   UNL     1     -10.184  12.297  64.253  1.00  0.00    -0.330 C  
HETATM   26  C   UNL     1      -7.289  11.575  63.754  1.00  0.00     2.073 C  
ENDBRANCH   3  20
BRANCH   5  27
HETATM   27  O   UNL     1     -11.596  16.417  64.619  1.00  0.00    -0.319 OA 
BRANCH  27  28
HETATM   28  C   UNL     1     -12.003  16.020  63.391  1.00  0.00     2.381 C  
HETATM   29  C   UNL     1     -13.490  15.755  63.430  1.00  0.00     4.162 C  
HETATM   30  O   UNL     1     -11.322  16.074  62.381  1.00  0.00     5.067 OA 
ENDBRANCH  27  28
ENDBRANCH   5  27
BRANCH  10  31
HETATM   31  O   UNL     1     -12.520  10.148  72.173  1.00  0.00    -0.278 OA 
BRANCH  31  32
HETATM   32  C   UNL     1     -13.096  10.510  73.322  1.00  0.00     4.199 C  
HETATM   33  C   UNL     1     -12.803  11.969  73.512  1.00  0.00     7.214 C  
HETATM   34  O   UNL     1     -13.705   9.795  74.082  1.00  0.00     3.733 OA 
ENDBRANCH  31  32
ENDBRANCH  10  31
BRANCH   9  35
HETATM   35  N   UNL     1     -11.220   8.980  69.815  1.00  0.00    -0.102 NA 
HETATM   36  C   UNL     1      -9.200   7.929  70.730  1.00  0.00    -0.159 C  
HETATM   37  C   UNL     1      -9.947   8.370  69.480  1.00  0.00    -0.190 C  
HETATM   38  C   UNL     1     -10.008   6.889  71.493  1.00  0.00    -0.185 C  
HETATM   39  C   UNL     1     -11.387   7.448  71.798  1.00  0.00    -0.287 C  
HETATM   40  C   UNL     1     -12.087   8.097  70.594  1.00  0.00     0.037 C  
ENDBRANCH   9  35
TORSDOF 6
ENDMDL
MODEL      106
REMARK 921   NORMALIZED FREE ENERGY PREDICTED BY IDOCK:   39.91 KCAL/MOL
REMARK 922        TOTAL FREE ENERGY PREDICTED BY IDOCK:   52.24 KCAL/MOL
REMARK 923 INTER-LIGAND FREE ENERGY PREDICTED BY IDOCK:   49.69 KCAL/MOL
REMARK 924 INTRA-LIGAND FREE ENERGY PREDICTED BY IDOCK:    2.55 KCAL/MOL
REMARK 927      BINDING AFFINITY PREDICTED BY RF-SCORE:    0.00 PKD
ROOT
HETATM    1  C   UNL     1     -12.690   5.379  72.159  1.00  0.00     1.186 C  
HETATM    2  C   UNL     1     -12.984   5.141  70.754  1.00  0.00     7.262 C  
HETATM    3  C   UNL     1     -11.538   4.705  70.856  1.00  0.00     3.118 C  
HETATM    4  C   UNL     1      -9.922   9.681  71.469  1.00  0.00     0.377 C  
HETATM    5  C   UNL     1     -10.690   5.335  72.679  1.00  0.00    -0.239 C  
HETATM    6  C   UNL     1     -11.222   4.201  72.264  1.00  0.00     0.484 C  
HETATM    7  C   UNL     1     -11.083   9.039  70.649  1.00  0.00    -0.314 C  
HETATM    8  C   UNL     1     -10.637   9.103  69.057  1.00  0.00    -0.219 C  
HETATM    9  C   UNL     1     -11.641   9.741  68.038  1.00  0.00     0.734 C  
HETATM   10  C   UNL     1     -12.119  10.988  68.820  1.00  0.00    -0.114 C  
HETATM   11  C   UNL     1     -13.158  10.505  69.828  1.00  0.00     0.529 C  
HETATM   12  C   UNL     1     -11.356   2.820  72.880  1.00  0.00     0.168 C  
HETATM   13  C   UNL     1      -9.609   5.053  71.534  1.00  0.00    -0.213 C  
HETATM   14  C   UNL     1     -12.357   9.934  71.020  1.00  0.00    -0.451 C  
HETATM   15  C   UNL     1     -13.231   9.423  72.166  1.00  0.00    -0.541 C  
HETATM   16  C   UNL     1      -9.722   6.818  71.340  1.00  0.00    -0.177 C  
HETATM   17  C   UNL     1     -13.569   7.945  72.091  1.00  0.00    -0.177 C  
HETATM   18  C   UNL     1     -11.188   7.499  71.075  1.00  0.00    -0.281 C  
HETATM   19  C   UNL     1     -12.294   7.100  72.170  1.00  0.00    -0.228 C  
ENDROOT
BRANCH   3  20
HETATM   20  N   UNL     1     -10.850   4.299  69.193  1.00  0.00     1.766 N  
HETATM   21  C   UNL     1     -11.621   4.681  67.765  1.00  0.00     5.445 C  
HETATM   22  C   UNL     1     -10.866   4.137  66.552  1.00  0.00     1.371 C  
HETATM   23  C   UNL     1     -10.553   2.829  69.171  1.00  0.00     3.140 C  
HETATM   24  C   UNL     1     -10.632   2.637  66.691  1.00  0.00     3.551 C  
HETATM   25  C   UNL     1      -9.530   5.169  69.070  1.00  0.00    -0.133 C  
HETATM   26  C   UNL     1      -9.809   2.378  67.937  1.00  0.00     0.446 C  
ENDBRANCH   3  20
BRANCH   5  27
HETATM   27  O   UNL     1      -9.831   4.444  73.711  1.00  0.00    -0.128 OA 
BRANCH  27  28
HETATM   28  C   UNL     1      -8.514   4.526  74.010  1.00  0.00    -0.102 C  
HETATM   29  C   UNL     1      -8.025   3.164  74.445  1.00  0.00    -0.069 C  
HETATM   30  O   UNL     1      -7.803   5.487  73.767  1.00  0.00    -0.104 OA 
ENDBRANCH  27  28
ENDBRANCH   5  27
BRANCH  10  31
HETATM   31  O   UNL     1     -12.253  12.249  68.195  1.00  0.00    -0.349 OA 
BRANCH  31  32
HETATM   32  C   UNL     1     -11.984  13.445  68.724  1.00  0.00    -0.324 C  
HETATM   33  C   UNL     1     -11.541  14.328  67.596  1.00  0.00    -0.396 C  
HETATM   34  O   UNL     1     -12.048  13.750  69.891  1.00  0.00    -0.317 OA 
ENDBRANCH  31  32
ENDBRANCH  10  31
BRANCH   9  35
HETATM   35  N   UNL     1     -11.219   9.979  66.648  1.00  0.00     0.188 NA 
HETATM   36  C   UNL     1     -12.828   9.531  64.851  1.00  0.00    15.848 C  
HETATM   37  C   UNL     1     -11.597   9.047  65.603  1.00  0.00     6.358 C  
HETATM   38  C   UNL     1     -12.549  10.868  64.179  1.00  0.00     2.765 C  
HETATM   39  C   UNL     1     -12.068  11.864  65.221  1.00  0.00     0.022 C  
HETATM   40  C   UNL     1     -10.962  11.327  66.144  1.00  0.00    -0.191 C  
ENDBRANCH   9  35
TORSDOF 6
ENDMDL
MODEL      107
REMARK 921   NORMALIZED FREE ENERGY PREDICTED BY IDOCK:   40.34 KCAL/MOL
REMARK 922        TOTAL FREE ENERGY PREDICTED BY IDOCK:   52.81 KCAL/MOL
REMARK 923 INTER-LIGAND FREE ENERGY PREDICTED BY IDOCK:   36.08 KCAL/MOL
REMARK 924 INTRA-LIGAND FREE ENERGY PREDICTED BY IDOCK:   16.73 KCAL/MOL
REMARK 927      BINDING AFFINITY PREDICTED BY RF-SCORE:    0.00 PKD
ROOT
HETATM    1  C   UNL     1      -8.120   5.716  69.292  1.00  0.00    -0.096 C  
HETATM    2  C   UNL     1      -7.447   6.908  69.784  1.00  0.00    -0.095 C  
HETATM    3  C   UNL     1      -8.601   6.771  70.755  1.00  0.00    -0.141 C  
HETATM    4  C   UNL     1     -12.082   8.150  67.050  1.00  0.00     5.758 C  
HETATM    5  C   UNL     1     -10.015   5.378  70.049  1.00  0.00    -0.233 C  
HETATM    6  C   UNL     1      -9.012   5.307  70.903  1.00  0.00    -0.160 C  
HETATM    7  C   UNL     1     -10.609   8.583  67.332  1.00  0.00    -0.304 C  
HETATM    8  C   UNL     1     -10.671  10.118  67.945  1.00  0.00    -0.317 C  
HETATM    9  C   UNL     1      -9.783  11.216  67.267  1.00  0.00    -0.166 C  
HETATM   10  C   UNL     1     -10.007  10.907  65.768  1.00  0.00    -0.247 C  
HETATM   11  C   UNL     1      -9.121   9.712  65.426  1.00  0.00    -0.265 C  
HETATM   12  C   UNL     1      -8.507   4.220  71.835  1.00  0.00    -0.112 C  
HETATM   13  C   UNL     1     -10.615   6.424  71.099  1.00  0.00    -0.282 C  
HETATM   14  C   UNL     1      -9.893   8.463  65.906  1.00  0.00     0.051 C  
HETATM   15  C   UNL     1      -9.176   7.143  65.619  1.00  0.00     0.182 C  
HETATM   16  C   UNL     1     -11.141   7.240  69.608  1.00  0.00    -0.161 C  
HETATM   17  C   UNL     1      -8.294   6.646  66.750  1.00  0.00    -0.115 C  
HETATM   18  C   UNL     1     -10.027   7.616  68.468  1.00  0.00    -0.190 C  
HETATM   19  C   UNL     1      -9.133   6.366  68.000  1.00  0.00    -0.113 C  
ENDROOT
BRANCH   3  20
HETATM   20  N   UNL     1      -8.683   8.220  71.894  1.00  0.00    -0.154 N  
HETATM   21  C   UNL     1     -10.028   8.592  72.807  1.00  0.00    -0.123 C  
HETATM   22  C   UNL     1      -9.842   9.898  73.579  1.00  0.00     8.663 C  
HETATM   23  C   UNL     1      -8.318   9.440  71.102  1.00  0.00     0.143 C  
HETATM   24  C   UNL     1      -9.461  11.033  72.635  1.00  0.00    15.367 C  
HETATM   25  C   UNL     1      -7.618   7.913  73.028  1.00  0.00    -0.120 C  
HETATM   26  C   UNL     1      -8.159  10.685  71.943  1.00  0.00     6.911 C  
ENDBRANCH   3  20
BRANCH   5  27
HETATM   27  O   UNL     1     -10.681   4.165  70.873  1.00  0.00     0.462 OA 
BRANCH  27  28
HETATM   28  C   UNL     1     -10.074   3.122  71.486  1.00  0.00     0.045 C  
HETATM   29  C   UNL     1      -9.595   3.565  72.848  1.00  0.00    -0.169 C  
HETATM   30  O   UNL     1     -10.100   1.969  71.087  1.00  0.00    -0.040 OA 
ENDBRANCH  27  28
ENDBRANCH   5  27
BRANCH  10  31
HETATM   31  O   UNL     1     -10.224  11.937  64.823  1.00  0.00    -0.259 OA 
BRANCH  31  32
HETATM   32  C   UNL     1     -10.411  13.235  65.073  1.00  0.00    -0.340 C  
HETATM   33  C   UNL     1     -10.790  13.876  63.770  1.00  0.00     0.720 C  
HETATM   34  O   UNL     1     -10.266  13.796  66.133  1.00  0.00    -0.286 OA 
ENDBRANCH  31  32
ENDBRANCH  10  31
BRANCH   9  35
HETATM   35  N   UNL     1      -9.935  12.625  67.662  1.00  0.00    -0.212 NA 
HETATM   36  C   UNL     1      -9.225  13.287  69.915  1.00  0.00     2.620 C  
HETATM   37  C   UNL     1     -10.393  12.963  68.996  1.00  0.00     0.068 C  
HETATM   38  C   UNL     1      -8.452  14.488  69.389  1.00  0.00     0.182 C  
HETATM   39  C   UNL     1      -8.016  14.220  67.959  1.00  0.00    -0.142 C  
HETATM   40  C   UNL     1      -9.133  13.684  67.049  1.00  0.00    -0.248 C  
ENDBRANCH   9  35
TORSDOF 6
ENDMDL
MODEL      108
REMARK 921   NORMALIZED FREE ENERGY PREDICTED BY IDOCK:   40.46 KCAL/MOL
REMARK 922        TOTAL FREE ENERGY PREDICTED BY IDOCK:   52.98 KCAL/MOL
REMARK 923 INTER-LIGAND FREE ENERGY PREDICTED BY IDOCK:   49.85 KCAL/MOL
REMARK 924 INTRA-LIGAND FREE ENERGY PREDICTED BY IDOCK:    3.12 KCAL/MOL
REMARK 927      BINDING AFFINITY PREDICTED BY RF-SCORE:    0.00 PKD
ROOT
HETATM    1  C   UNL     1      -8.360   9.510  70.654  1.00  0.00    -0.159 C  
HETATM    2  C   UNL     1      -9.041  10.660  71.229  1.00  0.00     4.803 C  
HETATM    3  C   UNL     1     -10.193   9.724  70.931  1.00  0.00    -0.125 C  
HETATM    4  C   UNL     1      -9.642  10.454  65.743  1.00  0.00    -0.269 C  
HETATM    5  C   UNL     1      -9.571   8.138  69.691  1.00  0.00    -0.168 C  
HETATM    6  C   UNL     1      -9.737   8.267  70.994  1.00  0.00    -0.201 C  
HETATM    7  C   UNL     1      -9.435  11.393  66.972  1.00  0.00    -0.186 C  
HETATM    8  C   UNL     1     -10.699  12.460  66.977  1.00  0.00    -0.268 C  
HETATM    9  C   UNL     1     -10.368  13.990  67.047  1.00  0.00    -0.267 C  
HETATM   10  C   UNL     1      -9.192  14.094  66.048  1.00  0.00     0.030 C  
HETATM   11  C   UNL     1      -7.946  13.600  66.778  1.00  0.00     0.375 C  
HETATM   12  C   UNL     1      -9.659   7.296  72.159  1.00  0.00    -0.162 C  
HETATM   13  C   UNL     1     -11.145   8.418  69.632  1.00  0.00    -0.011 C  
HETATM   14  C   UNL     1      -8.003  12.057  66.712  1.00  0.00    -0.060 C  
HETATM   15  C   UNL     1      -6.808  11.365  67.368  1.00  0.00    -0.101 C  
HETATM   16  C   UNL     1     -10.677   9.325  68.175  1.00  0.00    -0.205 C  
HETATM   17  C   UNL     1      -7.015  10.997  68.826  1.00  0.00    -0.081 C  
HETATM   18  C   UNL     1      -9.538  10.495  68.294  1.00  0.00    -0.164 C  
HETATM   19  C   UNL     1      -8.167   9.997  68.968  1.00  0.00    -0.124 C  
ENDROOT
BRANCH   3  20
HETATM   20  N   UNL     1     -11.813  10.548  71.248  1.00  0.00    -0.295 N  
HETATM   21  C   UNL     1     -12.063  12.184  71.048  1.00  0.00     0.047 C  
HETATM   22  C   UNL     1     -13.472  12.596  71.475  1.00  0.00    -0.058 C  
HETATM   23  C   UNL     1     -12.241  10.188  72.639  1.00  0.00     1.561 C  
HETATM   24  C   UNL     1     -13.754  12.145  72.904  1.00  0.00     1.463 C  
HETATM   25  C   UNL     1     -12.797   9.952  70.156  1.00  0.00     0.297 C  
HETATM   26  C   UNL     1     -13.643  10.636  72.979  1.00  0.00     2.123 C  
ENDBRANCH   3  20
BRANCH   5  27
HETATM   27  O   UNL     1      -9.856   6.567  69.904  1.00  0.00    -0.165 OA 
BRANCH  27  28
HETATM   28  C   UNL     1      -8.969   5.556  70.047  1.00  0.00    -0.131 C  
HETATM   29  C   UNL     1      -9.392   4.405  69.163  1.00  0.00    -0.221 C  
HETATM   30  O   UNL     1      -7.901   5.643  70.629  1.00  0.00    -0.095 OA 
ENDBRANCH  27  28
ENDBRANCH   5  27
BRANCH  10  31
HETATM   31  O   UNL     1      -9.106  15.151  65.111  1.00  0.00     0.607 OA 
BRANCH  31  32
HETATM   32  C   UNL     1      -9.333  15.085  63.797  1.00  0.00     8.497 C  
HETATM   33  C   UNL     1     -10.276  16.204  63.464  1.00  0.00     6.832 C  
HETATM   34  O   UNL     1      -8.897  14.262  63.028  1.00  0.00    10.605 OA 
ENDBRANCH  31  32
ENDBRANCH  10  31
BRANCH   9  35
HETATM   35  N   UNL     1     -11.444  14.979  66.877  1.00  0.00    -0.308 NA 
HETATM   36  C   UNL     1     -13.262  14.465  65.312  1.00  0.00     0.253 C  
HETATM   37  C   UNL     1     -11.982  15.251  65.558  1.00  0.00     0.224 C  
HETATM   38  C   UNL     1     -14.331  14.860  66.321  1.00  0.00     7.222 C  
HETATM   39  C   UNL     1     -13.788  14.673  67.728  1.00  0.00     8.158 C  
HETATM   40  C   UNL     1     -12.392  15.275  67.951  1.00  0.00     0.580 C  
ENDBRANCH   9  35
TORSDOF 6
ENDMDL
MODEL      109
REMARK 921   NORMALIZED FREE ENERGY PREDICTED BY IDOCK:   40.65 KCAL/MOL
REMARK 922        TOTAL FREE ENERGY PREDICTED BY IDOCK:   53.23 KCAL/MOL
REMARK 923 INTER-LIGAND FREE ENERGY PREDICTED BY IDOCK:   33.90 KCAL/MOL
REMARK 924 INTRA-LIGAND FREE ENERGY PREDICTED BY IDOCK:   19.33 KCAL/MOL
REMARK 927      BINDING AFFINITY PREDICTED BY RF-SCORE:    0.00 PKD
ROOT
HETATM    1  C   UNL     1     -11.461  16.783  67.308  1.00  0.00     0.542 C  
HETATM    2  C   UNL     1     -10.489  16.127  68.170  1.00  0.00    -0.279 C  
HETATM    3  C   UNL     1      -9.612  17.037  67.335  1.00  0.00    -0.246 C  
HETATM    4  C   UNL     1     -10.384  14.091  63.037  1.00  0.00     5.723 C  
HETATM    5  C   UNL     1     -10.679  17.808  65.691  1.00  0.00    -0.064 C  
HETATM    6  C   UNL     1     -10.387  18.276  66.889  1.00  0.00    -0.404 C  
HETATM    7  C   UNL     1     -10.271  13.741  64.553  1.00  0.00    -0.206 C  
HETATM    8  C   UNL     1      -8.798  13.020  64.769  1.00  0.00     2.199 C  
HETATM    9  C   UNL     1      -8.758  11.633  65.496  1.00  0.00     0.192 C  
HETATM   10  C   UNL     1      -9.953  10.907  64.833  1.00  0.00    -0.303 C  
HETATM   11  C   UNL     1     -11.219  11.434  65.505  1.00  0.00    -0.140 C  
HETATM   12  C   UNL     1     -10.595  19.618  67.569  1.00  0.00    -0.577 C  
HETATM   13  C   UNL     1      -9.094  17.815  65.485  1.00  0.00     0.923 C  
HETATM   14  C   UNL     1     -11.526  12.787  64.823  1.00  0.00    -0.356 C  
HETATM   15  C   UNL     1     -12.794  13.467  65.341  1.00  0.00    -0.388 C  
HETATM   16  C   UNL     1      -9.451  16.309  64.609  1.00  0.00     2.839 C  
HETATM   17  C   UNL     1     -12.564  14.449  66.475  1.00  0.00     0.009 C  
HETATM   18  C   UNL     1     -10.276  15.117  65.373  1.00  0.00    -0.402 C  
HETATM   19  C   UNL     1     -11.667  15.601  66.013  1.00  0.00     0.448 C  
ENDROOT
BRANCH   3  20
HETATM   20  N   UNL     1      -7.825  16.728  67.676  1.00  0.00    -0.172 N  
HETATM   21  C   UNL     1      -7.284  15.563  68.740  1.00  0.00    -0.134 C  
HETATM   22  C   UNL     1      -5.763  15.601  68.891  1.00  0.00    -0.103 C  
HETATM   23  C   UNL     1      -7.207  18.034  68.076  1.00  0.00    -0.230 C  
HETATM   24  C   UNL     1      -5.295  16.997  69.286  1.00  0.00    -0.138 C  
HETATM   25  C   UNL     1      -7.233  16.190  66.306  1.00  0.00     0.552 C  
HETATM   26  C   UNL     1      -5.704  17.980  68.206  1.00  0.00    -0.161 C  
ENDBRANCH   3  20
BRANCH   5  27
HETATM   27  O   UNL     1     -10.750  19.345  65.212  1.00  0.00    -0.432 OA 
BRANCH  27  28
HETATM   28  C   UNL     1     -11.222  19.850  64.048  1.00  0.00     5.721 C  
HETATM   29  C   UNL     1     -12.540  20.539  64.313  1.00  0.00     8.839 C  
HETATM   30  O   UNL     1     -10.586  19.916  63.009  1.00  0.00    11.141 OA 
ENDBRANCH  27  28
ENDBRANCH   5  27
BRANCH  10  31
HETATM   31  O   UNL     1      -9.865   9.557  64.422  1.00  0.00     0.109 OA 
BRANCH  31  32
HETATM   32  C   UNL     1      -8.935   9.011  63.634  1.00  0.00     0.150 C  
HETATM   33  C   UNL     1      -8.162   8.046  64.483  1.00  0.00    -0.097 C  
HETATM   34  O   UNL     1      -8.728   9.271  62.473  1.00  0.00    -0.213 OA 
ENDBRANCH  31  32
ENDBRANCH  10  31
BRANCH   9  35
HETATM   35  N   UNL     1      -7.500  10.873  65.555  1.00  0.00     0.015 NA 
HETATM   36  C   UNL     1      -7.379   8.932  67.052  1.00  0.00    -0.083 C  
HETATM   37  C   UNL     1      -7.000  10.389  66.828  1.00  0.00    -0.103 C  
HETATM   38  C   UNL     1      -6.772   8.053  65.968  1.00  0.00    -0.053 C  
HETATM   39  C   UNL     1      -7.198   8.568  64.604  1.00  0.00    -0.086 C  
HETATM   40  C   UNL     1      -7.025  10.084  64.419  1.00  0.00    -0.129 C  
ENDBRANCH   9  35
TORSDOF 6
ENDMDL
MODEL      110
REMARK 921   NORMALIZED FREE ENERGY PREDICTED BY IDOCK:   48.43 KCAL/MOL
REMARK 922        TOTAL FREE ENERGY PREDICTED BY IDOCK:   63.75 KCAL/MOL
REMARK 923 INTER-LIGAND FREE ENERGY PREDICTED BY IDOCK:   47.70 KCAL/MOL
REMARK 924 INTRA-LIGAND FREE ENERGY PREDICTED BY IDOCK:   16.05 KCAL/MOL
REMARK 927      BINDING AFFINITY PREDICTED BY RF-SCORE:    0.00 PKD
ROOT
HETATM    1  C   UNL     1     -10.787  10.882  65.773  1.00  0.00    -0.120 C  
HETATM    2  C   UNL     1      -9.739  11.767  65.286  1.00  0.00    -0.236 C  
HETATM    3  C   UNL     1      -9.278  11.474  66.698  1.00  0.00    -0.186 C  
HETATM    4  C   UNL     1     -13.181  14.366  68.735  1.00  0.00     2.587 C  
HETATM    5  C   UNL     1     -10.812  10.559  67.815  1.00  0.00    -0.294 C  
HETATM    6  C   UNL     1      -9.767  10.100  67.154  1.00  0.00    -0.214 C  
HETATM    7  C   UNL     1     -12.329  14.504  67.435  1.00  0.00     0.003 C  
HETATM    8  C   UNL     1     -11.285  15.763  67.677  1.00  0.00    -0.246 C  
HETATM    9  C   UNL     1     -11.243  16.900  66.601  1.00  0.00     0.499 C  
HETATM   10  C   UNL     1     -12.749  17.109  66.318  1.00  0.00     6.609 C  
HETATM   11  C   UNL     1     -13.184  15.983  65.384  1.00  0.00     3.413 C  
HETATM   12  C   UNL     1      -9.150   8.721  67.000  1.00  0.00    -0.160 C  
HETATM   13  C   UNL     1      -9.711  11.287  68.717  1.00  0.00    -0.184 C  
HETATM   14  C   UNL     1     -13.417  14.751  66.287  1.00  0.00     2.618 C  
HETATM   15  C   UNL     1     -13.897  13.511  65.532  1.00  0.00     2.534 C  
HETATM   16  C   UNL     1     -10.923  12.589  68.708  1.00  0.00    -0.294 C  
HETATM   17  C   UNL     1     -12.787  12.579  65.081  1.00  0.00    -0.005 C  
HETATM   18  C   UNL     1     -11.466  13.165  67.274  1.00  0.00    -0.375 C  
HETATM   19  C   UNL     1     -12.028  12.026  66.291  1.00  0.00    -0.098 C  
ENDROOT
BRANCH   3  20
HETATM   20  N   UNL     1      -7.801  12.490  67.136  1.00  0.00    -0.155 N  
HETATM   21  C   UNL     1      -7.900  13.964  67.907  1.00  0.00    -0.161 C  
HETATM   22  C   UNL     1      -6.526  14.618  68.053  1.00  0.00    -0.161 C  
HETATM   23  C   UNL     1      -6.997  12.682  65.886  1.00  0.00     3.302 C  
HETATM   24  C   UNL     1      -5.835  14.728  66.699  1.00  0.00     2.528 C  
HETATM   25  C   UNL     1      -7.018  11.632  68.215  1.00  0.00    -0.074 C  
HETATM   26  C   UNL     1      -5.656  13.338  66.121  1.00  0.00     4.324 C  
ENDBRANCH   3  20
BRANCH   5  27
HETATM   27  O   UNL     1     -10.694   9.240  68.732  1.00  0.00    -0.217 OA 
BRANCH  27  28
HETATM   28  C   UNL     1      -9.585   8.551  69.088  1.00  0.00    -0.167 C  
HETATM   29  C   UNL     1      -9.213   8.922  70.505  1.00  0.00    -0.239 C  
HETATM   30  O   UNL     1      -9.099   7.635  68.447  1.00  0.00    -0.132 OA 
ENDBRANCH  27  28
ENDBRANCH   5  27
BRANCH  10  31
HETATM   31  O   UNL     1     -13.309  18.402  66.197  1.00  0.00    10.785 OA 
BRANCH  31  32
HETATM   32  C   UNL     1     -12.786  19.553  66.630  1.00  0.00     5.856 C  
HETATM   33  C   UNL     1     -11.613  19.197  67.495  1.00  0.00     0.998 C  
HETATM   34  O   UNL     1     -13.198  20.665  66.403  1.00  0.00     4.878 OA 
ENDBRANCH  31  32
ENDBRANCH  10  31
BRANCH   9  35
HETATM   35  N   UNL     1     -10.463  18.121  66.857  1.00  0.00    -0.372 NA 
HETATM   36  C   UNL     1      -8.018  17.942  66.959  1.00  0.00    -0.234 C  
HETATM   37  C   UNL     1      -9.315  18.080  67.743  1.00  0.00    -0.263 C  
HETATM   38  C   UNL     1      -7.827  19.135  66.033  1.00  0.00    -0.254 C  
HETATM   39  C   UNL     1      -9.044  19.275  65.135  1.00  0.00     1.995 C  
HETATM   40  C   UNL     1     -10.388  19.204  65.878  1.00  0.00    -0.391 C  
ENDBRANCH   9  35
TORSDOF 6
ENDMDL
MODEL      111
REMARK 921   NORMALIZED FREE ENERGY PREDICTED BY IDOCK:   49.50 KCAL/MOL
REMARK 922        TOTAL FREE ENERGY PREDICTED BY IDOCK:   65.19 KCAL/MOL
REMARK 923 INTER-LIGAND FREE ENERGY PREDICTED BY IDOCK:   55.12 KCAL/MOL
REMARK 924 INTRA-LIGAND FREE ENERGY PREDICTED BY IDOCK:   10.08 KCAL/MOL
REMARK 927      BINDING AFFINITY PREDICTED BY RF-SCORE:    0.00 PKD
ROOT
HETATM    1  C   UNL     1      -6.661  15.333  68.414  1.00  0.00    -0.113 C  
HETATM    2  C   UNL     1      -7.410  15.326  67.166  1.00  0.00    -0.178 C  
HETATM    3  C   UNL     1      -8.480  15.676  68.178  1.00  0.00    -0.147 C  
HETATM    4  C   UNL     1      -8.398  10.802  70.176  1.00  0.00     1.030 C  
HETATM    5  C   UNL     1      -7.796  15.339  70.142  1.00  0.00     0.418 C  
HETATM    6  C   UNL     1      -7.876  16.409  69.375  1.00  0.00    -0.047 C  
HETATM    7  C   UNL     1      -8.196  11.358  68.732  1.00  0.00    -0.107 C  
HETATM    8  C   UNL     1      -9.558  10.971  67.875  1.00  0.00    -0.180 C  
HETATM    9  C   UNL     1      -9.379  10.223  66.510  1.00  0.00    -0.166 C  
HETATM   10  C   UNL     1      -8.298   9.178  66.874  1.00  0.00    -0.119 C  
HETATM   11  C   UNL     1      -6.957   9.907  66.864  1.00  0.00    -0.088 C  
HETATM   12  C   UNL     1      -7.612  17.887  69.608  1.00  0.00     0.587 C  
HETATM   13  C   UNL     1      -9.390  15.331  70.009  1.00  0.00     0.165 C  
HETATM   14  C   UNL     1      -6.862  10.634  68.224  1.00  0.00    -0.068 C  
HETATM   15  C   UNL     1      -5.557  11.405  68.424  1.00  0.00    -0.045 C  
HETATM   16  C   UNL     1      -9.127  13.573  69.953  1.00  0.00     2.349 C  
HETATM   17  C   UNL     1      -5.615  12.863  68.006  1.00  0.00    -0.101 C  
HETATM   18  C   UNL     1      -8.107  12.953  68.831  1.00  0.00     0.211 C  
HETATM   19  C   UNL     1      -6.646  13.621  68.847  1.00  0.00    -0.105 C  
ENDROOT
BRANCH   3  20
HETATM   20  N   UNL     1     -10.148  15.721  67.389  1.00  0.00    -0.242 N  
HETATM   21  C   UNL     1     -10.962  14.354  66.891  1.00  0.00    -0.308 C  
HETATM   22  C   UNL     1     -12.274  14.703  66.188  1.00  0.00    -0.167 C  
HETATM   23  C   UNL     1     -10.071  16.657  66.221  1.00  0.00    -0.328 C  
HETATM   24  C   UNL     1     -12.026  15.672  65.037  1.00  0.00     0.249 C  
HETATM   25  C   UNL     1     -11.121  16.263  68.517  1.00  0.00    -0.368 C  
HETATM   26  C   UNL     1     -11.410  16.944  65.584  1.00  0.00     0.632 C  
ENDBRANCH   3  20
BRANCH   5  27
HETATM   27  O   UNL     1      -7.904  16.346  71.395  1.00  0.00     5.221 OA 
BRANCH  27  28
HETATM   28  C   UNL     1      -8.138  17.678  71.396  1.00  0.00     9.170 C  
HETATM   29  C   UNL     1      -9.335  17.964  70.518  1.00  0.00     3.536 C  
HETATM   30  O   UNL     1      -7.603  18.480  72.143  1.00  0.00     6.641 OA 
ENDBRANCH  27  28
ENDBRANCH   5  27
BRANCH  10  31
HETATM   31  O   UNL     1      -8.391   7.835  66.442  1.00  0.00    -0.119 OA 
BRANCH  31  32
HETATM   32  C   UNL     1      -7.601   6.817  66.794  1.00  0.00    -0.090 C  
HETATM   33  C   UNL     1      -8.325   6.058  67.866  1.00  0.00    -0.116 C  
HETATM   34  O   UNL     1      -6.500   6.574  66.362  1.00  0.00    -0.041 OA 
ENDBRANCH  31  32
ENDBRANCH  10  31
BRANCH   9  35
HETATM   35  N   UNL     1     -10.560   9.705  65.801  1.00  0.00     0.187 NA 
HETATM   36  C   UNL     1     -10.336   7.610  64.544  1.00  0.00     6.508 C  
HETATM   37  C   UNL     1     -10.419   9.128  64.478  1.00  0.00     3.628 C  
HETATM   38  C   UNL     1     -11.607   7.034  65.151  1.00  0.00     9.102 C  
HETATM   39  C   UNL     1     -11.848   7.669  66.510  1.00  0.00     4.492 C  
HETATM   40  C   UNL     1     -11.728   9.201  66.521  1.00  0.00     4.235 C  
ENDBRANCH   9  35
TORSDOF 6
ENDMDL
MODEL      112
REMARK 921   NORMALIZED FREE ENERGY PREDICTED BY IDOCK:   49.94 KCAL/MOL
REMARK 922        TOTAL FREE ENERGY PREDICTED BY IDOCK:   65.79 KCAL/MOL
REMARK 923 INTER-LIGAND FREE ENERGY PREDICTED BY IDOCK:   49.42 KCAL/MOL
REMARK 924 INTRA-LIGAND FREE ENERGY PREDICTED BY IDOCK:   16.36 KCAL/MOL
REMARK 927      BINDING AFFINITY PREDICTED BY RF-SCORE:    0.00 PKD
ROOT
HETATM    1  C   UNL     1      -8.944  13.288  70.969  1.00  0.00     9.495 C  
HETATM    2  C   UNL     1      -7.969  13.296  69.889  1.00  0.00     1.850 C  
HETATM    3  C   UNL     1      -9.245  13.676  69.169  1.00  0.00     0.475 C  
HETATM    4  C   UNL     1     -11.186   8.809  69.720  1.00  0.00    -0.002 C  
HETATM    5  C   UNL     1     -10.928  13.330  70.389  1.00  0.00     1.230 C  
HETATM    6  C   UNL     1     -10.205  14.399  70.113  1.00  0.00     0.651 C  
HETATM    7  C   UNL     1      -9.739   9.354  69.504  1.00  0.00    -0.191 C  
HETATM    8  C   UNL     1      -9.321   8.998  67.943  1.00  0.00    -0.155 C  
HETATM    9  C   UNL     1      -7.972   8.241  67.698  1.00  0.00    -0.118 C  
HETATM   10  C   UNL     1      -8.016   7.171  68.815  1.00  0.00    -0.123 C  
HETATM   11  C   UNL     1      -7.607   7.866  70.111  1.00  0.00    -0.083 C  
HETATM   12  C   UNL     1     -10.335  15.870  70.466  1.00  0.00     0.136 C  
HETATM   13  C   UNL     1     -11.266  13.361  68.826  1.00  0.00    -0.315 C  
HETATM   14  C   UNL     1      -8.873   8.596  70.615  1.00  0.00    -0.192 C  
HETATM   15  C   UNL     1      -8.675   9.334  71.939  1.00  0.00     0.510 C  
HETATM   16  C   UNL     1     -11.155  11.596  69.020  1.00  0.00    -0.297 C  
HETATM   17  C   UNL     1      -8.276  10.792  71.794  1.00  0.00     7.457 C  
HETATM   18  C   UNL     1      -9.791  10.947  69.655  1.00  0.00     0.151 C  
HETATM   19  C   UNL     1      -9.373  11.579  71.071  1.00  0.00     7.711 C  
ENDROOT
BRANCH   3  20
HETATM   20  N   UNL     1      -8.976  13.759  67.345  1.00  0.00    -0.213 N  
HETATM   21  C   UNL     1      -7.487  14.041  66.651  1.00  0.00     1.258 C  
HETATM   22  C   UNL     1      -7.585  14.151  65.130  1.00  0.00     9.510 C  
HETATM   23  C   UNL     1      -9.936  14.769  66.791  1.00  0.00    -0.251 C  
HETATM   24  C   UNL     1      -8.610  15.208  64.731  1.00  0.00     5.464 C  
HETATM   25  C   UNL     1      -9.289  12.297  66.817  1.00  0.00    -0.218 C  
HETATM   26  C   UNL     1      -9.966  14.814  65.282  1.00  0.00    -0.331 C  
ENDBRANCH   3  20
BRANCH   5  27
HETATM   27  O   UNL     1     -12.147  14.343  70.674  1.00  0.00    -0.293 OA 
BRANCH  27  28
HETATM   28  C   UNL     1     -13.415  14.301  70.202  1.00  0.00     0.803 C  
HETATM   29  C   UNL     1     -13.908  12.873  70.255  1.00  0.00     2.940 C  
HETATM   30  O   UNL     1     -14.106  15.279  69.973  1.00  0.00     0.930 OA 
ENDBRANCH  27  28
ENDBRANCH   5  27
BRANCH  10  31
HETATM   31  O   UNL     1      -7.644   5.828  68.570  1.00  0.00    -0.086 OA 
BRANCH  31  32
HETATM   32  C   UNL     1      -7.729   5.165  67.414  1.00  0.00    -0.092 C  
HETATM   33  C   UNL     1      -9.112   4.589  67.345  1.00  0.00    -0.141 C  
HETATM   34  O   UNL     1      -6.851   5.022  66.597  1.00  0.00    -0.059 OA 
ENDBRANCH  31  32
ENDBRANCH  10  31
BRANCH   9  35
HETATM   35  N   UNL     1      -7.644   7.750  66.351  1.00  0.00    -0.090 NA 
HETATM   36  C   UNL     1      -8.819   5.764  65.517  1.00  0.00    -0.119 C  
HETATM   37  C   UNL     1      -7.531   6.325  66.102  1.00  0.00    -0.085 C  
HETATM   38  C   UNL     1      -9.130   6.429  64.183  1.00  0.00     1.094 C  
HETATM   39  C   UNL     1      -9.177   7.936  64.371  1.00  0.00     1.343 C  
HETATM   40  C   UNL     1      -7.986   8.512  65.151  1.00  0.00    -0.130 C  
ENDBRANCH   9  35
TORSDOF 6
ENDMDL
MODEL      113
REMARK 921   NORMALIZED FREE ENERGY PREDICTED BY IDOCK:   58.05 KCAL/MOL
REMARK 922        TOTAL FREE ENERGY PREDICTED BY IDOCK:   76.75 KCAL/MOL
REMARK 923 INTER-LIGAND FREE ENERGY PREDICTED BY IDOCK:   73.21 KCAL/MOL
REMARK 924 INTRA-LIGAND FREE ENERGY PREDICTED BY IDOCK:    3.53 KCAL/MOL
REMARK 927      BINDING AFFINITY PREDICTED BY RF-SCORE:    0.00 PKD
ROOT
HETATM    1  C   UNL     1     -12.641  15.092  67.324  1.00  0.00     1.181 C  
HETATM    2  C   UNL     1     -12.815  15.030  68.767  1.00  0.00     0.895 C  
HETATM    3  C   UNL     1     -11.934  16.250  68.605  1.00  0.00     0.186 C  
HETATM    4  C   UNL     1      -7.810  13.277  67.229  1.00  0.00    -0.118 C  
HETATM    5  C   UNL     1     -11.147  16.355  66.654  1.00  0.00     0.156 C  
HETATM    6  C   UNL     1     -12.178  16.919  67.253  1.00  0.00     2.544 C  
HETATM    7  C   UNL     1      -8.996  13.049  68.216  1.00  0.00    -0.177 C  
HETATM    8  C   UNL     1      -8.378  13.178  69.745  1.00  0.00     2.023 C  
HETATM    9  C   UNL     1      -8.657  12.011  70.752  1.00  0.00     7.804 C  
HETATM   10  C   UNL     1      -8.417  10.772  69.857  1.00  0.00     0.589 C  
HETATM   11  C   UNL     1      -9.671  10.590  69.007  1.00  0.00    -0.221 C  
HETATM   12  C   UNL     1     -13.184  17.976  66.832  1.00  0.00     9.760 C  
HETATM   13  C   UNL     1     -10.290  17.165  67.734  1.00  0.00    -0.347 C  
HETATM   14  C   UNL     1      -9.537  11.591  67.838  1.00  0.00    -0.178 C  
HETATM   15  C   UNL     1     -10.696  11.538  66.842  1.00  0.00    -0.304 C  
HETATM   16  C   UNL     1      -9.315  15.677  67.708  1.00  0.00    -0.202 C  
HETATM   17  C   UNL     1     -11.823  12.513  67.133  1.00  0.00    -0.386 C  
HETATM   18  C   UNL     1     -10.045  14.239  68.001  1.00  0.00    -0.227 C  
HETATM   19  C   UNL     1     -11.316  13.956  67.060  1.00  0.00    -0.343 C  
ENDROOT
BRANCH   3  20
HETATM   20  N   UNL     1     -11.390  16.896  70.246  1.00  0.00     0.274 N  
HETATM   21  C   UNL     1     -12.140  16.499  71.681  1.00  0.00     0.123 C  
HETATM   22  C   UNL     1     -11.534  17.256  72.863  1.00  0.00     1.086 C  
HETATM   23  C   UNL     1     -11.345  18.391  70.153  1.00  0.00     4.088 C  
HETATM   24  C   UNL     1     -11.551  18.759  72.605  1.00  0.00     5.482 C  
HETATM   25  C   UNL     1      -9.948  16.276  70.473  1.00  0.00     1.049 C  
HETATM   26  C   UNL     1     -10.736  19.058  71.363  1.00  0.00     3.371 C  
ENDBRANCH   3  20
BRANCH   5  27
HETATM   27  O   UNL     1     -11.132  17.637  65.678  1.00  0.00     0.034 OA 
BRANCH  27  28
HETATM   28  C   UNL     1     -10.262  18.674  65.652  1.00  0.00     0.072 C  
HETATM   29  C   UNL     1     -10.655  19.615  64.537  1.00  0.00     3.181 C  
HETATM   30  O   UNL     1      -9.433  18.909  66.515  1.00  0.00    -0.319 OA 
ENDBRANCH  27  28
ENDBRANCH   5  27
BRANCH  10  31
HETATM   31  O   UNL     1      -7.694   9.650  70.324  1.00  0.00    -0.145 OA 
BRANCH  31  32
HETATM   32  C   UNL     1      -6.863   8.875  69.622  1.00  0.00    -0.050 C  
HETATM   33  C   UNL     1      -7.538   7.544  69.468  1.00  0.00    -0.095 C  
HETATM   34  O   UNL     1      -5.764   9.172  69.220  1.00  0.00    -0.035 OA 
ENDBRANCH  31  32
ENDBRANCH  10  31
BRANCH   9  35
HETATM   35  N   UNL     1      -7.985  11.998  72.061  1.00  0.00    12.838 NA 
HETATM   36  C   UNL     1      -5.814  10.868  72.244  1.00  0.00     1.198 C  
HETATM   37  C   UNL     1      -7.309  10.799  72.521  1.00  0.00     7.125 C  
HETATM   38  C   UNL     1      -5.191  12.045  72.981  1.00  0.00     0.641 C  
HETATM   39  C   UNL     1      -5.919  13.322  72.598  1.00  0.00     1.283 C  
HETATM   40  C   UNL     1      -7.451  13.219  72.662  1.00  0.00     9.378 C  
ENDBRANCH   9  35
TORSDOF 6
ENDMDL
MODEL      114
REMARK 921   NORMALIZED FREE ENERGY PREDICTED BY IDOCK:   62.24 KCAL/MOL
REMARK 922        TOTAL FREE ENERGY PREDICTED BY IDOCK:   82.39 KCAL/MOL
REMARK 923 INTER-LIGAND FREE ENERGY PREDICTED BY IDOCK:   79.08 KCAL/MOL
REMARK 924 INTRA-LIGAND FREE ENERGY PREDICTED BY IDOCK:    3.31 KCAL/MOL
REMARK 927      BINDING AFFINITY PREDICTED BY RF-SCORE:    0.00 PKD
ROOT
HETATM    1  C   UNL     1      -9.108   9.007  68.542  1.00  0.00    -0.133 C  
HETATM    2  C   UNL     1      -9.045   9.918  69.674  1.00  0.00    -0.245 C  
HETATM    3  C   UNL     1     -10.285   9.107  69.985  1.00  0.00    -0.204 C  
HETATM    4  C   UNL     1     -12.952  11.399  66.062  1.00  0.00     5.362 C  
HETATM    5  C   UNL     1     -10.890   7.985  68.308  1.00  0.00     0.086 C  
HETATM    6  C   UNL     1     -10.181   7.706  69.385  1.00  0.00    -0.206 C  
HETATM    7  C   UNL     1     -11.850  11.918  67.038  1.00  0.00    -0.192 C  
HETATM    8  C   UNL     1     -12.602  12.920  68.119  1.00  0.00     0.880 C  
HETATM    9  C   UNL     1     -12.012  14.357  68.320  1.00  0.00    -0.288 C  
HETATM   10  C   UNL     1     -11.720  14.775  66.859  1.00  0.00    -0.302 C  
HETATM   11  C   UNL     1     -10.415  14.092  66.457  1.00  0.00    -0.280 C  
HETATM   12  C   UNL     1      -9.584   6.425  69.943  1.00  0.00    -0.166 C  
HETATM   13  C   UNL     1     -12.067   8.253  69.356  1.00  0.00     1.782 C  
HETATM   14  C   UNL     1     -10.796  12.644  66.077  1.00  0.00    -0.306 C  
HETATM   15  C   UNL     1      -9.614  11.795  65.607  1.00  0.00    -0.240 C  
HETATM   16  C   UNL     1     -12.443   9.568  68.218  1.00  0.00     4.602 C  
HETATM   17  C   UNL     1      -8.936  10.996  66.705  1.00  0.00    -0.176 C  
HETATM   18  C   UNL     1     -11.279  10.657  67.843  1.00  0.00    -0.376 C  
HETATM   19  C   UNL     1      -9.915   9.990  67.317  1.00  0.00    -0.245 C  
ENDROOT
BRANCH   3  20
HETATM   20  N   UNL     1     -11.161   9.778  71.465  1.00  0.00    -0.276 N  
HETATM   21  C   UNL     1     -11.591  11.381  71.625  1.00  0.00     2.008 C  
HETATM   22  C   UNL     1     -12.215  11.663  72.992  1.00  0.00     5.909 C  
HETATM   23  C   UNL     1     -10.363   9.396  72.675  1.00  0.00     1.932 C  
HETATM   24  C   UNL     1     -11.288  11.205  74.113  1.00  0.00    19.917 C  
HETATM   25  C   UNL     1     -12.584   9.079  71.452  1.00  0.00    -0.311 C  
HETATM   26  C   UNL     1     -11.052   9.714  73.981  1.00  0.00    11.247 C  
ENDBRANCH   3  20
BRANCH   5  27
HETATM   27  O   UNL     1     -11.276   6.421  68.272  1.00  0.00    -0.309 OA 
BRANCH  27  28
HETATM   28  C   UNL     1     -12.378   5.808  68.762  1.00  0.00     5.508 C  
HETATM   29  C   UNL     1     -12.051   4.358  69.033  1.00  0.00    12.152 C  
HETATM   30  O   UNL     1     -13.393   6.382  69.119  1.00  0.00     5.624 OA 
ENDBRANCH  27  28
ENDBRANCH   5  27
BRANCH  10  31
HETATM   31  O   UNL     1     -12.034  16.068  66.381  1.00  0.00     0.833 OA 
BRANCH  31  32
HETATM   32  C   UNL     1     -11.574  16.653  65.271  1.00  0.00     0.740 C  
HETATM   33  C   UNL     1     -10.623  15.684  64.634  1.00  0.00    -0.043 C  
HETATM   34  O   UNL     1     -11.841  17.762  64.875  1.00  0.00     1.365 OA 
ENDBRANCH  31  32
ENDBRANCH  10  31
BRANCH   9  35
HETATM   35  N   UNL     1     -12.744  15.340  69.134  1.00  0.00     0.239 NA 
HETATM   36  C   UNL     1     -14.239  14.512  70.895  1.00  0.00     0.188 C  
HETATM   37  C   UNL     1     -14.128  15.100  69.496  1.00  0.00     3.869 C  
HETATM   38  C   UNL     1     -13.667  15.477  71.924  1.00  0.00    -0.593 C  
HETATM   39  C   UNL     1     -12.239  15.829  71.545  1.00  0.00    -0.513 C  
HETATM   40  C   UNL     1     -12.055  16.225  70.072  1.00  0.00     0.244 C  
ENDBRANCH   9  35
TORSDOF 6
ENDMDL
MODEL      115
REMARK 921   NORMALIZED FREE ENERGY PREDICTED BY IDOCK:   64.63 KCAL/MOL
REMARK 922        TOTAL FREE ENERGY PREDICTED BY IDOCK:   85.63 KCAL/MOL
REMARK 923 INTER-LIGAND FREE ENERGY PREDICTED BY IDOCK:   84.33 KCAL/MOL
REMARK 924 INTRA-LIGAND FREE ENERGY PREDICTED BY IDOCK:    1.30 KCAL/MOL
REMARK 927      BINDING AFFINITY PREDICTED BY RF-SCORE:    0.00 PKD
ROOT
HETATM    1  C   UNL     1     -12.322  13.264  68.127  1.00  0.00     0.099 C  
HETATM    2  C   UNL     1     -12.275  12.184  69.101  1.00  0.00    -0.086 C  
HETATM    3  C   UNL     1     -10.997  12.939  69.400  1.00  0.00     0.012 C  
HETATM    4  C   UNL     1      -8.801  11.307  64.899  1.00  0.00     0.094 C  
HETATM    5  C   UNL     1     -10.561  14.315  67.865  1.00  0.00    -0.240 C  
HETATM    6  C   UNL     1     -11.145  14.418  69.044  1.00  0.00    -0.282 C  
HETATM    7  C   UNL     1      -9.798  10.636  65.894  1.00  0.00    -0.296 C  
HETATM    8  C   UNL     1      -8.949   9.478  66.715  1.00  0.00    -0.157 C  
HETATM    9  C   UNL     1      -9.534   8.025  66.749  1.00  0.00    -0.202 C  
HETATM   10  C   UNL     1      -9.987   7.843  65.281  1.00  0.00     1.926 C  
HETATM   11  C   UNL     1     -11.318   8.577  65.135  1.00  0.00     8.613 C  
HETATM   12  C   UNL     1     -11.661  15.592  69.858  1.00  0.00    -0.348 C  
HETATM   13  C   UNL     1      -9.282  13.887  68.724  1.00  0.00    -0.013 C  
HETATM   14  C   UNL     1     -10.960  10.069  64.951  1.00  0.00     1.761 C  
HETATM   15  C   UNL     1     -12.173  10.977  64.751  1.00  0.00     1.905 C  
HETATM   16  C   UNL     1      -9.048  12.771  67.359  1.00  0.00    -0.192 C  
HETATM   17  C   UNL     1     -12.718  11.590  66.028  1.00  0.00     3.464 C  
HETATM   18  C   UNL     1     -10.262  11.752  66.945  1.00  0.00    -0.236 C  
HETATM   19  C   UNL     1     -11.665  12.489  66.682  1.00  0.00    -0.453 C  
ENDROOT
BRANCH   3  20
HETATM   20  N   UNL     1      -9.977  12.045  70.651  1.00  0.00     4.525 N  
HETATM   21  C   UNL     1     -10.020  12.388  72.282  1.00  0.00    17.574 C  
HETATM   22  C   UNL     1      -9.002  11.556  73.061  1.00  0.00    22.003 C  
HETATM   23  C   UNL     1      -8.547  12.120  70.207  1.00  0.00     4.550 C  
HETATM   24  C   UNL     1      -7.604  11.731  72.477  1.00  0.00    13.940 C  
HETATM   25  C   UNL     1     -10.522  10.556  70.637  1.00  0.00     0.542 C  
HETATM   26  C   UNL     1      -7.609  11.271  71.033  1.00  0.00     4.363 C  
ENDBRANCH   3  20
BRANCH   5  27
HETATM   27  O   UNL     1     -10.159  15.866  68.035  1.00  0.00    -0.226 OA 
BRANCH  27  28
HETATM   28  C   UNL     1      -8.994  16.397  68.473  1.00  0.00    -0.224 C  
HETATM   29  C   UNL     1      -8.463  17.346  67.423  1.00  0.00    -0.215 C  
HETATM   30  O   UNL     1      -8.561  16.286  69.608  1.00  0.00    -0.006 OA 
ENDBRANCH  27  28
ENDBRANCH   5  27
BRANCH  10  31
HETATM   31  O   UNL     1      -9.745   6.643  64.574  1.00  0.00     2.006 OA 
BRANCH  31  32
HETATM   32  C   UNL     1      -8.902   6.463  63.554  1.00  0.00     0.749 C  
HETATM   33  C   UNL     1      -9.135   5.074  63.039  1.00  0.00     0.071 C  
HETATM   34  O   UNL     1      -8.081   7.250  63.147  1.00  0.00    -0.108 OA 
ENDBRANCH  31  32
ENDBRANCH  10  31
BRANCH   9  35
HETATM   35  N   UNL     1      -8.732   6.928  67.313  1.00  0.00    -0.119 NA 
HETATM   36  C   UNL     1      -6.673   7.492  68.524  1.00  0.00    -0.057 C  
HETATM   37  C   UNL     1      -7.284   6.967  67.232  1.00  0.00    -0.089 C  
HETATM   38  C   UNL     1      -7.033   6.583  69.690  1.00  0.00    -0.067 C  
HETATM   39  C   UNL     1      -8.543   6.440  69.770  1.00  0.00    -0.138 C  
HETATM   40  C   UNL     1      -9.219   6.116  68.428  1.00  0.00    -0.111 C  
ENDBRANCH   9  35
TORSDOF 6
ENDMDL
MODEL      116
REMARK 921   NORMALIZED FREE ENERGY PREDICTED BY IDOCK:   69.82 KCAL/MOL
REMARK 922        TOTAL FREE ENERGY PREDICTED BY IDOCK:   92.64 KCAL/MOL
REMARK 923 INTER-LIGAND FREE ENERGY PREDICTED BY IDOCK:   91.77 KCAL/MOL
REMARK 924 INTRA-LIGAND FREE ENERGY PREDICTED BY IDOCK:    0.87 KCAL/MOL
REMARK 927      BINDING AFFINITY PREDICTED BY RF-SCORE:    0.00 PKD
ROOT
HETATM    1  C   UNL     1      -8.849  14.960  71.185  1.00  0.00     3.222 C  
HETATM    2  C   UNL     1      -9.035  16.371  71.489  1.00  0.00     7.102 C  
HETATM    3  C   UNL     1     -10.426  15.951  71.065  1.00  0.00     0.584 C  
HETATM    4  C   UNL     1      -8.909  15.445  66.046  1.00  0.00    -0.097 C  
HETATM    5  C   UNL     1     -10.392  14.056  70.147  1.00  0.00     1.048 C  
HETATM    6  C   UNL     1     -10.662  14.472  71.370  1.00  0.00     1.339 C  
HETATM    7  C   UNL     1      -8.485  16.422  67.187  1.00  0.00    -0.208 C  
HETATM    8  C   UNL     1      -9.147  17.894  66.826  1.00  0.00    -0.276 C  
HETATM    9  C   UNL     1      -8.197  19.140  66.801  1.00  0.00    -0.280 C  
HETATM   10  C   UNL     1      -6.968  18.572  66.053  1.00  0.00    -0.275 C  
HETATM   11  C   UNL     1      -6.174  17.752  67.066  1.00  0.00    -0.188 C  
HETATM   12  C   UNL     1     -11.174  13.783  72.622  1.00  0.00     3.848 C  
HETATM   13  C   UNL     1     -11.663  14.939  69.745  1.00  0.00    -0.344 C  
HETATM   14  C   UNL     1      -6.886  16.383  67.152  1.00  0.00    -0.238 C  
HETATM   15  C   UNL     1      -6.212  15.393  68.103  1.00  0.00    -0.135 C  
HETATM   16  C   UNL     1     -10.654  15.296  68.325  1.00  0.00    -0.244 C  
HETATM   17  C   UNL     1      -6.756  15.411  69.519  1.00  0.00    -0.174 C  
HETATM   18  C   UNL     1      -9.147  15.899  68.548  1.00  0.00    -0.200 C  
HETATM   19  C   UNL     1      -8.235  15.014  69.531  1.00  0.00    -0.106 C  
ENDROOT
BRANCH   3  20
HETATM   20  N   UNL     1     -11.554  17.408  70.963  1.00  0.00     1.773 N  
HETATM   21  C   UNL     1     -11.850  18.239  69.548  1.00  0.00     5.835 C  
HETATM   22  C   UNL     1     -12.747  19.454  69.784  1.00  0.00    16.182 C  
HETATM   23  C   UNL     1     -11.104  18.403  71.990  1.00  0.00     3.476 C  
HETATM   24  C   UNL     1     -12.158  20.356  70.863  1.00  0.00    11.868 C  
HETATM   25  C   UNL     1     -12.996  16.834  71.289  1.00  0.00     3.814 C  
HETATM   26  C   UNL     1     -12.046  19.572  72.156  1.00  0.00    13.942 C  
ENDBRANCH   3  20
BRANCH   5  27
HETATM   27  O   UNL     1     -11.358  12.805  70.462  1.00  0.00     0.320 OA 
BRANCH  27  28
HETATM   28  C   UNL     1     -11.081  11.482  70.397  1.00  0.00     0.613 C  
HETATM   29  C   UNL     1     -11.839  10.880  69.237  1.00  0.00    -0.395 C  
HETATM   30  O   UNL     1     -10.207  10.921  71.037  1.00  0.00     1.789 OA 
ENDBRANCH  27  28
ENDBRANCH   5  27
BRANCH  10  31
HETATM   31  O   UNL     1      -6.305  19.314  65.048  1.00  0.00    -0.266 OA 
BRANCH  31  32
HETATM   32  C   UNL     1      -6.407  19.153  63.726  1.00  0.00     0.993 C  
HETATM   33  C   UNL     1      -5.798  17.821  63.403  1.00  0.00     3.824 C  
HETATM   34  O   UNL     1      -6.865  19.944  62.935  1.00  0.00     0.779 OA 
ENDBRANCH  31  32
ENDBRANCH  10  31
BRANCH   9  35
HETATM   35  N   UNL     1      -8.702  20.435  66.317  1.00  0.00    -0.092 NA 
HETATM   36  C   UNL     1      -9.975  20.477  64.220  1.00  0.00     3.708 C  
HETATM   37  C   UNL     1      -8.644  20.756  64.904  1.00  0.00     1.794 C  
HETATM   38  C   UNL     1     -11.076  21.333  64.830  1.00  0.00     3.341 C  
HETATM   39  C   UNL     1     -11.125  21.096  66.329  1.00  0.00     3.780 C  
HETATM   40  C   UNL     1      -9.755  21.161  67.024  1.00  0.00     0.314 C  
ENDBRANCH   9  35
TORSDOF 6
ENDMDL
MODEL      117
REMARK 921   NORMALIZED FREE ENERGY PREDICTED BY IDOCK:   77.37 KCAL/MOL
REMARK 922        TOTAL FREE ENERGY PREDICTED BY IDOCK:  102.83 KCAL/MOL
REMARK 923 INTER-LIGAND FREE ENERGY PREDICTED BY IDOCK:  100.93 KCAL/MOL
REMARK 924 INTRA-LIGAND FREE ENERGY PREDICTED BY IDOCK:    1.91 KCAL/MOL
REMARK 927      BINDING AFFINITY PREDICTED BY RF-SCORE:    0.00 PKD
ROOT
HETATM    1  C   UNL     1     -12.504  15.833  69.008  1.00  0.00     0.315 C  
HETATM    2  C   UNL     1     -11.827  14.763  69.724  1.00  0.00    -0.362 C  
HETATM    3  C   UNL     1     -10.676  15.671  69.345  1.00  0.00    -0.252 C  
HETATM    4  C   UNL     1     -11.107  14.353  64.263  1.00  0.00    -0.063 C  
HETATM    5  C   UNL     1     -11.283  17.099  67.921  1.00  0.00     0.062 C  
HETATM    6  C   UNL     1     -11.144  17.121  69.233  1.00  0.00     0.262 C  
HETATM    7  C   UNL     1     -11.334  13.557  65.586  1.00  0.00    -0.312 C  
HETATM    8  C   UNL     1     -10.062  12.510  65.738  1.00  0.00    -0.278 C  
HETATM    9  C   UNL     1     -10.382  10.995  65.974  1.00  0.00    -0.254 C  
HETATM   10  C   UNL     1     -11.536  10.766  64.969  1.00  0.00     0.915 C  
HETATM   11  C   UNL     1     -12.801  11.327  65.612  1.00  0.00     4.499 C  
HETATM   12  C   UNL     1     -11.255  18.216  70.279  1.00  0.00     3.125 C  
HETATM   13  C   UNL     1      -9.706  16.831  67.927  1.00  0.00    -0.245 C  
HETATM   14  C   UNL     1     -12.755  12.853  65.373  1.00  0.00    -0.313 C  
HETATM   15  C   UNL     1     -13.969  13.603  65.922  1.00  0.00     3.926 C  
HETATM   16  C   UNL     1     -10.135  15.761  66.572  1.00  0.00    -0.292 C  
HETATM   17  C   UNL     1     -13.797  14.135  67.332  1.00  0.00     7.886 C  
HETATM   18  C   UNL     1     -11.267  14.599  66.800  1.00  0.00    -0.344 C  
HETATM   19  C   UNL     1     -12.656  15.156  67.384  1.00  0.00     1.173 C  
ENDROOT
BRANCH   3  20
HETATM   20  N   UNL     1      -9.056  14.905  69.787  1.00  0.00     0.101 N  
HETATM   21  C   UNL     1      -8.768  14.148  71.244  1.00  0.00     6.021 C  
HETATM   22  C   UNL     1      -7.313  13.695  71.367  1.00  0.00     4.348 C  
HETATM   23  C   UNL     1      -7.995  15.946  69.596  1.00  0.00     0.036 C  
HETATM   24  C   UNL     1      -6.363  14.865  71.133  1.00  0.00     0.353 C  
HETATM   25  C   UNL     1      -8.885  13.696  68.774  1.00  0.00     0.076 C  
HETATM   26  C   UNL     1      -6.589  15.414  69.738  1.00  0.00    -0.170 C  
ENDBRANCH   3  20
BRANCH   5  27
HETATM   27  O   UNL     1     -11.015  18.687  67.961  1.00  0.00    -0.214 OA 
BRANCH  27  28
HETATM   28  C   UNL     1     -11.506  19.651  67.148  1.00  0.00     0.638 C  
HETATM   29  C   UNL     1     -10.385  20.593  66.774  1.00  0.00     0.042 C  
HETATM   30  O   UNL     1     -12.614  19.636  66.640  1.00  0.00     3.419 OA 
ENDBRANCH  27  28
ENDBRANCH   5  27
BRANCH  10  31
HETATM   31  O   UNL     1     -11.593   9.610  64.156  1.00  0.00     5.968 OA 
BRANCH  31  32
HETATM   32  C   UNL     1     -12.475   8.610  64.234  1.00  0.00    20.675 C  
HETATM   33  C   UNL     1     -12.505   7.953  62.887  1.00  0.00    22.279 C  
HETATM   34  O   UNL     1     -13.148   8.314  65.193  1.00  0.00    17.413 OA 
ENDBRANCH  31  32
ENDBRANCH  10  31
BRANCH   9  35
HETATM   35  N   UNL     1      -9.295  10.004  65.940  1.00  0.00    -0.172 NA 
HETATM   36  C   UNL     1      -9.252   8.262  67.667  1.00  0.00    -0.150 C  
HETATM   37  C   UNL     1      -8.662   9.574  67.172  1.00  0.00    -0.132 C  
HETATM   38  C   UNL     1      -9.031   7.159  66.642  1.00  0.00    -0.164 C  
HETATM   39  C   UNL     1      -9.606   7.593  65.304  1.00  0.00     1.102 C  
HETATM   40  C   UNL     1      -9.196   9.010  64.872  1.00  0.00     0.012 C  
ENDBRANCH   9  35
TORSDOF 6
ENDMDL
MODEL      118
REMARK 921   NORMALIZED FREE ENERGY PREDICTED BY IDOCK:   79.03 KCAL/MOL
REMARK 922        TOTAL FREE ENERGY PREDICTED BY IDOCK:  105.08 KCAL/MOL
REMARK 923 INTER-LIGAND FREE ENERGY PREDICTED BY IDOCK:  103.19 KCAL/MOL
REMARK 924 INTRA-LIGAND FREE ENERGY PREDICTED BY IDOCK:    1.89 KCAL/MOL
REMARK 927      BINDING AFFINITY PREDICTED BY RF-SCORE:    0.00 PKD
ROOT
HETATM    1  C   UNL     1     -13.267  16.108  69.193  1.00  0.00     2.704 C  
HETATM    2  C   UNL     1     -12.693  15.652  70.451  1.00  0.00    -0.325 C  
HETATM    3  C   UNL     1     -11.547  16.430  69.841  1.00  0.00     0.013 C  
HETATM    4  C   UNL     1     -10.799  12.742  66.155  1.00  0.00    -0.303 C  
HETATM    5  C   UNL     1     -11.923  16.858  67.813  1.00  0.00     1.288 C  
HETATM    6  C   UNL     1     -12.070  17.541  68.932  1.00  0.00     3.310 C  
HETATM    7  C   UNL     1     -11.253  12.671  67.647  1.00  0.00    -0.329 C  
HETATM    8  C   UNL     1      -9.981  12.055  68.505  1.00  0.00    -0.188 C  
HETATM    9  C   UNL     1     -10.249  10.821  69.433  1.00  0.00    -0.160 C  
HETATM   10  C   UNL     1     -11.144   9.946  68.524  1.00  0.00    -0.129 C  
HETATM   11  C   UNL     1     -12.551  10.536  68.587  1.00  0.00     1.521 C  
HETATM   12  C   UNL     1     -12.470  18.974  69.238  1.00  0.00    11.098 C  
HETATM   13  C   UNL     1     -10.371  16.886  68.196  1.00  0.00    -0.336 C  
HETATM   14  C   UNL     1     -12.549  11.734  67.611  1.00  0.00     1.902 C  
HETATM   15  C   UNL     1     -13.897  12.448  67.505  1.00  0.00    10.902 C  
HETATM   16  C   UNL     1     -10.432  15.236  67.534  1.00  0.00    -0.265 C  
HETATM   17  C   UNL     1     -14.064  13.623  68.450  1.00  0.00    10.739 C  
HETATM   18  C   UNL     1     -11.513  14.169  68.149  1.00  0.00    -0.340 C  
HETATM   19  C   UNL     1     -13.026  14.708  68.145  1.00  0.00     1.916 C  
ENDROOT
BRANCH   3  20
HETATM   20  N   UNL     1     -10.015  16.253  70.854  1.00  0.00     1.521 N  
HETATM   21  C   UNL     1     -10.010  16.281  72.521  1.00  0.00     6.657 C  
HETATM   22  C   UNL     1      -8.590  16.208  73.083  1.00  0.00    16.054 C  
HETATM   23  C   UNL     1      -9.035  17.283  70.378  1.00  0.00     3.349 C  
HETATM   24  C   UNL     1      -7.720  17.311  72.491  1.00  0.00    13.768 C  
HETATM   25  C   UNL     1      -9.504  14.779  70.571  1.00  0.00     1.386 C  
HETATM   26  C   UNL     1      -7.660  17.141  70.986  1.00  0.00     5.442 C  
ENDBRANCH   3  20
BRANCH   5  27
HETATM   27  O   UNL     1     -11.769  18.281  67.074  1.00  0.00     1.206 OA 
BRANCH  27  28
HETATM   28  C   UNL     1     -10.923  18.632  66.078  1.00  0.00     0.153 C  
HETATM   29  C   UNL     1     -10.267  19.947  66.434  1.00  0.00    -0.617 C  
HETATM   30  O   UNL     1     -10.593  17.907  65.155  1.00  0.00    -0.573 OA 
ENDBRANCH  27  28
ENDBRANCH   5  27
BRANCH  10  31
HETATM   31  O   UNL     1     -10.954   8.548  68.421  1.00  0.00     0.008 OA 
BRANCH  31  32
HETATM   32  C   UNL     1     -11.809   7.588  68.783  1.00  0.00     1.580 C  
HETATM   33  C   UNL     1     -11.432   6.359  68.010  1.00  0.00     0.176 C  
HETATM   34  O   UNL     1     -12.733   7.695  69.553  1.00  0.00     2.004 OA 
ENDBRANCH  31  32
ENDBRANCH  10  31
BRANCH   9  35
HETATM   35  N   UNL     1      -9.121  10.131  70.077  1.00  0.00    -0.091 NA 
HETATM   36  C   UNL     1      -9.211   9.766  72.502  1.00  0.00     4.008 C  
HETATM   37  C   UNL     1      -8.626  10.588  71.362  1.00  0.00     4.727 C  
HETATM   38  C   UNL     1      -8.812   8.304  72.362  1.00  0.00    -0.286 C  
HETATM   39  C   UNL     1      -9.234   7.796  70.994  1.00  0.00    -0.158 C  
HETATM   40  C   UNL     1      -8.842   8.718  69.829  1.00  0.00    -0.142 C  
ENDBRANCH   9  35
TORSDOF 6
ENDMDL
