MODEL        1
REMARK 921   NORMALIZED FREE ENERGY PREDICTED BY IDOCK:   -8.77 KCAL/MOL
REMARK 922        TOTAL FREE ENERGY PREDICTED BY IDOCK:  -14.11 KCAL/MOL
REMARK 923 INTER-LIGAND FREE ENERGY PREDICTED BY IDOCK:  -12.36 KCAL/MOL
REMARK 924 INTRA-LIGAND FREE ENERGY PREDICTED BY IDOCK:   -1.75 KCAL/MOL
REMARK 927      BINDING AFFINITY PREDICTED BY RF-SCORE:    0.00 PKD
ROOT
HETATM    1  C   UNL     1      -9.640  20.319  66.795  1.00  0.00    -0.548 C  
HETATM    2  C   UNL     1     -10.847  19.431  67.053  1.00  0.00    -0.540 C  
ENDROOT
BRANCH   2   3
HETATM    3  C   UNL     1     -10.436  18.026  67.480  1.00  0.00    -0.396 C  
BRANCH   3   4
HETATM    4  S   UNL     1     -10.191  16.968  66.051  1.00  0.00    -0.278 S  
HETATM    5  O   UNL     1      -8.784  16.664  65.913  1.00  0.00    -0.483 OA 
HETATM    6  O   UNL     1     -10.970  17.491  64.955  1.00  0.00    -0.887 OA 
BRANCH   4   7
HETATM    7  N   UNL     1     -11.027  15.579  66.533  1.00  0.00    -0.287 N  
HETATM    8  H   UNL     1     -11.486  15.528  67.443  1.00  0.00     0.000 HD 
BRANCH   7   9
HETATM    9  C   UNL     1     -11.069  14.480  65.619  1.00  0.00    -0.327 A  
HETATM   10  C   UNL     1     -10.127  13.448  65.708  1.00  0.00    -0.288 A  
HETATM   11  C   UNL     1     -10.311  12.258  64.999  1.00  0.00    -0.321 A  
HETATM   12  F   UNL     1      -9.090  13.596  66.548  1.00  0.00    -0.246 F  
HETATM   13  C   UNL     1     -12.082  14.419  64.665  1.00  0.00    -0.485 A  
HETATM   14  C   UNL     1     -11.327  12.209  64.043  1.00  0.00    -0.395 A  
HETATM   15  C   UNL     1     -12.191  13.291  63.854  1.00  0.00    -0.491 A  
HETATM   16  F   UNL     1     -11.538  11.112  63.303  1.00  0.00    -0.357 F  
BRANCH  11  17
HETATM   17  C   UNL     1      -9.503  11.044  65.262  1.00  0.00    -0.223 C  
HETATM   18  O   UNL     1      -8.472  10.871  64.615  1.00  0.00    -0.080 OA 
BRANCH  17  19
HETATM   19  C   UNL     1      -9.916  10.084  66.294  1.00  0.00    -0.310 A  
HETATM   20  C   UNL     1      -9.652   8.724  66.202  1.00  0.00    -0.253 A  
HETATM   21  N   UNL     1     -10.000   8.127  67.383  1.00  0.00    -0.188 NA 
HETATM   22  C   UNL     1     -10.525   9.060  68.231  1.00  0.00    -0.200 A  
HETATM   23  H   UNL     1      -9.885   7.137  67.597  1.00  0.00     0.000 HD 
HETATM   24  N   UNL     1     -10.895   8.813  69.500  1.00  0.00    -0.190 NA 
HETATM   25  C   UNL     1     -11.393   9.912  70.130  1.00  0.00    -0.275 A  
HETATM   26  C   UNL     1     -11.599  11.179  69.575  1.00  0.00    -0.392 A  
HETATM   27  C   UNL     1     -11.221  11.331  68.229  1.00  0.00    -0.331 A  
HETATM   28  C   UNL     1     -10.598  10.267  67.547  1.00  0.00    -0.320 A  
BRANCH  26  29
HETATM   29  C   UNL     1     -12.133  12.325  70.347  1.00  0.00    -0.385 A  
HETATM   30  C   UNL     1     -11.998  13.651  69.894  1.00  0.00    -0.415 A  
HETATM   31  C   UNL     1     -12.567  14.722  70.597  1.00  0.00    -0.414 A  
HETATM   32  C   UNL     1     -13.288  14.483  71.763  1.00  0.00    -0.363 A  
HETATM   33  C   UNL     1     -13.426  13.187  72.242  1.00  0.00    -0.665 A  
HETATM   34 CL   UNL     1     -14.018  15.790  72.608  1.00  0.00    -0.632 Cl 
HETATM   35  C   UNL     1     -12.845  12.123  71.545  1.00  0.00    -0.394 A  
ENDBRANCH  26  29
ENDBRANCH  17  19
ENDBRANCH  11  17
ENDBRANCH   7   9
ENDBRANCH   4   7
ENDBRANCH   3   4
ENDBRANCH   2   3
TORSDOF 7
ENDMDL
MODEL        2
REMARK 921   NORMALIZED FREE ENERGY PREDICTED BY IDOCK:   -8.33 KCAL/MOL
REMARK 922        TOTAL FREE ENERGY PREDICTED BY IDOCK:  -13.49 KCAL/MOL
REMARK 923 INTER-LIGAND FREE ENERGY PREDICTED BY IDOCK:  -11.52 KCAL/MOL
REMARK 924 INTRA-LIGAND FREE ENERGY PREDICTED BY IDOCK:   -1.97 KCAL/MOL
REMARK 927      BINDING AFFINITY PREDICTED BY RF-SCORE:    0.00 PKD
ROOT
HETATM    1  C   UNL     1     -13.188  12.026  71.883  1.00  0.00    -0.469 C  
HETATM    2  C   UNL     1     -13.881  13.331  72.239  1.00  0.00    -0.637 C  
ENDROOT
BRANCH   2   3
HETATM    3  C   UNL     1     -12.922  14.325  72.886  1.00  0.00    -0.452 C  
BRANCH   3   4
HETATM    4  S   UNL     1     -12.419  15.587  71.713  1.00  0.00    -0.443 S  
HETATM    5  O   UNL     1     -11.869  16.717  72.428  1.00  0.00    -0.491 OA 
HETATM    6  O   UNL     1     -13.465  15.742  70.730  1.00  0.00    -0.520 OA 
BRANCH   4   7
HETATM    7  N   UNL     1     -11.184  14.783  70.885  1.00  0.00    -0.514 N  
HETATM    8  H   UNL     1     -10.607  14.081  71.349  1.00  0.00     0.000 HD 
BRANCH   7   9
HETATM    9  C   UNL     1     -10.976  15.122  69.512  1.00  0.00    -0.272 A  
HETATM   10  C   UNL     1     -11.299  14.210  68.499  1.00  0.00    -0.283 A  
HETATM   11  C   UNL     1     -11.345  14.621  67.164  1.00  0.00    -0.365 A  
HETATM   12  F   UNL     1     -11.640  12.959  68.848  1.00  0.00    -0.271 F  
HETATM   13  C   UNL     1     -10.492  16.386  69.183  1.00  0.00    -0.303 A  
HETATM   14  C   UNL     1     -10.854  15.889  66.846  1.00  0.00    -0.240 A  
HETATM   15  C   UNL     1     -10.403  16.758  67.842  1.00  0.00    -0.319 A  
HETATM   16  F   UNL     1     -10.836  16.333  65.582  1.00  0.00    -0.328 F  
BRANCH  11  17
HETATM   17  C   UNL     1     -11.939  13.783  66.096  1.00  0.00    -0.418 C  
HETATM   18  O   UNL     1     -13.087  14.022  65.729  1.00  0.00    -0.543 OA 
BRANCH  17  19
HETATM   19  C   UNL     1     -11.157  12.707  65.472  1.00  0.00    -0.329 A  
HETATM   20  C   UNL     1     -10.568  12.837  64.222  1.00  0.00    -0.400 A  
HETATM   21  N   UNL     1      -9.771  11.748  63.995  1.00  0.00    -0.447 NA 
HETATM   22  C   UNL     1      -9.859  10.888  65.053  1.00  0.00    -0.281 A  
HETATM   23  H   UNL     1      -9.200  11.600  63.163  1.00  0.00     0.000 HD 
HETATM   24  N   UNL     1      -9.141   9.757  65.177  1.00  0.00    -0.205 NA 
HETATM   25  C   UNL     1      -9.419   9.076  66.321  1.00  0.00    -0.242 A  
HETATM   26  C   UNL     1     -10.380   9.403  67.283  1.00  0.00    -0.325 A  
HETATM   27  C   UNL     1     -11.112  10.581  67.047  1.00  0.00    -0.183 A  
HETATM   28  C   UNL     1     -10.802  11.394  65.938  1.00  0.00    -0.292 A  
BRANCH  26  29
HETATM   29  C   UNL     1     -10.601   8.607  68.512  1.00  0.00    -0.162 A  
HETATM   30  C   UNL     1     -10.836   9.217  69.759  1.00  0.00    -0.224 A  
HETATM   31  C   UNL     1     -11.113   8.455  70.902  1.00  0.00    -0.289 A  
HETATM   32  C   UNL     1     -11.167   7.067  70.816  1.00  0.00    -0.285 A  
HETATM   33  C   UNL     1     -10.927   6.436  69.602  1.00  0.00    -0.420 A  
HETATM   34 CL   UNL     1     -11.542   6.131  72.208  1.00  0.00    -0.355 Cl 
HETATM   35  C   UNL     1     -10.637   7.199  68.467  1.00  0.00    -0.219 A  
ENDBRANCH  26  29
ENDBRANCH  17  19
ENDBRANCH  11  17
ENDBRANCH   7   9
ENDBRANCH   4   7
ENDBRANCH   3   4
ENDBRANCH   2   3
TORSDOF 7
ENDMDL
MODEL        3
REMARK 921   NORMALIZED FREE ENERGY PREDICTED BY IDOCK:   -7.80 KCAL/MOL
REMARK 922        TOTAL FREE ENERGY PREDICTED BY IDOCK:  -12.74 KCAL/MOL
REMARK 923 INTER-LIGAND FREE ENERGY PREDICTED BY IDOCK:  -10.97 KCAL/MOL
REMARK 924 INTRA-LIGAND FREE ENERGY PREDICTED BY IDOCK:   -1.77 KCAL/MOL
REMARK 927      BINDING AFFINITY PREDICTED BY RF-SCORE:    0.00 PKD
ROOT
HETATM    1  C   UNL     1     -14.014   8.862  72.308  1.00  0.00    -0.531 C  
HETATM    2  C   UNL     1     -12.560   8.500  72.052  1.00  0.00    -0.414 C  
ENDROOT
BRANCH   2   3
HETATM    3  C   UNL     1     -12.425   7.135  71.384  1.00  0.00    -0.388 C  
BRANCH   3   4
HETATM    4  S   UNL     1     -11.069   7.129  70.209  1.00  0.00    -0.272 S  
HETATM    5  O   UNL     1     -11.364   6.203  69.139  1.00  0.00    -0.399 OA 
HETATM    6  O   UNL     1      -9.826   7.077  70.942  1.00  0.00    -0.185 OA 
BRANCH   4   7
HETATM    7  N   UNL     1     -11.143   8.714  69.625  1.00  0.00    -0.429 N  
HETATM    8  H   UNL     1     -11.948   9.310  69.816  1.00  0.00     0.000 HD 
BRANCH   7   9
HETATM    9  C   UNL     1     -10.037   9.188  68.852  1.00  0.00    -0.197 A  
HETATM   10  C   UNL     1     -10.046   9.075  67.456  1.00  0.00    -0.228 A  
HETATM   11  C   UNL     1      -9.103   9.759  66.685  1.00  0.00    -0.174 A  
HETATM   12  F   UNL     1     -11.026   8.363  66.877  1.00  0.00    -0.337 F  
HETATM   13  C   UNL     1      -8.967   9.806  69.495  1.00  0.00    -0.215 A  
HETATM   14  C   UNL     1      -8.033  10.371  67.339  1.00  0.00    -0.107 A  
HETATM   15  C   UNL     1      -7.946  10.373  68.733  1.00  0.00    -0.122 A  
HETATM   16  F   UNL     1      -7.074  11.015  66.658  1.00  0.00    -0.108 F  
BRANCH  11  17
HETATM   17  C   UNL     1      -9.230   9.895  65.214  1.00  0.00    -0.226 C  
HETATM   18  O   UNL     1      -8.654   9.080  64.496  1.00  0.00    -0.176 OA 
BRANCH  17  19
HETATM   19  C   UNL     1     -10.048  10.967  64.634  1.00  0.00    -0.370 A  
HETATM   20  C   UNL     1     -10.376  11.013  63.285  1.00  0.00    -0.255 A  
HETATM   21  N   UNL     1     -11.282  12.020  63.086  1.00  0.00    -0.700 NA 
HETATM   22  C   UNL     1     -11.523  12.660  64.269  1.00  0.00    -0.363 A  
HETATM   23  H   UNL     1     -11.712  12.256  62.192  1.00  0.00     0.000 HD 
HETATM   24  N   UNL     1     -12.421  13.647  64.432  1.00  0.00    -0.635 NA 
HETATM   25  C   UNL     1     -12.464  14.120  65.707  1.00  0.00    -0.466 A  
HETATM   26  C   UNL     1     -11.650  13.731  66.776  1.00  0.00    -0.394 A  
HETATM   27  C   UNL     1     -10.711  12.722  66.501  1.00  0.00    -0.277 A  
HETATM   28  C   UNL     1     -10.685  12.110  65.231  1.00  0.00    -0.328 A  
BRANCH  26  29
HETATM   29  C   UNL     1     -11.782  14.292  68.140  1.00  0.00    -0.385 A  
HETATM   30  C   UNL     1     -12.245  13.517  69.220  1.00  0.00    -0.257 A  
HETATM   31  C   UNL     1     -12.300  14.037  70.520  1.00  0.00    -0.437 A  
HETATM   32  C   UNL     1     -11.885  15.342  70.764  1.00  0.00    -0.353 A  
HETATM   33  C   UNL     1     -11.436  16.137  69.717  1.00  0.00    -0.282 A  
HETATM   34 CL   UNL     1     -11.916  15.972  72.363  1.00  0.00    -0.597 Cl 
HETATM   35  C   UNL     1     -11.396  15.618  68.419  1.00  0.00    -0.365 A  
ENDBRANCH  26  29
ENDBRANCH  17  19
ENDBRANCH  11  17
ENDBRANCH   7   9
ENDBRANCH   4   7
ENDBRANCH   3   4
ENDBRANCH   2   3
TORSDOF 7
ENDMDL
MODEL        4
REMARK 921   NORMALIZED FREE ENERGY PREDICTED BY IDOCK:   -7.79 KCAL/MOL
REMARK 922        TOTAL FREE ENERGY PREDICTED BY IDOCK:  -12.73 KCAL/MOL
REMARK 923 INTER-LIGAND FREE ENERGY PREDICTED BY IDOCK:  -10.55 KCAL/MOL
REMARK 924 INTRA-LIGAND FREE ENERGY PREDICTED BY IDOCK:   -2.18 KCAL/MOL
REMARK 927      BINDING AFFINITY PREDICTED BY RF-SCORE:    0.00 PKD
ROOT
HETATM    1  C   UNL     1     -10.212  16.801  67.022  1.00  0.00    -0.292 C  
HETATM    2  C   UNL     1     -10.310  15.297  67.225  1.00  0.00    -0.264 C  
ENDROOT
BRANCH   2   3
HETATM    3  C   UNL     1     -11.759  14.820  67.235  1.00  0.00    -0.347 C  
BRANCH   3   4
HETATM    4  S   UNL     1     -12.041  13.600  65.949  1.00  0.00    -0.464 S  
HETATM    5  O   UNL     1     -13.042  14.092  65.030  1.00  0.00    -0.742 OA 
HETATM    6  O   UNL     1     -12.143  12.299  66.566  1.00  0.00    -0.616 OA 
BRANCH   4   7
HETATM    7  N   UNL     1     -10.531  13.582  65.188  1.00  0.00    -0.344 N  
HETATM    8  H   UNL     1     -10.078  14.448  64.893  1.00  0.00     0.000 HD 
BRANCH   7   9
HETATM    9  C   UNL     1      -9.912  12.311  64.973  1.00  0.00    -0.205 A  
HETATM   10  C   UNL     1      -9.167  11.703  65.991  1.00  0.00    -0.208 A  
HETATM   11  C   UNL     1      -8.782  10.365  65.884  1.00  0.00    -0.170 A  
HETATM   12  F   UNL     1      -8.902  12.410  67.102  1.00  0.00    -0.167 F  
HETATM   13  C   UNL     1     -10.093  11.658  63.756  1.00  0.00    -0.416 A  
HETATM   14  C   UNL     1      -8.965   9.721  64.659  1.00  0.00    -0.230 A  
HETATM   15  C   UNL     1      -9.590  10.368  63.590  1.00  0.00    -0.364 A  
HETATM   16  F   UNL     1      -8.587   8.448  64.476  1.00  0.00    -0.171 F  
BRANCH  11  17
HETATM   17  C   UNL     1      -8.238   9.601  67.032  1.00  0.00    -0.117 C  
HETATM   18  O   UNL     1      -7.036   9.681  67.275  1.00  0.00    -0.083 OA 
BRANCH  17  19
HETATM   19  C   UNL     1      -9.126   8.789  67.873  1.00  0.00    -0.145 A  
HETATM   20  C   UNL     1      -9.048   7.403  67.926  1.00  0.00    -0.129 A  
HETATM   21  N   UNL     1      -9.876   6.953  68.918  1.00  0.00    -0.146 NA 
HETATM   22  C   UNL     1     -10.525   8.011  69.488  1.00  0.00    -0.226 A  
HETATM   23  H   UNL     1      -9.992   5.977  69.190  1.00  0.00     0.000 HD 
HETATM   24  N   UNL     1     -11.354   7.918  70.543  1.00  0.00    -0.263 NA 
HETATM   25  C   UNL     1     -11.876   9.118  70.915  1.00  0.00    -0.270 A  
HETATM   26  C   UNL     1     -11.684  10.351  70.283  1.00  0.00    -0.406 A  
HETATM   27  C   UNL     1     -10.836  10.344  69.162  1.00  0.00    -0.274 A  
HETATM   28  C   UNL     1     -10.174   9.158  68.786  1.00  0.00    -0.228 A  
BRANCH  26  29
HETATM   29  C   UNL     1     -12.283  11.614  70.773  1.00  0.00    -0.443 A  
HETATM   30  C   UNL     1     -13.193  11.637  71.846  1.00  0.00    -0.475 A  
HETATM   31  C   UNL     1     -13.700  12.844  72.346  1.00  0.00    -0.530 A  
HETATM   32  C   UNL     1     -13.298  14.052  71.784  1.00  0.00    -0.386 A  
HETATM   33  C   UNL     1     -12.412  14.062  70.715  1.00  0.00    -0.442 A  
HETATM   34 CL   UNL     1     -13.889  15.537  72.418  1.00  0.00    -0.630 Cl 
HETATM   35  C   UNL     1     -11.920  12.854  70.210  1.00  0.00    -0.359 A  
ENDBRANCH  26  29
ENDBRANCH  17  19
ENDBRANCH  11  17
ENDBRANCH   7   9
ENDBRANCH   4   7
ENDBRANCH   3   4
ENDBRANCH   2   3
TORSDOF 7
ENDMDL
MODEL        5
REMARK 921   NORMALIZED FREE ENERGY PREDICTED BY IDOCK:   -7.74 KCAL/MOL
REMARK 922        TOTAL FREE ENERGY PREDICTED BY IDOCK:  -12.65 KCAL/MOL
REMARK 923 INTER-LIGAND FREE ENERGY PREDICTED BY IDOCK:  -11.04 KCAL/MOL
REMARK 924 INTRA-LIGAND FREE ENERGY PREDICTED BY IDOCK:   -1.62 KCAL/MOL
REMARK 927      BINDING AFFINITY PREDICTED BY RF-SCORE:    0.00 PKD
ROOT
HETATM    1  C   UNL     1      -6.231  19.742  69.144  1.00  0.00    -0.339 C  
HETATM    2  C   UNL     1      -7.248  18.719  68.666  1.00  0.00    -0.330 C  
ENDROOT
BRANCH   2   3
HETATM    3  C   UNL     1      -8.607  19.355  68.389  1.00  0.00    -0.360 C  
BRANCH   3   4
HETATM    4  S   UNL     1      -9.154  18.997  66.718  1.00  0.00    -0.332 S  
HETATM    5  O   UNL     1      -8.324  19.714  65.776  1.00  0.00    -0.408 OA 
HETATM    6  O   UNL     1     -10.594  19.074  66.680  1.00  0.00    -0.404 OA 
BRANCH   4   7
HETATM    7  N   UNL     1      -8.822  17.341  66.621  1.00  0.00    -0.243 N  
HETATM    8  H   UNL     1      -7.935  17.001  66.250  1.00  0.00     0.000 HD 
BRANCH   7   9
HETATM    9  C   UNL     1      -9.832  16.436  67.076  1.00  0.00    -0.251 A  
HETATM   10  C   UNL     1     -10.657  15.774  66.158  1.00  0.00    -0.313 A  
HETATM   11  C   UNL     1     -11.460  14.707  66.569  1.00  0.00    -0.354 A  
HETATM   12  F   UNL     1     -10.599  16.136  64.866  1.00  0.00    -0.400 F  
HETATM   13  C   UNL     1      -9.960  16.180  68.439  1.00  0.00    -0.230 A  
HETATM   14  C   UNL     1     -11.584  14.462  67.938  1.00  0.00    -0.345 A  
HETATM   15  C   UNL     1     -10.863  15.210  68.872  1.00  0.00    -0.241 A  
HETATM   16  F   UNL     1     -12.364  13.477  68.403  1.00  0.00    -0.373 F  
BRANCH  11  17
HETATM   17  C   UNL     1     -12.137  13.806  65.606  1.00  0.00    -0.418 C  
HETATM   18  O   UNL     1     -13.251  14.117  65.192  1.00  0.00    -0.743 OA 
BRANCH  17  19
HETATM   19  C   UNL     1     -11.473  12.582  65.139  1.00  0.00    -0.369 A  
HETATM   20  C   UNL     1     -11.071  12.403  63.822  1.00  0.00    -0.445 A  
HETATM   21  N   UNL     1     -10.335  11.252  63.739  1.00  0.00    -0.361 NA 
HETATM   22  C   UNL     1     -10.283  10.652  64.965  1.00  0.00    -0.310 A  
HETATM   23  H   UNL     1      -9.894  10.896  62.891  1.00  0.00     0.000 HD 
HETATM   24  N   UNL     1      -9.575   9.543  65.240  1.00  0.00    -0.281 NA 
HETATM   25  C   UNL     1      -9.695   9.145  66.536  1.00  0.00    -0.241 A  
HETATM   26  C   UNL     1     -10.500   9.724  67.522  1.00  0.00    -0.309 A  
HETATM   27  C   UNL     1     -11.237  10.856  67.131  1.00  0.00    -0.258 A  
HETATM   28  C   UNL     1     -11.078  11.387  65.835  1.00  0.00    -0.225 A  
BRANCH  26  29
HETATM   29  C   UNL     1     -10.553   9.231  68.918  1.00  0.00    -0.222 A  
HETATM   30  C   UNL     1     -10.925  10.067  69.987  1.00  0.00    -0.352 A  
HETATM   31  C   UNL     1     -11.039   9.573  71.293  1.00  0.00    -0.449 A  
HETATM   32  C   UNL     1     -10.790   8.229  71.552  1.00  0.00    -0.249 A  
HETATM   33  C   UNL     1     -10.408   7.381  70.520  1.00  0.00    -0.220 A  
HETATM   34 CL   UNL     1     -10.964   7.611  73.146  1.00  0.00    -0.452 Cl 
HETATM   35  C   UNL     1     -10.281   7.882  69.221  1.00  0.00    -0.216 A  
ENDBRANCH  26  29
ENDBRANCH  17  19
ENDBRANCH  11  17
ENDBRANCH   7   9
ENDBRANCH   4   7
ENDBRANCH   3   4
ENDBRANCH   2   3
TORSDOF 7
ENDMDL
MODEL        6
REMARK 921   NORMALIZED FREE ENERGY PREDICTED BY IDOCK:   -7.71 KCAL/MOL
REMARK 922        TOTAL FREE ENERGY PREDICTED BY IDOCK:  -12.62 KCAL/MOL
REMARK 923 INTER-LIGAND FREE ENERGY PREDICTED BY IDOCK:  -10.22 KCAL/MOL
REMARK 924 INTRA-LIGAND FREE ENERGY PREDICTED BY IDOCK:   -2.40 KCAL/MOL
REMARK 927      BINDING AFFINITY PREDICTED BY RF-SCORE:    0.00 PKD
ROOT
HETATM    1  C   UNL     1      -6.871   8.265  67.497  1.00  0.00    -0.070 C  
HETATM    2  C   UNL     1      -7.438   9.654  67.249  1.00  0.00    -0.088 C  
ENDROOT
BRANCH   2   3
HETATM    3  C   UNL     1      -7.284  10.078  65.792  1.00  0.00    -0.117 C  
BRANCH   3   4
HETATM    4  S   UNL     1      -8.779   9.731  64.862  1.00  0.00    -0.200 S  
HETATM    5  O   UNL     1      -9.841   9.371  65.774  1.00  0.00    -0.297 OA 
HETATM    6  O   UNL     1      -8.433   8.905  63.729  1.00  0.00    -0.186 OA 
BRANCH   4   7
HETATM    7  N   UNL     1      -9.098  11.249  64.189  1.00  0.00    -0.396 N  
HETATM    8  H   UNL     1      -8.504  11.637  63.455  1.00  0.00     0.000 HD 
BRANCH   7   9
HETATM    9  C   UNL     1     -10.228  11.969  64.686  1.00  0.00    -0.282 A  
HETATM   10  C   UNL     1     -10.100  12.813  65.797  1.00  0.00    -0.286 A  
HETATM   11  C   UNL     1     -11.120  13.709  66.127  1.00  0.00    -0.299 A  
HETATM   12  F   UNL     1      -8.947  12.797  66.484  1.00  0.00    -0.215 F  
HETATM   13  C   UNL     1     -11.452  11.863  64.029  1.00  0.00    -0.480 A  
HETATM   14  C   UNL     1     -12.344  13.590  65.465  1.00  0.00    -0.481 A  
HETATM   15  C   UNL     1     -12.522  12.655  64.442  1.00  0.00    -0.509 A  
HETATM   16  F   UNL     1     -13.376  14.394  65.757  1.00  0.00    -0.451 F  
BRANCH  11  17
HETATM   17  C   UNL     1     -10.930  14.801  67.111  1.00  0.00    -0.320 C  
HETATM   18  O   UNL     1     -10.334  15.815  66.756  1.00  0.00    -0.280 OA 
BRANCH  17  19
HETATM   19  C   UNL     1     -11.467  14.678  68.472  1.00  0.00    -0.327 A  
HETATM   20  C   UNL     1     -11.978  15.761  69.176  1.00  0.00    -0.296 A  
HETATM   21  N   UNL     1     -12.556  15.303  70.329  1.00  0.00    -0.545 NA 
HETATM   22  C   UNL     1     -12.398  13.948  70.414  1.00  0.00    -0.363 A  
HETATM   23  H   UNL     1     -13.031  15.883  71.020  1.00  0.00     0.000 HD 
HETATM   24  N   UNL     1     -12.917  13.181  71.389  1.00  0.00    -0.339 NA 
HETATM   25  C   UNL     1     -12.609  11.863  71.246  1.00  0.00    -0.277 A  
HETATM   26  C   UNL     1     -11.792  11.291  70.267  1.00  0.00    -0.446 A  
HETATM   27  C   UNL     1     -11.258  12.178  69.314  1.00  0.00    -0.288 A  
HETATM   28  C   UNL     1     -11.623  13.539  69.336  1.00  0.00    -0.369 A  
BRANCH  26  29
HETATM   29  C   UNL     1     -11.526   9.837  70.180  1.00  0.00    -0.272 A  
HETATM   30  C   UNL     1     -10.647   9.299  69.222  1.00  0.00    -0.234 A  
HETATM   31  C   UNL     1     -10.350   7.930  69.193  1.00  0.00    -0.225 A  
HETATM   32  C   UNL     1     -10.923   7.075  70.129  1.00  0.00    -0.272 A  
HETATM   33  C   UNL     1     -11.805   7.573  71.078  1.00  0.00    -0.319 A  
HETATM   34 CL   UNL     1     -10.533   5.400  70.120  1.00  0.00    -0.362 Cl 
HETATM   35  C   UNL     1     -12.110   8.938  71.095  1.00  0.00    -0.326 A  
ENDBRANCH  26  29
ENDBRANCH  17  19
ENDBRANCH  11  17
ENDBRANCH   7   9
ENDBRANCH   4   7
ENDBRANCH   3   4
ENDBRANCH   2   3
TORSDOF 7
ENDMDL
MODEL        7
REMARK 921   NORMALIZED FREE ENERGY PREDICTED BY IDOCK:   -7.68 KCAL/MOL
REMARK 922        TOTAL FREE ENERGY PREDICTED BY IDOCK:  -12.58 KCAL/MOL
REMARK 923 INTER-LIGAND FREE ENERGY PREDICTED BY IDOCK:  -11.97 KCAL/MOL
REMARK 924 INTRA-LIGAND FREE ENERGY PREDICTED BY IDOCK:   -0.61 KCAL/MOL
REMARK 927      BINDING AFFINITY PREDICTED BY RF-SCORE:    0.00 PKD
ROOT
HETATM    1  C   UNL     1     -12.433  15.526  74.062  1.00  0.00    -0.789 C  
HETATM    2  C   UNL     1     -12.082  14.995  72.681  1.00  0.00    -0.435 C  
ENDROOT
BRANCH   2   3
HETATM    3  C   UNL     1     -11.977  16.117  71.653  1.00  0.00    -0.462 C  
BRANCH   3   4
HETATM    4  S   UNL     1     -11.470  15.475  70.055  1.00  0.00    -0.365 S  
HETATM    5  O   UNL     1     -10.118  14.970  70.146  1.00  0.00    -0.099 OA 
HETATM    6  O   UNL     1     -11.865  16.417  69.036  1.00  0.00    -0.197 OA 
BRANCH   4   7
HETATM    7  N   UNL     1     -12.547  14.185  69.871  1.00  0.00    -0.435 N  
HETATM    8  H   UNL     1     -13.508  14.247  70.207  1.00  0.00     0.000 HD 
BRANCH   7   9
HETATM    9  C   UNL     1     -12.063  13.003  69.228  1.00  0.00    -0.200 A  
HETATM   10  C   UNL     1     -11.991  12.935  67.830  1.00  0.00    -0.282 A  
HETATM   11  C   UNL     1     -11.286  11.902  67.207  1.00  0.00    -0.393 A  
HETATM   12  F   UNL     1     -12.544  13.924  67.111  1.00  0.00    -0.374 F  
HETATM   13  C   UNL     1     -11.618  11.934  70.001  1.00  0.00    -0.301 A  
HETATM   14  C   UNL     1     -10.848  10.834  67.992  1.00  0.00    -0.255 A  
HETATM   15  C   UNL     1     -11.036  10.832  69.377  1.00  0.00    -0.324 A  
HETATM   16  F   UNL     1     -10.197   9.793  67.455  1.00  0.00    -0.216 F  
BRANCH  11  17
HETATM   17  C   UNL     1     -10.949  11.929  65.764  1.00  0.00    -0.311 C  
HETATM   18  O   UNL     1     -10.434  10.932  65.262  1.00  0.00    -0.271 OA 
BRANCH  17  19
HETATM   19  C   UNL     1     -11.252  13.113  64.951  1.00  0.00    -0.333 A  
HETATM   20  C   UNL     1     -12.068  13.063  63.829  1.00  0.00    -0.502 A  
HETATM   21  N   UNL     1     -12.298  14.341  63.395  1.00  0.00    -1.126 NA 
HETATM   22  C   UNL     1     -11.615  15.223  64.184  1.00  0.00    -0.067 A  
HETATM   23  H   UNL     1     -12.888  14.596  62.603  1.00  0.00     0.000 HD 
HETATM   24  N   UNL     1     -11.688  16.561  64.070  1.00  0.00    -1.064 NA 
HETATM   25  C   UNL     1     -10.906  17.213  64.973  1.00  0.00     0.073 A  
HETATM   26  C   UNL     1     -10.037  16.636  65.904  1.00  0.00    -0.341 A  
HETATM   27  C   UNL     1      -9.995  15.231  65.921  1.00  0.00    -0.368 A  
HETATM   28  C   UNL     1     -10.859  14.490  65.089  1.00  0.00    -0.407 A  
BRANCH  26  29
HETATM   29  C   UNL     1      -9.234  17.430  66.863  1.00  0.00    -0.266 A  
HETATM   30  C   UNL     1      -8.369  16.819  67.791  1.00  0.00    -0.193 A  
HETATM   31  C   UNL     1      -7.563  17.581  68.647  1.00  0.00    -0.273 A  
HETATM   32  C   UNL     1      -7.602  18.970  68.584  1.00  0.00    -0.337 A  
HETATM   33  C   UNL     1      -8.456  19.603  67.689  1.00  0.00    -0.358 A  
HETATM   34 CL   UNL     1      -6.588  19.909  69.607  1.00  0.00    -0.387 Cl 
HETATM   35  C   UNL     1      -9.269  18.838  66.846  1.00  0.00    -0.316 A  
ENDBRANCH  26  29
ENDBRANCH  17  19
ENDBRANCH  11  17
ENDBRANCH   7   9
ENDBRANCH   4   7
ENDBRANCH   3   4
ENDBRANCH   2   3
TORSDOF 7
ENDMDL
MODEL        8
REMARK 921   NORMALIZED FREE ENERGY PREDICTED BY IDOCK:   -7.62 KCAL/MOL
REMARK 922        TOTAL FREE ENERGY PREDICTED BY IDOCK:  -12.49 KCAL/MOL
REMARK 923 INTER-LIGAND FREE ENERGY PREDICTED BY IDOCK:  -10.30 KCAL/MOL
REMARK 924 INTRA-LIGAND FREE ENERGY PREDICTED BY IDOCK:   -2.19 KCAL/MOL
REMARK 927      BINDING AFFINITY PREDICTED BY RF-SCORE:    0.00 PKD
ROOT
HETATM    1  C   UNL     1     -12.252  13.275  63.385  1.00  0.00    -0.476 C  
HETATM    2  C   UNL     1     -11.825  11.843  63.666  1.00  0.00    -0.573 C  
ENDROOT
BRANCH   2   3
HETATM    3  C   UNL     1     -10.365  11.762  64.101  1.00  0.00    -0.331 C  
BRANCH   3   4
HETATM    4  S   UNL     1     -10.222  11.868  65.887  1.00  0.00    -0.245 S  
HETATM    5  O   UNL     1     -11.499  11.563  66.492  1.00  0.00    -0.404 OA 
HETATM    6  O   UNL     1      -9.488  13.067  66.218  1.00  0.00    -0.253 OA 
BRANCH   4   7
HETATM    7  N   UNL     1      -9.132  10.613  66.197  1.00  0.00    -0.164 N  
HETATM    8  H   UNL     1      -8.186  10.628  65.814  1.00  0.00     0.000 HD 
BRANCH   7   9
HETATM    9  C   UNL     1      -9.583   9.530  67.015  1.00  0.00    -0.164 A  
HETATM   10  C   UNL     1      -9.523   9.623  68.411  1.00  0.00    -0.137 A  
HETATM   11  C   UNL     1     -10.191   8.694  69.212  1.00  0.00    -0.215 A  
HETATM   12  F   UNL     1      -8.878  10.667  68.957  1.00  0.00    -0.139 F  
HETATM   13  C   UNL     1     -10.127   8.398  66.415  1.00  0.00    -0.242 A  
HETATM   14  C   UNL     1     -10.729   7.560  68.600  1.00  0.00    -0.077 A  
HETATM   15  C   UNL     1     -10.675   7.395  67.214  1.00  0.00    -0.379 A  
HETATM   16  F   UNL     1     -11.353   6.612  69.313  1.00  0.00    -0.319 F  
BRANCH  11  17
HETATM   17  C   UNL     1     -10.388   8.896  70.667  1.00  0.00    -0.215 C  
HETATM   18  O   UNL     1      -9.527   8.482  71.441  1.00  0.00    -0.173 OA 
BRANCH  17  19
HETATM   19  C   UNL     1     -11.575   9.601  71.167  1.00  0.00    -0.456 A  
HETATM   20  C   UNL     1     -12.491   9.010  72.028  1.00  0.00    -0.390 A  
HETATM   21  N   UNL     1     -13.379   9.962  72.448  1.00  0.00    -0.600 NA 
HETATM   22  C   UNL     1     -13.089  11.155  71.848  1.00  0.00    -0.408 A  
HETATM   23  H   UNL     1     -14.141   9.806  73.107  1.00  0.00     0.000 HD 
HETATM   24  N   UNL     1     -13.727  12.311  72.103  1.00  0.00    -0.280 NA 
HETATM   25  C   UNL     1     -13.251  13.353  71.369  1.00  0.00    -0.250 A  
HETATM   26  C   UNL     1     -12.261  13.303  70.382  1.00  0.00    -0.404 A  
HETATM   27  C   UNL     1     -11.681  12.043  70.153  1.00  0.00    -0.316 A  
HETATM   28  C   UNL     1     -12.048  10.942  70.953  1.00  0.00    -0.455 A  
BRANCH  26  29
HETATM   29  C   UNL     1     -11.794  14.498  69.643  1.00  0.00    -0.367 A  
HETATM   30  C   UNL     1     -11.200  15.593  70.300  1.00  0.00    -0.357 A  
HETATM   31  C   UNL     1     -10.698  16.688  69.584  1.00  0.00    -0.286 A  
HETATM   32  C   UNL     1     -10.775  16.704  68.195  1.00  0.00    -0.349 A  
HETATM   33  C   UNL     1     -11.367  15.645  67.518  1.00  0.00    -0.198 A  
HETATM   34 CL   UNL     1     -10.128  18.029  67.311  1.00  0.00    -0.327 Cl 
HETATM   35  C   UNL     1     -11.879  14.561  68.238  1.00  0.00    -0.347 A  
ENDBRANCH  26  29
ENDBRANCH  17  19
ENDBRANCH  11  17
ENDBRANCH   7   9
ENDBRANCH   4   7
ENDBRANCH   3   4
ENDBRANCH   2   3
TORSDOF 7
ENDMDL
MODEL        9
REMARK 921   NORMALIZED FREE ENERGY PREDICTED BY IDOCK:   -7.59 KCAL/MOL
REMARK 922        TOTAL FREE ENERGY PREDICTED BY IDOCK:  -12.44 KCAL/MOL
REMARK 923 INTER-LIGAND FREE ENERGY PREDICTED BY IDOCK:  -10.42 KCAL/MOL
REMARK 924 INTRA-LIGAND FREE ENERGY PREDICTED BY IDOCK:   -2.03 KCAL/MOL
REMARK 927      BINDING AFFINITY PREDICTED BY RF-SCORE:    0.00 PKD
ROOT
HETATM    1  C   UNL     1     -12.228  14.765  70.963  1.00  0.00    -0.393 C  
HETATM    2  C   UNL     1     -12.270  13.354  70.396  1.00  0.00    -0.415 C  
ENDROOT
BRANCH   2   3
HETATM    3  C   UNL     1     -12.651  12.328  71.458  1.00  0.00    -0.152 C  
BRANCH   3   4
HETATM    4  S   UNL     1     -12.491  10.657  70.821  1.00  0.00    -0.414 S  
HETATM    5  O   UNL     1     -13.402  10.476  69.714  1.00  0.00     0.092 OA 
HETATM    6  O   UNL     1     -12.454   9.743  71.937  1.00  0.00    -0.381 OA 
BRANCH   4   7
HETATM    7  N   UNL     1     -10.900  10.683  70.249  1.00  0.00    -0.459 N  
HETATM    8  H   UNL     1     -10.169  11.196  70.743  1.00  0.00     0.000 HD 
BRANCH   7   9
HETATM    9  C   UNL     1     -10.616   9.960  69.049  1.00  0.00    -0.220 A  
HETATM   10  C   UNL     1     -10.357  10.643  67.853  1.00  0.00    -0.199 A  
HETATM   11  C   UNL     1      -9.830   9.966  66.751  1.00  0.00    -0.256 A  
HETATM   12  F   UNL     1     -10.551  11.971  67.819  1.00  0.00    -0.197 F  
HETATM   13  C   UNL     1     -10.553   8.569  69.084  1.00  0.00    -0.188 A  
HETATM   14  C   UNL     1      -9.775   8.571  66.796  1.00  0.00    -0.236 A  
HETATM   15  C   UNL     1     -10.160   7.872  67.942  1.00  0.00    -0.240 A  
HETATM   16  F   UNL     1      -9.314   7.857  65.761  1.00  0.00    -0.193 F  
BRANCH  11  17
HETATM   17  C   UNL     1      -9.287  10.676  65.568  1.00  0.00    -0.205 C  
HETATM   18  O   UNL     1      -8.082  10.597  65.337  1.00  0.00    -0.156 OA 
BRANCH  17  19
HETATM   19  C   UNL     1     -10.178  11.434  64.681  1.00  0.00    -0.347 A  
HETATM   20  C   UNL     1     -10.857  10.846  63.621  1.00  0.00     0.073 A  
HETATM   21  N   UNL     1     -11.732  11.760  63.098  1.00  0.00    -0.846 NA 
HETATM   22  C   UNL     1     -11.610  12.945  63.767  1.00  0.00    -0.475 A  
HETATM   23  H   UNL     1     -12.376  11.584  62.328  1.00  0.00     0.000 HD 
HETATM   24  N   UNL     1     -12.380  14.026  63.548  1.00  0.00    -0.750 NA 
HETATM   25  C   UNL     1     -12.051  15.081  64.342  1.00  0.00    -0.359 A  
HETATM   26  C   UNL     1     -10.999  15.147  65.260  1.00  0.00    -0.405 A  
HETATM   27  C   UNL     1     -10.220  13.983  65.390  1.00  0.00    -0.368 A  
HETATM   28  C   UNL     1     -10.571  12.817  64.680  1.00  0.00    -0.371 A  
BRANCH  26  29
HETATM   29  C   UNL     1     -10.727  16.338  66.097  1.00  0.00    -0.198 A  
HETATM   30  C   UNL     1     -10.561  17.618  65.535  1.00  0.00    -0.072 A  
HETATM   31  C   UNL     1     -10.373  18.749  66.341  1.00  0.00    -0.489 A  
HETATM   32  C   UNL     1     -10.356  18.619  67.726  1.00  0.00    -0.410 A  
HETATM   33  C   UNL     1     -10.503  17.368  68.311  1.00  0.00    -0.385 A  
HETATM   34 CL   UNL     1     -10.162  20.009  68.720  1.00  0.00    -0.503 Cl 
HETATM   35  C   UNL     1     -10.677  16.240  67.502  1.00  0.00    -0.300 A  
ENDBRANCH  26  29
ENDBRANCH  17  19
ENDBRANCH  11  17
ENDBRANCH   7   9
ENDBRANCH   4   7
ENDBRANCH   3   4
ENDBRANCH   2   3
TORSDOF 7
ENDMDL
MODEL       10
REMARK 921   NORMALIZED FREE ENERGY PREDICTED BY IDOCK:   -7.53 KCAL/MOL
REMARK 922        TOTAL FREE ENERGY PREDICTED BY IDOCK:  -12.36 KCAL/MOL
REMARK 923 INTER-LIGAND FREE ENERGY PREDICTED BY IDOCK:  -10.63 KCAL/MOL
REMARK 924 INTRA-LIGAND FREE ENERGY PREDICTED BY IDOCK:   -1.73 KCAL/MOL
REMARK 927      BINDING AFFINITY PREDICTED BY RF-SCORE:    0.00 PKD
ROOT
HETATM    1  C   UNL     1     -12.444  10.264  71.092  1.00  0.00    -0.495 C  
HETATM    2  C   UNL     1     -11.293   9.295  70.876  1.00  0.00    -0.373 C  
ENDROOT
BRANCH   2   3
HETATM    3  C   UNL     1     -11.736   7.844  71.035  1.00  0.00    -0.277 C  
BRANCH   3   4
HETATM    4  S   UNL     1     -10.672   6.743  70.098  1.00  0.00    -0.250 S  
HETATM    5  O   UNL     1     -10.856   5.386  70.563  1.00  0.00    -0.239 OA 
HETATM    6  O   UNL     1      -9.365   7.345  69.997  1.00  0.00    -0.152 OA 
BRANCH   4   7
HETATM    7  N   UNL     1     -11.328   6.906  68.548  1.00  0.00    -0.527 N  
HETATM    8  H   UNL     1     -12.336   6.877  68.395  1.00  0.00     0.000 HD 
BRANCH   7   9
HETATM    9  C   UNL     1     -10.418   7.086  67.459  1.00  0.00    -0.250 A  
HETATM   10  C   UNL     1     -10.228   8.354  66.896  1.00  0.00    -0.313 A  
HETATM   11  C   UNL     1      -9.166   8.588  66.019  1.00  0.00    -0.262 A  
HETATM   12  F   UNL     1     -11.038   9.354  67.280  1.00  0.00    -0.317 F  
HETATM   13  C   UNL     1      -9.686   5.998  66.990  1.00  0.00    -0.159 A  
HETATM   14  C   UNL     1      -8.441   7.489  65.553  1.00  0.00    -0.119 A  
HETATM   15  C   UNL     1      -8.714   6.198  66.010  1.00  0.00    -0.157 A  
HETATM   16  F   UNL     1      -7.432   7.637  64.683  1.00  0.00    -0.073 F  
BRANCH  11  17
HETATM   17  C   UNL     1      -8.757   9.953  65.612  1.00  0.00    -0.151 C  
HETATM   18  O   UNL     1      -7.594  10.301  65.805  1.00  0.00    -0.131 OA 
BRANCH  17  19
HETATM   19  C   UNL     1      -9.719  10.857  64.970  1.00  0.00    -0.319 A  
HETATM   20  C   UNL     1     -10.084  10.737  63.635  1.00  0.00    -0.312 A  
HETATM   21  N   UNL     1     -11.114  11.602  63.381  1.00  0.00    -0.662 NA 
HETATM   22  C   UNL     1     -11.403  12.315  64.510  1.00  0.00    -0.329 A  
HETATM   23  H   UNL     1     -11.593  11.700  62.486  1.00  0.00     0.000 HD 
HETATM   24  N   UNL     1     -12.414  13.195  64.617  1.00  0.00    -0.587 NA 
HETATM   25  C   UNL     1     -12.484  13.775  65.846  1.00  0.00    -0.468 A  
HETATM   26  C   UNL     1     -11.601  13.590  66.915  1.00  0.00    -0.398 A  
HETATM   27  C   UNL     1     -10.549  12.684  66.696  1.00  0.00    -0.267 A  
HETATM   28  C   UNL     1     -10.479  11.964  65.486  1.00  0.00    -0.309 A  
BRANCH  26  29
HETATM   29  C   UNL     1     -11.768  14.255  68.228  1.00  0.00    -0.377 A  
HETATM   30  C   UNL     1     -12.262  13.566  69.351  1.00  0.00    -0.278 A  
HETATM   31  C   UNL     1     -12.350  14.185  70.605  1.00  0.00    -0.435 A  
HETATM   32  C   UNL     1     -11.938  15.505  70.759  1.00  0.00    -0.378 A  
HETATM   33  C   UNL     1     -11.459  16.216  69.666  1.00  0.00    -0.290 A  
HETATM   34 CL   UNL     1     -12.011  16.257  72.303  1.00  0.00    -0.614 Cl 
HETATM   35  C   UNL     1     -11.386  15.599  68.414  1.00  0.00    -0.365 A  
ENDBRANCH  26  29
ENDBRANCH  17  19
ENDBRANCH  11  17
ENDBRANCH   7   9
ENDBRANCH   4   7
ENDBRANCH   3   4
ENDBRANCH   2   3
TORSDOF 7
ENDMDL
MODEL       11
REMARK 921   NORMALIZED FREE ENERGY PREDICTED BY IDOCK:   -7.43 KCAL/MOL
REMARK 922        TOTAL FREE ENERGY PREDICTED BY IDOCK:  -12.22 KCAL/MOL
REMARK 923 INTER-LIGAND FREE ENERGY PREDICTED BY IDOCK:  -10.58 KCAL/MOL
REMARK 924 INTRA-LIGAND FREE ENERGY PREDICTED BY IDOCK:   -1.65 KCAL/MOL
REMARK 927      BINDING AFFINITY PREDICTED BY RF-SCORE:    0.00 PKD
ROOT
HETATM    1  C   UNL     1     -10.487   6.599  73.924  1.00  0.00    -0.351 C  
HETATM    2  C   UNL     1     -10.699   7.628  72.825  1.00  0.00    -0.401 C  
ENDROOT
BRANCH   2   3
HETATM    3  C   UNL     1     -11.658   7.123  71.752  1.00  0.00    -0.280 C  
BRANCH   3   4
HETATM    4  S   UNL     1     -10.842   7.028  70.156  1.00  0.00    -0.267 S  
HETATM    5  O   UNL     1     -11.588   6.148  69.285  1.00  0.00    -0.329 OA 
HETATM    6  O   UNL     1      -9.425   6.862  70.375  1.00  0.00    -0.168 OA 
BRANCH   4   7
HETATM    7  N   UNL     1     -10.997   8.624  69.621  1.00  0.00    -0.398 N  
HETATM    8  H   UNL     1     -11.810   9.188  69.871  1.00  0.00     0.000 HD 
BRANCH   7   9
HETATM    9  C   UNL     1      -9.949   9.155  68.805  1.00  0.00    -0.176 A  
HETATM   10  C   UNL     1     -10.025   9.072  67.409  1.00  0.00    -0.209 A  
HETATM   11  C   UNL     1      -9.148   9.805  66.607  1.00  0.00    -0.174 A  
HETATM   12  F   UNL     1     -11.008   8.337  66.863  1.00  0.00    -0.356 F  
HETATM   13  C   UNL     1      -8.870   9.797  69.407  1.00  0.00    -0.188 A  
HETATM   14  C   UNL     1      -8.068  10.442  67.221  1.00  0.00    -0.114 A  
HETATM   15  C   UNL     1      -7.910  10.417  68.609  1.00  0.00    -0.108 A  
HETATM   16  F   UNL     1      -7.168  11.135  66.508  1.00  0.00    -0.124 F  
BRANCH  11  17
HETATM   17  C   UNL     1      -9.354   9.969  65.148  1.00  0.00    -0.245 C  
HETATM   18  O   UNL     1      -8.815   9.170  64.385  1.00  0.00    -0.191 OA 
BRANCH  17  19
HETATM   19  C   UNL     1     -10.207  11.048  64.633  1.00  0.00    -0.392 A  
HETATM   20  C   UNL     1     -10.616  11.112  63.308  1.00  0.00    -0.196 A  
HETATM   21  N   UNL     1     -11.532  12.120  63.178  1.00  0.00    -0.706 NA 
HETATM   22  C   UNL     1     -11.700  12.744  64.382  1.00  0.00    -0.368 A  
HETATM   23  H   UNL     1     -12.015  12.368  62.315  1.00  0.00     0.000 HD 
HETATM   24  N   UNL     1     -12.587  13.728  64.612  1.00  0.00    -0.652 NA 
HETATM   25  C   UNL     1     -12.552  14.184  65.894  1.00  0.00    -0.417 A  
HETATM   26  C   UNL     1     -11.676  13.782  66.906  1.00  0.00    -0.424 A  
HETATM   27  C   UNL     1     -10.754  12.777  66.561  1.00  0.00    -0.277 A  
HETATM   28  C   UNL     1     -10.806  12.182  65.284  1.00  0.00    -0.336 A  
BRANCH  26  29
HETATM   29  C   UNL     1     -11.724  14.324  68.283  1.00  0.00    -0.377 A  
HETATM   30  C   UNL     1     -11.434  15.673  68.561  1.00  0.00    -0.380 A  
HETATM   31  C   UNL     1     -11.550  16.192  69.857  1.00  0.00    -0.244 A  
HETATM   32  C   UNL     1     -11.967  15.371  70.899  1.00  0.00    -0.359 A  
HETATM   33  C   UNL     1     -12.248  14.032  70.661  1.00  0.00    -0.442 A  
HETATM   34 CL   UNL     1     -12.146  16.012  72.484  1.00  0.00    -0.586 Cl 
HETATM   35  C   UNL     1     -12.117  13.514  69.368  1.00  0.00    -0.340 A  
ENDBRANCH  26  29
ENDBRANCH  17  19
ENDBRANCH  11  17
ENDBRANCH   7   9
ENDBRANCH   4   7
ENDBRANCH   3   4
ENDBRANCH   2   3
TORSDOF 7
ENDMDL
MODEL       12
REMARK 921   NORMALIZED FREE ENERGY PREDICTED BY IDOCK:   -7.42 KCAL/MOL
REMARK 922        TOTAL FREE ENERGY PREDICTED BY IDOCK:  -12.21 KCAL/MOL
REMARK 923 INTER-LIGAND FREE ENERGY PREDICTED BY IDOCK:  -10.37 KCAL/MOL
REMARK 924 INTRA-LIGAND FREE ENERGY PREDICTED BY IDOCK:   -1.84 KCAL/MOL
REMARK 927      BINDING AFFINITY PREDICTED BY RF-SCORE:    0.00 PKD
ROOT
HETATM    1  C   UNL     1      -9.902  20.371  67.351  1.00  0.00    -0.587 C  
HETATM    2  C   UNL     1      -8.882  19.916  66.320  1.00  0.00    -0.402 C  
ENDROOT
BRANCH   2   3
HETATM    3  C   UNL     1      -7.451  20.128  66.806  1.00  0.00    -0.279 C  
BRANCH   3   4
HETATM    4  S   UNL     1      -6.756  18.597  67.435  1.00  0.00    -0.203 S  
HETATM    5  O   UNL     1      -7.170  18.408  68.807  1.00  0.00    -0.273 OA 
HETATM    6  O   UNL     1      -5.370  18.527  67.040  1.00  0.00    -0.131 OA 
BRANCH   4   7
HETATM    7  N   UNL     1      -7.529  17.464  66.447  1.00  0.00    -0.277 N  
HETATM    8  H   UNL     1      -7.665  17.637  65.450  1.00  0.00     0.000 HD 
BRANCH   7   9
HETATM    9  C   UNL     1      -7.986  16.254  67.058  1.00  0.00    -0.213 A  
HETATM   10  C   UNL     1      -9.335  16.100  67.404  1.00  0.00    -0.217 A  
HETATM   11  C   UNL     1      -9.836  14.845  67.757  1.00  0.00    -0.217 A  
HETATM   12  F   UNL     1     -10.147  17.166  67.311  1.00  0.00    -0.263 F  
HETATM   13  C   UNL     1      -7.090  15.210  67.266  1.00  0.00    -0.161 A  
HETATM   14  C   UNL     1      -8.928  13.806  67.967  1.00  0.00    -0.187 A  
HETATM   15  C   UNL     1      -7.560  13.990  67.752  1.00  0.00    -0.177 A  
HETATM   16  F   UNL     1      -9.337  12.585  68.341  1.00  0.00    -0.196 F  
BRANCH  11  17
HETATM   17  C   UNL     1     -11.289  14.572  67.866  1.00  0.00    -0.310 C  
HETATM   18  O   UNL     1     -11.900  14.228  66.856  1.00  0.00    -0.398 OA 
BRANCH  17  19
HETATM   19  C   UNL     1     -11.973  14.686  69.160  1.00  0.00    -0.329 A  
HETATM   20  C   UNL     1     -12.491  15.885  69.631  1.00  0.00     0.134 A  
HETATM   21  N   UNL     1     -13.213  15.636  70.767  1.00  0.00    -0.728 NA 
HETATM   22  C   UNL     1     -13.144  14.306  71.072  1.00  0.00    -0.328 A  
HETATM   23  H   UNL     1     -13.724  16.336  71.304  1.00  0.00     0.000 HD 
HETATM   24  N   UNL     1     -13.806  13.723  72.087  1.00  0.00    -0.515 NA 
HETATM   25  C   UNL     1     -13.562  12.387  72.180  1.00  0.00    -0.306 A  
HETATM   26  C   UNL     1     -12.680  11.636  71.396  1.00  0.00    -0.445 A  
HETATM   27  C   UNL     1     -11.999  12.341  70.387  1.00  0.00    -0.349 A  
HETATM   28  C   UNL     1     -12.285  13.703  70.163  1.00  0.00    -0.413 A  
BRANCH  26  29
HETATM   29  C   UNL     1     -12.492  10.177  71.559  1.00  0.00    -0.526 A  
HETATM   30  C   UNL     1     -11.218   9.580  71.495  1.00  0.00    -0.437 A  
HETATM   31  C   UNL     1     -11.044   8.208  71.720  1.00  0.00    -0.329 A  
HETATM   32  C   UNL     1     -12.142   7.408  72.021  1.00  0.00    -0.289 A  
HETATM   33  C   UNL     1     -13.413   7.964  72.078  1.00  0.00    -0.258 A  
HETATM   34 CL   UNL     1     -11.927   5.732  72.333  1.00  0.00    -0.265 Cl 
HETATM   35  C   UNL     1     -13.585   9.332  71.839  1.00  0.00    -0.494 A  
ENDBRANCH  26  29
ENDBRANCH  17  19
ENDBRANCH  11  17
ENDBRANCH   7   9
ENDBRANCH   4   7
ENDBRANCH   3   4
ENDBRANCH   2   3
TORSDOF 7
ENDMDL
MODEL       13
REMARK 921   NORMALIZED FREE ENERGY PREDICTED BY IDOCK:   -7.41 KCAL/MOL
REMARK 922        TOTAL FREE ENERGY PREDICTED BY IDOCK:  -12.19 KCAL/MOL
REMARK 923 INTER-LIGAND FREE ENERGY PREDICTED BY IDOCK:  -10.75 KCAL/MOL
REMARK 924 INTRA-LIGAND FREE ENERGY PREDICTED BY IDOCK:   -1.45 KCAL/MOL
REMARK 927      BINDING AFFINITY PREDICTED BY RF-SCORE:    0.00 PKD
ROOT
HETATM    1  C   UNL     1     -10.614  19.833  65.822  1.00  0.00    -0.522 C  
HETATM    2  C   UNL     1      -9.164  19.493  66.124  1.00  0.00    -0.363 C  
ENDROOT
BRANCH   2   3
HETATM    3  C   UNL     1      -8.946  19.203  67.606  1.00  0.00    -0.298 C  
BRANCH   3   4
HETATM    4  S   UNL     1      -9.277  17.478  67.977  1.00  0.00    -0.283 S  
HETATM    5  O   UNL     1     -10.674  17.317  68.310  1.00  0.00    -0.373 OA 
HETATM    6  O   UNL     1      -8.225  16.984  68.833  1.00  0.00    -0.254 OA 
BRANCH   4   7
HETATM    7  N   UNL     1      -8.964  16.762  66.477  1.00  0.00    -0.253 N  
HETATM    8  H   UNL     1      -8.183  17.071  65.897  1.00  0.00     0.000 HD 
BRANCH   7   9
HETATM    9  C   UNL     1      -9.833  15.710  66.051  1.00  0.00    -0.333 A  
HETATM   10  C   UNL     1      -9.821  14.471  66.704  1.00  0.00    -0.273 A  
HETATM   11  C   UNL     1     -10.833  13.537  66.470  1.00  0.00    -0.283 A  
HETATM   12  F   UNL     1      -8.863  14.237  67.616  1.00  0.00    -0.166 F  
HETATM   13  C   UNL     1     -10.728  15.939  65.008  1.00  0.00    -0.426 A  
HETATM   14  C   UNL     1     -11.721  13.775  65.420  1.00  0.00    -0.335 A  
HETATM   15  C   UNL     1     -11.655  14.954  64.673  1.00  0.00    -0.395 A  
HETATM   16  F   UNL     1     -12.694  12.904  65.117  1.00  0.00    -0.512 F  
BRANCH  11  17
HETATM   17  C   UNL     1     -11.020  12.339  67.323  1.00  0.00    -0.256 C  
HETATM   18  O   UNL     1     -10.678  11.244  66.882  1.00  0.00    -0.247 OA 
BRANCH  17  19
HETATM   19  C   UNL     1     -11.579  12.469  68.674  1.00  0.00    -0.357 A  
HETATM   20  C   UNL     1     -12.155  13.644  69.138  1.00  0.00    -0.319 A  
HETATM   21  N   UNL     1     -12.733  13.401  70.355  1.00  0.00    -0.136 NA 
HETATM   22  C   UNL     1     -12.513  12.102  70.715  1.00  0.00    -0.271 A  
HETATM   23  H   UNL     1     -13.250  14.084  70.907  1.00  0.00     0.000 HD 
HETATM   24  N   UNL     1     -13.014  11.523  71.821  1.00  0.00    -0.438 NA 
HETATM   25  C   UNL     1     -12.640  10.221  71.953  1.00  0.00    -0.318 A  
HETATM   26  C   UNL     1     -11.777   9.505  71.119  1.00  0.00    -0.438 A  
HETATM   27  C   UNL     1     -11.267  10.205  70.011  1.00  0.00    -0.361 A  
HETATM   28  C   UNL     1     -11.697  11.522  69.751  1.00  0.00    -0.426 A  
BRANCH  26  29
HETATM   29  C   UNL     1     -11.440   8.078  71.333  1.00  0.00    -0.293 A  
HETATM   30  C   UNL     1     -11.223   7.197  70.256  1.00  0.00    -0.309 A  
HETATM   31  C   UNL     1     -10.838   5.867  70.470  1.00  0.00    -0.366 A  
HETATM   32  C   UNL     1     -10.654   5.396  71.766  1.00  0.00    -0.222 A  
HETATM   33  C   UNL     1     -10.874   6.237  72.849  1.00  0.00    -0.284 A  
HETATM   34 CL   UNL     1     -10.146   3.776  72.031  1.00  0.00    -0.237 Cl 
HETATM   35  C   UNL     1     -11.272   7.560  72.632  1.00  0.00    -0.399 A  
ENDBRANCH  26  29
ENDBRANCH  17  19
ENDBRANCH  11  17
ENDBRANCH   7   9
ENDBRANCH   4   7
ENDBRANCH   3   4
ENDBRANCH   2   3
TORSDOF 7
ENDMDL
MODEL       14
REMARK 921   NORMALIZED FREE ENERGY PREDICTED BY IDOCK:   -7.39 KCAL/MOL
REMARK 922        TOTAL FREE ENERGY PREDICTED BY IDOCK:  -12.16 KCAL/MOL
REMARK 923 INTER-LIGAND FREE ENERGY PREDICTED BY IDOCK:   -9.87 KCAL/MOL
REMARK 924 INTRA-LIGAND FREE ENERGY PREDICTED BY IDOCK:   -2.29 KCAL/MOL
REMARK 927      BINDING AFFINITY PREDICTED BY RF-SCORE:    0.00 PKD
ROOT
HETATM    1  C   UNL     1     -10.722  12.239  63.676  1.00  0.00    -0.513 C  
HETATM    2  C   UNL     1     -10.700  11.298  64.871  1.00  0.00    -0.337 C  
ENDROOT
BRANCH   2   3
HETATM    3  C   UNL     1      -9.689  10.172  64.688  1.00  0.00    -0.309 C  
BRANCH   3   4
HETATM    4  S   UNL     1      -8.216  10.467  65.671  1.00  0.00    -0.160 S  
HETATM    5  O   UNL     1      -8.429  11.614  66.524  1.00  0.00    -0.172 OA 
HETATM    6  O   UNL     1      -7.062  10.358  64.813  1.00  0.00    -0.120 OA 
BRANCH   4   7
HETATM    7  N   UNL     1      -8.172   9.061  66.611  1.00  0.00    -0.117 N  
HETATM    8  H   UNL     1      -7.976   8.152  66.192  1.00  0.00     0.000 HD 
BRANCH   7   9
HETATM    9  C   UNL     1      -8.418   9.194  68.013  1.00  0.00    -0.121 A  
HETATM   10  C   UNL     1      -9.715   9.046  68.523  1.00  0.00    -0.159 A  
HETATM   11  C   UNL     1      -9.925   8.916  69.898  1.00  0.00    -0.197 A  
HETATM   12  F   UNL     1     -10.737   8.952  67.657  1.00  0.00    -0.304 F  
HETATM   13  C   UNL     1      -7.352   9.426  68.878  1.00  0.00    -0.073 A  
HETATM   14  C   UNL     1      -8.849   9.155  70.756  1.00  0.00    -0.239 A  
HETATM   15  C   UNL     1      -7.576   9.437  70.254  1.00  0.00    -0.143 A  
HETATM   16  F   UNL     1      -8.988   9.083  72.087  1.00  0.00    -0.285 F  
BRANCH  11  17
HETATM   17  C   UNL     1     -11.225   8.489  70.466  1.00  0.00    -0.242 C  
HETATM   18  O   UNL     1     -11.527   7.299  70.415  1.00  0.00    -0.284 OA 
BRANCH  17  19
HETATM   19  C   UNL     1     -12.119   9.468  71.098  1.00  0.00    -0.429 A  
HETATM   20  C   UNL     1     -12.954   9.144  72.159  1.00  0.00    -0.425 A  
HETATM   21  N   UNL     1     -13.524  10.293  72.637  1.00  0.00    -0.401 NA 
HETATM   22  C   UNL     1     -13.111  11.356  71.885  1.00  0.00    -0.400 A  
HETATM   23  H   UNL     1     -14.159  10.347  73.433  1.00  0.00     0.000 HD 
HETATM   24  N   UNL     1     -13.430  12.638  72.139  1.00  0.00    -0.531 NA 
HETATM   25  C   UNL     1     -12.897  13.505  71.237  1.00  0.00    -0.338 A  
HETATM   26  C   UNL     1     -12.149  13.183  70.100  1.00  0.00    -0.392 A  
HETATM   27  C   UNL     1     -11.902  11.814  69.892  1.00  0.00    -0.423 A  
HETATM   28  C   UNL     1     -12.331  10.868  70.846  1.00  0.00    -0.501 A  
BRANCH  26  29
HETATM   29  C   UNL     1     -11.592  14.201  69.180  1.00  0.00    -0.349 A  
HETATM   30  C   UNL     1     -11.311  13.909  67.832  1.00  0.00    -0.320 A  
HETATM   31  C   UNL     1     -10.850  14.898  66.953  1.00  0.00    -0.319 A  
HETATM   32  C   UNL     1     -10.669  16.201  67.406  1.00  0.00    -0.291 A  
HETATM   33  C   UNL     1     -10.924  16.517  68.734  1.00  0.00    -0.330 A  
HETATM   34 CL   UNL     1     -10.138  17.425  66.322  1.00  0.00    -0.323 Cl 
HETATM   35  C   UNL     1     -11.371  15.524  69.611  1.00  0.00    -0.319 A  
ENDBRANCH  26  29
ENDBRANCH  17  19
ENDBRANCH  11  17
ENDBRANCH   7   9
ENDBRANCH   4   7
ENDBRANCH   3   4
ENDBRANCH   2   3
TORSDOF 7
ENDMDL
MODEL       15
REMARK 921   NORMALIZED FREE ENERGY PREDICTED BY IDOCK:   -7.37 KCAL/MOL
REMARK 922        TOTAL FREE ENERGY PREDICTED BY IDOCK:  -12.14 KCAL/MOL
REMARK 923 INTER-LIGAND FREE ENERGY PREDICTED BY IDOCK:  -10.31 KCAL/MOL
REMARK 924 INTRA-LIGAND FREE ENERGY PREDICTED BY IDOCK:   -1.83 KCAL/MOL
REMARK 927      BINDING AFFINITY PREDICTED BY RF-SCORE:    0.00 PKD
ROOT
HETATM    1  C   UNL     1     -10.310   7.997  72.681  1.00  0.00    -0.398 C  
HETATM    2  C   UNL     1     -11.415   7.906  71.641  1.00  0.00    -0.304 C  
ENDROOT
BRANCH   2   3
HETATM    3  C   UNL     1     -11.336   6.610  70.841  1.00  0.00    -0.325 C  
BRANCH   3   4
HETATM    4  S   UNL     1     -10.508   6.874  69.272  1.00  0.00    -0.224 S  
HETATM    5  O   UNL     1     -10.991   5.915  68.304  1.00  0.00    -0.274 OA 
HETATM    6  O   UNL     1      -9.099   7.061  69.523  1.00  0.00    -0.146 OA 
BRANCH   4   7
HETATM    7  N   UNL     1     -11.068   8.418  68.869  1.00  0.00    -0.405 N  
HETATM    8  H   UNL     1     -12.051   8.667  68.974  1.00  0.00     0.000 HD 
BRANCH   7   9
HETATM    9  C   UNL     1     -10.113   9.362  68.377  1.00  0.00    -0.185 A  
HETATM   10  C   UNL     1      -9.803   9.411  67.011  1.00  0.00    -0.201 A  
HETATM   11  C   UNL     1      -9.078  10.484  66.488  1.00  0.00    -0.175 A  
HETATM   12  F   UNL     1     -10.286   8.449  66.209  1.00  0.00    -0.350 F  
HETATM   13  C   UNL     1      -9.523  10.265  69.258  1.00  0.00    -0.230 A  
HETATM   14  C   UNL     1      -8.489  11.382  67.381  1.00  0.00    -0.143 A  
HETATM   15  C   UNL     1      -8.684  11.260  68.759  1.00  0.00    -0.105 A  
HETATM   16  F   UNL     1      -7.752  12.414  66.949  1.00  0.00    -0.150 F  
BRANCH  11  17
HETATM   17  C   UNL     1      -8.959  10.726  65.031  1.00  0.00    -0.194 C  
HETATM   18  O   UNL     1      -7.969  10.296  64.442  1.00  0.00    -0.160 OA 
BRANCH  17  19
HETATM   19  C   UNL     1     -10.016  11.442  64.306  1.00  0.00    -0.329 A  
HETATM   20  C   UNL     1     -10.781  10.844  63.313  1.00  0.00     0.147 A  
HETATM   21  N   UNL     1     -11.786  11.702  62.955  1.00  0.00    -0.851 NA 
HETATM   22  C   UNL     1     -11.670  12.865  63.663  1.00  0.00    -0.508 A  
HETATM   23  H   UNL     1     -12.510  11.504  62.265  1.00  0.00     0.000 HD 
HETATM   24  N   UNL     1     -12.544  13.884  63.601  1.00  0.00    -0.794 NA 
HETATM   25  C   UNL     1     -12.197  14.930  64.400  1.00  0.00    -0.381 A  
HETATM   26  C   UNL     1     -11.040  15.046  65.177  1.00  0.00    -0.408 A  
HETATM   27  C   UNL     1     -10.163  13.948  65.146  1.00  0.00    -0.382 A  
HETATM   28  C   UNL     1     -10.512  12.787  64.427  1.00  0.00    -0.410 A  
BRANCH  26  29
HETATM   29  C   UNL     1     -10.754  16.220  66.033  1.00  0.00    -0.217 A  
HETATM   30  C   UNL     1     -10.590  17.510  65.494  1.00  0.00    -0.097 A  
HETATM   31  C   UNL     1     -10.388  18.625  66.319  1.00  0.00    -0.483 A  
HETATM   32  C   UNL     1     -10.355  18.470  67.701  1.00  0.00    -0.410 A  
HETATM   33  C   UNL     1     -10.499  17.208  68.263  1.00  0.00    -0.373 A  
HETATM   34 CL   UNL     1     -10.144  19.840  68.717  1.00  0.00    -0.552 Cl 
HETATM   35  C   UNL     1     -10.687  16.096  67.435  1.00  0.00    -0.291 A  
ENDBRANCH  26  29
ENDBRANCH  17  19
ENDBRANCH  11  17
ENDBRANCH   7   9
ENDBRANCH   4   7
ENDBRANCH   3   4
ENDBRANCH   2   3
TORSDOF 7
ENDMDL
MODEL       16
REMARK 921   NORMALIZED FREE ENERGY PREDICTED BY IDOCK:   -7.35 KCAL/MOL
REMARK 922        TOTAL FREE ENERGY PREDICTED BY IDOCK:  -12.11 KCAL/MOL
REMARK 923 INTER-LIGAND FREE ENERGY PREDICTED BY IDOCK:   -9.92 KCAL/MOL
REMARK 924 INTRA-LIGAND FREE ENERGY PREDICTED BY IDOCK:   -2.19 KCAL/MOL
REMARK 927      BINDING AFFINITY PREDICTED BY RF-SCORE:    0.00 PKD
ROOT
HETATM    1  C   UNL     1     -10.369   7.329  67.122  1.00  0.00    -0.367 C  
HETATM    2  C   UNL     1     -10.663   8.777  66.765  1.00  0.00    -0.088 C  
ENDROOT
BRANCH   2   3
HETATM    3  C   UNL     1      -9.435   9.665  66.941  1.00  0.00    -0.153 C  
BRANCH   3   4
HETATM    4  S   UNL     1      -8.448   9.699  65.442  1.00  0.00    -0.155 S  
HETATM    5  O   UNL     1      -9.029   8.807  64.463  1.00  0.00    -0.066 OA 
HETATM    6  O   UNL     1      -7.054   9.625  65.808  1.00  0.00    -0.093 OA 
BRANCH   4   7
HETATM    7  N   UNL     1      -8.667  11.302  64.950  1.00  0.00    -0.383 N  
HETATM    8  H   UNL     1      -7.947  11.795  64.421  1.00  0.00     0.000 HD 
BRANCH   7   9
HETATM    9  C   UNL     1      -9.896  11.942  65.302  1.00  0.00    -0.230 A  
HETATM   10  C   UNL     1      -9.935  12.882  66.340  1.00  0.00    -0.267 A  
HETATM   11  C   UNL     1     -11.058  13.693  66.519  1.00  0.00    -0.310 A  
HETATM   12  F   UNL     1      -8.842  13.040  67.103  1.00  0.00    -0.184 F  
HETATM   13  C   UNL     1     -11.050  11.657  64.576  1.00  0.00    -0.365 A  
HETATM   14  C   UNL     1     -12.211  13.396  65.788  1.00  0.00    -0.458 A  
HETATM   15  C   UNL     1     -12.220  12.367  64.843  1.00  0.00    -0.485 A  
HETATM   16  F   UNL     1     -13.335  14.111  65.936  1.00  0.00    -0.467 F  
BRANCH  11  17
HETATM   17  C   UNL     1     -11.050  14.875  67.413  1.00  0.00    -0.325 C  
HETATM   18  O   UNL     1     -10.522  15.911  67.013  1.00  0.00    -0.297 OA 
BRANCH  17  19
HETATM   19  C   UNL     1     -11.684  14.813  68.736  1.00  0.00    -0.354 A  
HETATM   20  C   UNL     1     -12.273  15.917  69.337  1.00  0.00    -0.062 A  
HETATM   21  N   UNL     1     -12.923  15.507  70.470  1.00  0.00    -0.638 NA 
HETATM   22  C   UNL     1     -12.737  14.165  70.644  1.00  0.00    -0.321 A  
HETATM   23  H   UNL     1     -13.463  16.111  71.089  1.00  0.00     0.000 HD 
HETATM   24  N   UNL     1     -13.307  13.438  71.621  1.00  0.00    -0.363 NA 
HETATM   25  C   UNL     1     -12.955  12.124  71.578  1.00  0.00    -0.295 A  
HETATM   26  C   UNL     1     -12.052  11.523  70.695  1.00  0.00    -0.450 A  
HETATM   27  C   UNL     1     -11.473  12.371  69.734  1.00  0.00    -0.220 A  
HETATM   28  C   UNL     1     -11.874  13.720  69.651  1.00  0.00    -0.393 A  
BRANCH  26  29
HETATM   29  C   UNL     1     -11.744  10.075  70.712  1.00  0.00    -0.437 A  
HETATM   30  C   UNL     1     -10.465   9.584  70.387  1.00  0.00    -0.336 A  
HETATM   31  C   UNL     1     -10.165   8.218  70.473  1.00  0.00    -0.213 A  
HETATM   32  C   UNL     1     -11.138   7.318  70.895  1.00  0.00    -0.261 A  
HETATM   33  C   UNL     1     -12.414   7.769  71.210  1.00  0.00    -0.301 A  
HETATM   34 CL   UNL     1     -10.764   5.647  71.037  1.00  0.00    -0.316 Cl 
HETATM   35  C   UNL     1     -12.713   9.132  71.109  1.00  0.00    -0.271 A  
ENDBRANCH  26  29
ENDBRANCH  17  19
ENDBRANCH  11  17
ENDBRANCH   7   9
ENDBRANCH   4   7
ENDBRANCH   3   4
ENDBRANCH   2   3
TORSDOF 7
ENDMDL
MODEL       17
REMARK 921   NORMALIZED FREE ENERGY PREDICTED BY IDOCK:   -7.33 KCAL/MOL
REMARK 922        TOTAL FREE ENERGY PREDICTED BY IDOCK:  -12.09 KCAL/MOL
REMARK 923 INTER-LIGAND FREE ENERGY PREDICTED BY IDOCK:  -10.07 KCAL/MOL
REMARK 924 INTRA-LIGAND FREE ENERGY PREDICTED BY IDOCK:   -2.02 KCAL/MOL
REMARK 927      BINDING AFFINITY PREDICTED BY RF-SCORE:    0.00 PKD
ROOT
HETATM    1  C   UNL     1      -7.237   8.307  62.622  1.00  0.00    -0.096 C  
HETATM    2  C   UNL     1      -8.146   9.046  63.591  1.00  0.00    -0.164 C  
ENDROOT
BRANCH   2   3
HETATM    3  C   UNL     1      -7.923   8.597  65.032  1.00  0.00    -0.131 C  
BRANCH   3   4
HETATM    4  S   UNL     1      -8.844   9.631  66.174  1.00  0.00    -0.156 S  
HETATM    5  O   UNL     1      -8.028   9.912  67.334  1.00  0.00    -0.105 OA 
HETATM    6  O   UNL     1     -10.182   9.103  66.292  1.00  0.00    -0.276 OA 
BRANCH   4   7
HETATM    7  N   UNL     1      -9.030  11.038  65.255  1.00  0.00    -0.273 N  
HETATM    8  H   UNL     1      -8.334  11.312  64.562  1.00  0.00     0.000 HD 
BRANCH   7   9
HETATM    9  C   UNL     1     -10.198  11.831  65.486  1.00  0.00    -0.252 A  
HETATM   10  C   UNL     1     -10.258  12.704  66.580  1.00  0.00    -0.243 A  
HETATM   11  C   UNL     1     -11.272  13.660  66.668  1.00  0.00    -0.324 A  
HETATM   12  F   UNL     1      -9.276  12.654  67.495  1.00  0.00    -0.169 F  
HETATM   13  C   UNL     1     -11.261  11.763  64.590  1.00  0.00    -0.349 A  
HETATM   14  C   UNL     1     -12.335  13.580  65.766  1.00  0.00    -0.468 A  
HETATM   15  C   UNL     1     -12.348  12.622  64.750  1.00  0.00    -0.556 A  
HETATM   16  F   UNL     1     -13.359  14.444  65.815  1.00  0.00    -0.451 F  
BRANCH  11  17
HETATM   17  C   UNL     1     -11.231  14.774  67.645  1.00  0.00    -0.323 C  
HETATM   18  O   UNL     1     -10.672  15.820  67.321  1.00  0.00    -0.310 OA 
BRANCH  17  19
HETATM   19  C   UNL     1     -11.870  14.635  68.959  1.00  0.00    -0.346 A  
HETATM   20  C   UNL     1     -12.519  15.687  69.592  1.00  0.00    -0.055 A  
HETATM   21  N   UNL     1     -13.155  15.206  70.705  1.00  0.00    -0.610 NA 
HETATM   22  C   UNL     1     -12.902  13.870  70.836  1.00  0.00    -0.300 A  
HETATM   23  H   UNL     1     -13.730  15.760  71.339  1.00  0.00     0.000 HD 
HETATM   24  N   UNL     1     -13.440  13.083  71.784  1.00  0.00    -0.374 NA 
HETATM   25  C   UNL     1     -13.021  11.791  71.700  1.00  0.00    -0.362 A  
HETATM   26  C   UNL     1     -12.082  11.267  70.806  1.00  0.00    -0.450 A  
HETATM   27  C   UNL     1     -11.541  12.175  69.878  1.00  0.00    -0.297 A  
HETATM   28  C   UNL     1     -12.010  13.504  69.836  1.00  0.00    -0.416 A  
BRANCH  26  29
HETATM   29  C   UNL     1     -11.700   9.837  70.777  1.00  0.00    -0.407 A  
HETATM   30  C   UNL     1     -12.305   8.889  71.625  1.00  0.00    -0.405 A  
HETATM   31  C   UNL     1     -11.985   7.528  71.541  1.00  0.00    -0.336 A  
HETATM   32  C   UNL     1     -11.058   7.088  70.602  1.00  0.00    -0.272 A  
HETATM   33  C   UNL     1     -10.433   8.000  69.761  1.00  0.00    -0.227 A  
HETATM   34 CL   UNL     1     -10.690   5.414  70.472  1.00  0.00    -0.310 Cl 
HETATM   35  C   UNL     1     -10.745   9.360  69.857  1.00  0.00    -0.258 A  
ENDBRANCH  26  29
ENDBRANCH  17  19
ENDBRANCH  11  17
ENDBRANCH   7   9
ENDBRANCH   4   7
ENDBRANCH   3   4
ENDBRANCH   2   3
TORSDOF 7
ENDMDL
MODEL       18
REMARK 921   NORMALIZED FREE ENERGY PREDICTED BY IDOCK:   -7.32 KCAL/MOL
REMARK 922        TOTAL FREE ENERGY PREDICTED BY IDOCK:  -12.07 KCAL/MOL
REMARK 923 INTER-LIGAND FREE ENERGY PREDICTED BY IDOCK:  -10.15 KCAL/MOL
REMARK 924 INTRA-LIGAND FREE ENERGY PREDICTED BY IDOCK:   -1.92 KCAL/MOL
REMARK 927      BINDING AFFINITY PREDICTED BY RF-SCORE:    0.00 PKD
ROOT
HETATM    1  C   UNL     1      -7.558   8.309  66.968  1.00  0.00    -0.092 C  
HETATM    2  C   UNL     1      -8.499   7.713  65.934  1.00  0.00    -0.150 C  
ENDROOT
BRANCH   2   3
HETATM    3  C   UNL     1      -7.979   7.909  64.513  1.00  0.00    -0.140 C  
BRANCH   3   4
HETATM    4  S   UNL     1      -8.519   9.486  63.846  1.00  0.00    -0.203 S  
HETATM    5  O   UNL     1      -8.887   9.320  62.458  1.00  0.00    -0.233 OA 
HETATM    6  O   UNL     1      -7.591  10.506  64.272  1.00  0.00    -0.070 OA 
BRANCH   4   7
HETATM    7  N   UNL     1      -9.905   9.769  64.772  1.00  0.00    -0.417 N  
HETATM    8  H   UNL     1     -10.342   9.021  65.311  1.00  0.00     0.000 HD 
BRANCH   7   9
HETATM    9  C   UNL     1     -10.442  11.094  64.772  1.00  0.00    -0.323 A  
HETATM   10  C   UNL     1     -10.127  11.988  65.804  1.00  0.00    -0.238 A  
HETATM   11  C   UNL     1     -10.430  13.346  65.682  1.00  0.00    -0.293 A  
HETATM   12  F   UNL     1      -9.458  11.524  66.872  1.00  0.00    -0.173 F  
HETATM   13  C   UNL     1     -11.248  11.508  63.714  1.00  0.00    -0.456 A  
HETATM   14  C   UNL     1     -11.241  13.749  64.619  1.00  0.00    -0.378 A  
HETATM   15  C   UNL     1     -11.673  12.834  63.655  1.00  0.00    -0.587 A  
HETATM   16  F   UNL     1     -11.600  15.030  64.461  1.00  0.00    -0.378 F  
BRANCH  11  17
HETATM   17  C   UNL     1      -9.883  14.368  66.606  1.00  0.00    -0.278 C  
HETATM   18  O   UNL     1      -8.813  14.902  66.324  1.00  0.00    -0.229 OA 
BRANCH  17  19
HETATM   19  C   UNL     1     -10.623  14.749  67.816  1.00  0.00    -0.257 A  
HETATM   20  C   UNL     1     -10.983  16.061  68.092  1.00  0.00    -0.339 A  
HETATM   21  N   UNL     1     -11.804  16.071  69.187  1.00  0.00    -0.342 NA 
HETATM   22  C   UNL     1     -11.954  14.797  69.659  1.00  0.00    -0.316 A  
HETATM   23  H   UNL     1     -12.237  16.901  69.590  1.00  0.00     0.000 HD 
HETATM   24  N   UNL     1     -12.758  14.453  70.680  1.00  0.00    -0.350 NA 
HETATM   25  C   UNL     1     -12.724  13.121  70.956  1.00  0.00    -0.277 A  
HETATM   26  C   UNL     1     -11.917  12.156  70.346  1.00  0.00    -0.360 A  
HETATM   27  C   UNL     1     -11.076  12.616  69.317  1.00  0.00    -0.193 A  
HETATM   28  C   UNL     1     -11.140  13.962  68.903  1.00  0.00    -0.296 A  
BRANCH  26  29
HETATM   29  C   UNL     1     -11.960  10.719  70.703  1.00  0.00    -0.466 A  
HETATM   30  C   UNL     1     -10.928   9.833  70.341  1.00  0.00    -0.371 A  
HETATM   31  C   UNL     1     -10.946   8.491  70.743  1.00  0.00    -0.282 A  
HETATM   32  C   UNL     1     -11.994   8.013  71.523  1.00  0.00    -0.297 A  
HETATM   33  C   UNL     1     -13.035   8.859  71.885  1.00  0.00    -0.436 A  
HETATM   34 CL   UNL     1     -12.001   6.376  72.049  1.00  0.00    -0.384 Cl 
HETATM   35  C   UNL     1     -13.020  10.195  71.469  1.00  0.00    -0.547 A  
ENDBRANCH  26  29
ENDBRANCH  17  19
ENDBRANCH  11  17
ENDBRANCH   7   9
ENDBRANCH   4   7
ENDBRANCH   3   4
ENDBRANCH   2   3
TORSDOF 7
ENDMDL
MODEL       19
REMARK 921   NORMALIZED FREE ENERGY PREDICTED BY IDOCK:   -7.32 KCAL/MOL
REMARK 922        TOTAL FREE ENERGY PREDICTED BY IDOCK:  -12.07 KCAL/MOL
REMARK 923 INTER-LIGAND FREE ENERGY PREDICTED BY IDOCK:  -10.36 KCAL/MOL
REMARK 924 INTRA-LIGAND FREE ENERGY PREDICTED BY IDOCK:   -1.71 KCAL/MOL
REMARK 927      BINDING AFFINITY PREDICTED BY RF-SCORE:    0.00 PKD
ROOT
HETATM    1  C   UNL     1      -6.081  19.065  69.353  1.00  0.00    -0.284 C  
HETATM    2  C   UNL     1      -7.152  18.389  68.512  1.00  0.00    -0.285 C  
ENDROOT
BRANCH   2   3
HETATM    3  C   UNL     1      -8.427  19.223  68.441  1.00  0.00    -0.351 C  
BRANCH   3   4
HETATM    4  S   UNL     1      -9.377  18.817  66.973  1.00  0.00    -0.306 S  
HETATM    5  O   UNL     1      -8.880  19.583  65.852  1.00  0.00    -0.412 OA 
HETATM    6  O   UNL     1     -10.777  18.798  67.324  1.00  0.00    -0.437 OA 
BRANCH   4   7
HETATM    7  N   UNL     1      -8.974  17.187  66.771  1.00  0.00    -0.231 N  
HETATM    8  H   UNL     1      -8.088  16.911  66.348  1.00  0.00     0.000 HD 
BRANCH   7   9
HETATM    9  C   UNL     1      -9.921  16.211  67.213  1.00  0.00    -0.248 A  
HETATM   10  C   UNL     1     -10.839  15.654  66.314  1.00  0.00    -0.262 A  
HETATM   11  C   UNL     1     -11.585  14.528  66.669  1.00  0.00    -0.385 A  
HETATM   12  F   UNL     1     -10.926  16.178  65.080  1.00  0.00    -0.367 F  
HETATM   13  C   UNL     1      -9.896  15.783  68.538  1.00  0.00    -0.209 A  
HETATM   14  C   UNL     1     -11.555  14.109  68.001  1.00  0.00    -0.334 A  
HETATM   15  C   UNL     1     -10.739  14.747  68.939  1.00  0.00    -0.253 A  
HETATM   16  F   UNL     1     -12.273  13.057  68.419  1.00  0.00    -0.353 F  
BRANCH  11  17
HETATM   17  C   UNL     1     -12.358  13.742  65.679  1.00  0.00    -0.482 C  
HETATM   18  O   UNL     1     -13.523  14.062  65.455  1.00  0.00    -0.679 OA 
BRANCH  17  19
HETATM   19  C   UNL     1     -11.731  12.624  64.963  1.00  0.00    -0.401 A  
HETATM   20  C   UNL     1     -11.757  12.511  63.579  1.00  0.00    -0.518 A  
HETATM   21  N   UNL     1     -10.948  11.471  63.207  1.00  0.00    -0.744 NA 
HETATM   22  C   UNL     1     -10.426  10.876  64.320  1.00  0.00    -0.335 A  
HETATM   23  H   UNL     1     -10.764  11.185  62.246  1.00  0.00     0.000 HD 
HETATM   24  N   UNL     1      -9.533   9.871  64.298  1.00  0.00    -0.269 NA 
HETATM   25  C   UNL     1      -9.176   9.452  65.543  1.00  0.00    -0.232 A  
HETATM   26  C   UNL     1      -9.684   9.909  66.762  1.00  0.00    -0.244 A  
HETATM   27  C   UNL     1     -10.646  10.932  66.685  1.00  0.00    -0.305 A  
HETATM   28  C   UNL     1     -10.983  11.490  65.435  1.00  0.00    -0.288 A  
BRANCH  26  29
HETATM   29  C   UNL     1      -9.220   9.404  68.075  1.00  0.00    -0.137 A  
HETATM   30  C   UNL     1      -9.601  10.017  69.283  1.00  0.00    -0.227 A  
HETATM   31  C   UNL     1      -9.213   9.489  70.522  1.00  0.00    -0.284 A  
HETATM   32  C   UNL     1      -8.442   8.333  70.574  1.00  0.00    -0.129 A  
HETATM   33  C   UNL     1      -8.038   7.712  69.399  1.00  0.00    -0.127 A  
HETATM   34 CL   UNL     1      -7.994   7.662  72.092  1.00  0.00    -0.111 Cl 
HETATM   35  C   UNL     1      -8.416   8.250  68.164  1.00  0.00    -0.132 A  
ENDBRANCH  26  29
ENDBRANCH  17  19
ENDBRANCH  11  17
ENDBRANCH   7   9
ENDBRANCH   4   7
ENDBRANCH   3   4
ENDBRANCH   2   3
TORSDOF 7
ENDMDL
MODEL       20
REMARK 921   NORMALIZED FREE ENERGY PREDICTED BY IDOCK:   -7.31 KCAL/MOL
REMARK 922        TOTAL FREE ENERGY PREDICTED BY IDOCK:  -12.05 KCAL/MOL
REMARK 923 INTER-LIGAND FREE ENERGY PREDICTED BY IDOCK:   -9.91 KCAL/MOL
REMARK 924 INTRA-LIGAND FREE ENERGY PREDICTED BY IDOCK:   -2.14 KCAL/MOL
REMARK 927      BINDING AFFINITY PREDICTED BY RF-SCORE:    0.00 PKD
ROOT
HETATM    1  C   UNL     1     -11.148   6.284  68.704  1.00  0.00    -0.409 C  
HETATM    2  C   UNL     1     -10.564   6.571  67.330  1.00  0.00    -0.364 C  
ENDROOT
BRANCH   2   3
HETATM    3  C   UNL     1     -10.551   8.064  67.020  1.00  0.00    -0.294 C  
BRANCH   3   4
HETATM    4  S   UNL     1      -9.068   8.840  67.668  1.00  0.00    -0.134 S  
HETATM    5  O   UNL     1      -8.026   7.848  67.806  1.00  0.00    -0.120 OA 
HETATM    6  O   UNL     1      -9.444   9.709  68.758  1.00  0.00    -0.144 OA 
BRANCH   4   7
HETATM    7  N   UNL     1      -8.681   9.898  66.406  1.00  0.00    -0.131 N  
HETATM    8  H   UNL     1      -8.457   9.549  65.474  1.00  0.00     0.000 HD 
BRANCH   7   9
HETATM    9  C   UNL     1      -8.680  11.299  66.693  1.00  0.00    -0.174 A  
HETATM   10  C   UNL     1      -9.861  12.045  66.596  1.00  0.00    -0.204 A  
HETATM   11  C   UNL     1      -9.927  13.339  67.117  1.00  0.00    -0.238 A  
HETATM   12  F   UNL     1     -10.947  11.459  66.065  1.00  0.00    -0.325 F  
HETATM   13  C   UNL     1      -7.502  11.911  67.115  1.00  0.00    -0.146 A  
HETATM   14  C   UNL     1      -8.739  13.944  67.534  1.00  0.00    -0.193 A  
HETATM   15  C   UNL     1      -7.528  13.249  67.507  1.00  0.00    -0.163 A  
HETATM   16  F   UNL     1      -8.724  15.196  68.012  1.00  0.00    -0.156 F  
BRANCH  11  17
HETATM   17  C   UNL     1     -11.209  14.063  67.287  1.00  0.00    -0.312 C  
HETATM   18  O   UNL     1     -11.819  14.422  66.282  1.00  0.00    -0.378 OA 
BRANCH  17  19
HETATM   19  C   UNL     1     -11.748  14.319  68.629  1.00  0.00    -0.380 A  
HETATM   20  C   UNL     1     -12.122  15.585  69.057  1.00  0.00    -0.221 A  
HETATM   21  N   UNL     1     -12.741  15.474  70.272  1.00  0.00    -0.602 NA 
HETATM   22  C   UNL     1     -12.743  14.167  70.667  1.00  0.00    -0.321 A  
HETATM   23  H   UNL     1     -13.140  16.249  70.802  1.00  0.00     0.000 HD 
HETATM   24  N   UNL     1     -13.342  13.709  71.781  1.00  0.00    -0.380 NA 
HETATM   25  C   UNL     1     -13.192  12.367  71.950  1.00  0.00    -0.382 A  
HETATM   26  C   UNL     1     -12.454  11.495  71.143  1.00  0.00    -0.442 A  
HETATM   27  C   UNL     1     -11.828  12.071  70.024  1.00  0.00    -0.392 A  
HETATM   28  C   UNL     1     -12.030  13.434  69.727  1.00  0.00    -0.396 A  
BRANCH  26  29
HETATM   29  C   UNL     1     -12.363  10.038  71.396  1.00  0.00    -0.512 A  
HETATM   30  C   UNL     1     -11.125   9.395  71.587  1.00  0.00    -0.409 A  
HETATM   31  C   UNL     1     -11.054   8.029  71.895  1.00  0.00    -0.333 A  
HETATM   32  C   UNL     1     -12.222   7.285  72.024  1.00  0.00    -0.277 A  
HETATM   33  C   UNL     1     -13.458   7.888  71.828  1.00  0.00    -0.379 A  
HETATM   34 CL   UNL     1     -12.141   5.618  72.437  1.00  0.00    -0.164 Cl 
HETATM   35  C   UNL     1     -13.524   9.247  71.507  1.00  0.00    -0.437 A  
ENDBRANCH  26  29
ENDBRANCH  17  19
ENDBRANCH  11  17
ENDBRANCH   7   9
ENDBRANCH   4   7
ENDBRANCH   3   4
ENDBRANCH   2   3
TORSDOF 7
ENDMDL
MODEL       21
REMARK 921   NORMALIZED FREE ENERGY PREDICTED BY IDOCK:   -7.30 KCAL/MOL
REMARK 922        TOTAL FREE ENERGY PREDICTED BY IDOCK:  -12.04 KCAL/MOL
REMARK 923 INTER-LIGAND FREE ENERGY PREDICTED BY IDOCK:   -9.83 KCAL/MOL
REMARK 924 INTRA-LIGAND FREE ENERGY PREDICTED BY IDOCK:   -2.21 KCAL/MOL
REMARK 927      BINDING AFFINITY PREDICTED BY RF-SCORE:    0.00 PKD
ROOT
HETATM    1  C   UNL     1     -12.718  11.926  63.608  1.00  0.00    -0.509 C  
HETATM    2  C   UNL     1     -11.788  13.110  63.400  1.00  0.00    -0.490 C  
ENDROOT
BRANCH   2   3
HETATM    3  C   UNL     1     -12.269  14.348  64.152  1.00  0.00    -0.363 C  
BRANCH   3   4
HETATM    4  S   UNL     1     -11.234  14.671  65.582  1.00  0.00    -0.349 S  
HETATM    5  O   UNL     1     -11.862  14.123  66.764  1.00  0.00    -0.386 OA 
HETATM    6  O   UNL     1     -10.785  16.041  65.523  1.00  0.00    -0.367 OA 
BRANCH   4   7
HETATM    7  N   UNL     1      -9.860  13.763  65.196  1.00  0.00    -0.587 N  
HETATM    8  H   UNL     1      -9.528  13.692  64.234  1.00  0.00     0.000 HD 
BRANCH   7   9
HETATM    9  C   UNL     1      -9.183  13.099  66.266  1.00  0.00    -0.060 A  
HETATM   10  C   UNL     1      -9.338  11.720  66.457  1.00  0.00    -0.210 A  
HETATM   11  C   UNL     1      -8.491  11.026  67.324  1.00  0.00    -0.130 A  
HETATM   12  F   UNL     1     -10.262  11.073  65.729  1.00  0.00    -0.268 F  
HETATM   13  C   UNL     1      -8.329  13.826  67.093  1.00  0.00    -0.153 A  
HETATM   14  C   UNL     1      -7.642  11.764  68.150  1.00  0.00    -0.117 A  
HETATM   15  C   UNL     1      -7.579  13.157  68.059  1.00  0.00    -0.144 A  
HETATM   16  F   UNL     1      -6.828  11.164  69.030  1.00  0.00    -0.062 F  
BRANCH  11  17
HETATM   17  C   UNL     1      -8.430   9.545  67.357  1.00  0.00    -0.125 C  
HETATM   18  O   UNL     1      -7.589   8.975  66.666  1.00  0.00    -0.088 OA 
BRANCH  17  19
HETATM   19  C   UNL     1      -9.340   8.782  68.221  1.00  0.00    -0.143 A  
HETATM   20  C   UNL     1      -9.278   7.400  68.339  1.00  0.00    -0.138 A  
HETATM   21  N   UNL     1     -10.127   7.005  69.338  1.00  0.00    -0.166 NA 
HETATM   22  C   UNL     1     -10.774   8.096  69.847  1.00  0.00    -0.241 A  
HETATM   23  H   UNL     1     -10.258   6.044  69.653  1.00  0.00     0.000 HD 
HETATM   24  N   UNL     1     -11.620   8.060  70.891  1.00  0.00    -0.282 NA 
HETATM   25  C   UNL     1     -12.136   9.281  71.198  1.00  0.00    -0.316 A  
HETATM   26  C   UNL     1     -11.920  10.481  70.513  1.00  0.00    -0.436 A  
HETATM   27  C   UNL     1     -11.054  10.413  69.407  1.00  0.00    -0.304 A  
HETATM   28  C   UNL     1     -10.399   9.204  69.098  1.00  0.00    -0.223 A  
BRANCH  26  29
HETATM   29  C   UNL     1     -12.513  11.772  70.933  1.00  0.00    -0.416 A  
HETATM   30  C   UNL     1     -13.401  11.862  72.022  1.00  0.00    -0.425 A  
HETATM   31  C   UNL     1     -13.901  13.098  72.454  1.00  0.00    -0.583 A  
HETATM   32  C   UNL     1     -13.516  14.267  71.807  1.00  0.00    -0.381 A  
HETATM   33  C   UNL     1     -12.652  14.210  70.721  1.00  0.00    -0.432 A  
HETATM   34 CL   UNL     1     -14.099  15.788  72.357  1.00  0.00    -0.571 Cl 
HETATM   35  C   UNL     1     -12.166  12.974  70.284  1.00  0.00    -0.368 A  
ENDBRANCH  26  29
ENDBRANCH  17  19
ENDBRANCH  11  17
ENDBRANCH   7   9
ENDBRANCH   4   7
ENDBRANCH   3   4
ENDBRANCH   2   3
TORSDOF 7
ENDMDL
MODEL       22
REMARK 921   NORMALIZED FREE ENERGY PREDICTED BY IDOCK:   -7.28 KCAL/MOL
REMARK 922        TOTAL FREE ENERGY PREDICTED BY IDOCK:  -12.01 KCAL/MOL
REMARK 923 INTER-LIGAND FREE ENERGY PREDICTED BY IDOCK:  -10.46 KCAL/MOL
REMARK 924 INTRA-LIGAND FREE ENERGY PREDICTED BY IDOCK:   -1.55 KCAL/MOL
REMARK 927      BINDING AFFINITY PREDICTED BY RF-SCORE:    0.00 PKD
ROOT
HETATM    1  C   UNL     1      -6.595  21.266  67.306  1.00  0.00    -0.403 C  
HETATM    2  C   UNL     1      -7.495  20.042  67.366  1.00  0.00    -0.314 C  
ENDROOT
BRANCH   2   3
HETATM    3  C   UNL     1      -8.968  20.414  67.231  1.00  0.00    -0.343 C  
BRANCH   3   4
HETATM    4  S   UNL     1      -9.945  18.992  66.736  1.00  0.00    -0.389 S  
HETATM    5  O   UNL     1     -10.895  19.390  65.723  1.00  0.00    -0.434 OA 
HETATM    6  O   UNL     1     -10.349  18.278  67.924  1.00  0.00    -0.366 OA 
BRANCH   4   7
HETATM    7  N   UNL     1      -8.754  18.010  66.044  1.00  0.00    -0.069 N  
HETATM    8  H   UNL     1      -8.131  18.366  65.319  1.00  0.00     0.000 HD 
BRANCH   7   9
HETATM    9  C   UNL     1      -8.653  16.662  66.511  1.00  0.00    -0.285 A  
HETATM   10  C   UNL     1      -9.602  15.705  66.128  1.00  0.00    -0.330 A  
HETATM   11  C   UNL     1      -9.372  14.347  66.363  1.00  0.00    -0.284 A  
HETATM   12  F   UNL     1     -10.693  16.115  65.462  1.00  0.00    -0.335 F  
HETATM   13  C   UNL     1      -7.577  16.294  67.315  1.00  0.00    -0.203 A  
HETATM   14  C   UNL     1      -8.293  13.990  67.173  1.00  0.00    -0.156 A  
HETATM   15  C   UNL     1      -7.415  14.956  67.672  1.00  0.00    -0.205 A  
HETATM   16  F   UNL     1      -8.035  12.708  67.467  1.00  0.00    -0.132 F  
BRANCH  11  17
HETATM   17  C   UNL     1     -10.199  13.284  65.744  1.00  0.00    -0.292 C  
HETATM   18  O   UNL     1     -10.302  13.256  64.520  1.00  0.00    -0.397 OA 
BRANCH  17  19
HETATM   19  C   UNL     1     -10.857  12.272  66.580  1.00  0.00    -0.296 A  
HETATM   20  C   UNL     1     -11.023  10.955  66.173  1.00  0.00    -0.029 A  
HETATM   21  N   UNL     1     -11.505  10.226  67.226  1.00  0.00    -0.352 NA 
HETATM   22  C   UNL     1     -11.699  11.046  68.301  1.00  0.00    -0.229 A  
HETATM   23  H   UNL     1     -11.693   9.224  67.210  1.00  0.00     0.000 HD 
HETATM   24  N   UNL     1     -12.094  10.628  69.516  1.00  0.00    -0.257 NA 
HETATM   25  C   UNL     1     -12.217  11.644  70.412  1.00  0.00    -0.347 A  
HETATM   26  C   UNL     1     -12.042  13.009  70.165  1.00  0.00    -0.377 A  
HETATM   27  C   UNL     1     -11.671  13.356  68.854  1.00  0.00    -0.369 A  
HETATM   28  C   UNL     1     -11.419  12.347  67.902  1.00  0.00    -0.385 A  
BRANCH  26  29
HETATM   29  C   UNL     1     -12.180  14.047  71.213  1.00  0.00    -0.392 A  
HETATM   30  C   UNL     1     -12.831  13.787  72.434  1.00  0.00    -0.353 A  
HETATM   31  C   UNL     1     -12.896  14.755  73.445  1.00  0.00    -0.597 A  
HETATM   32  C   UNL     1     -12.303  15.999  73.256  1.00  0.00    -0.537 A  
HETATM   33  C   UNL     1     -11.665  16.291  72.057  1.00  0.00    -0.528 A  
HETATM   34 CL   UNL     1     -12.349  17.176  74.508  1.00  0.00    -0.076 Cl 
HETATM   35  C   UNL     1     -11.615  15.327  71.045  1.00  0.00    -0.399 A  
ENDBRANCH  26  29
ENDBRANCH  17  19
ENDBRANCH  11  17
ENDBRANCH   7   9
ENDBRANCH   4   7
ENDBRANCH   3   4
ENDBRANCH   2   3
TORSDOF 7
ENDMDL
MODEL       23
REMARK 921   NORMALIZED FREE ENERGY PREDICTED BY IDOCK:   -7.23 KCAL/MOL
REMARK 922        TOTAL FREE ENERGY PREDICTED BY IDOCK:  -11.93 KCAL/MOL
REMARK 923 INTER-LIGAND FREE ENERGY PREDICTED BY IDOCK:  -10.46 KCAL/MOL
REMARK 924 INTRA-LIGAND FREE ENERGY PREDICTED BY IDOCK:   -1.47 KCAL/MOL
REMARK 927      BINDING AFFINITY PREDICTED BY RF-SCORE:    0.00 PKD
ROOT
HETATM    1  C   UNL     1     -13.338   9.970  72.002  1.00  0.00    -0.513 C  
HETATM    2  C   UNL     1     -12.079   9.861  71.157  1.00  0.00    -0.466 C  
ENDROOT
BRANCH   2   3
HETATM    3  C   UNL     1     -11.025   8.981  71.821  1.00  0.00    -0.372 C  
BRANCH   3   4
HETATM    4  S   UNL     1     -10.274   7.869  70.628  1.00  0.00    -0.197 S  
HETATM    5  O   UNL     1     -10.529   6.501  71.019  1.00  0.00    -0.213 OA 
HETATM    6  O   UNL     1      -8.943   8.344  70.334  1.00  0.00    -0.141 OA 
BRANCH   4   7
HETATM    7  N   UNL     1     -11.166   8.240  69.239  1.00  0.00    -0.409 N  
HETATM    8  H   UNL     1     -12.150   8.502  69.298  1.00  0.00     0.000 HD 
BRANCH   7   9
HETATM    9  C   UNL     1     -10.490   8.172  67.981  1.00  0.00    -0.183 A  
HETATM   10  C   UNL     1     -10.310   9.327  67.209  1.00  0.00    -0.265 A  
HETATM   11  C   UNL     1      -9.438   9.320  66.118  1.00  0.00    -0.298 A  
HETATM   12  F   UNL     1     -10.931  10.455  67.589  1.00  0.00    -0.280 F  
HETATM   13  C   UNL     1      -9.970   6.955  67.546  1.00  0.00    -0.190 A  
HETATM   14  C   UNL     1      -8.925   8.094  65.689  1.00  0.00    -0.080 A  
HETATM   15  C   UNL     1      -9.210   6.913  66.378  1.00  0.00    -0.186 A  
HETATM   16  F   UNL     1      -8.110   8.011  64.628  1.00  0.00    -0.129 F  
BRANCH  11  17
HETATM   17  C   UNL     1      -9.004  10.565  65.441  1.00  0.00    -0.186 C  
HETATM   18  O   UNL     1      -7.848  10.950  65.602  1.00  0.00    -0.118 OA 
BRANCH  17  19
HETATM   19  C   UNL     1      -9.932  11.305  64.576  1.00  0.00    -0.334 A  
HETATM   20  C   UNL     1     -10.553  10.727  63.477  1.00  0.00     0.040 A  
HETATM   21  N   UNL     1     -11.481  11.604  62.984  1.00  0.00    -0.813 NA 
HETATM   22  C   UNL     1     -11.451  12.760  63.712  1.00  0.00    -0.470 A  
HETATM   23  H   UNL     1     -12.099  11.424  62.194  1.00  0.00     0.000 HD 
HETATM   24  N   UNL     1     -12.291  13.794  63.533  1.00  0.00    -0.760 NA 
HETATM   25  C   UNL     1     -12.048  14.828  64.384  1.00  0.00    -0.440 A  
HETATM   26  C   UNL     1     -11.016  14.919  65.324  1.00  0.00    -0.389 A  
HETATM   27  C   UNL     1     -10.161  13.806  65.411  1.00  0.00    -0.307 A  
HETATM   28  C   UNL     1     -10.419  12.657  64.636  1.00  0.00    -0.361 A  
BRANCH  26  29
HETATM   29  C   UNL     1     -10.839  16.082  66.224  1.00  0.00    -0.166 A  
HETATM   30  C   UNL     1     -10.873  15.948  67.625  1.00  0.00    -0.312 A  
HETATM   31  C   UNL     1     -10.636  17.042  68.467  1.00  0.00    -0.370 A  
HETATM   32  C   UNL     1     -10.353  18.290  67.922  1.00  0.00    -0.399 A  
HETATM   33  C   UNL     1     -10.326  18.458  66.544  1.00  0.00    -0.426 A  
HETATM   34 CL   UNL     1     -10.026  19.627  68.952  1.00  0.00    -0.541 Cl 
HETATM   35  C   UNL     1     -10.577  17.366  65.706  1.00  0.00    -0.185 A  
ENDBRANCH  26  29
ENDBRANCH  17  19
ENDBRANCH  11  17
ENDBRANCH   7   9
ENDBRANCH   4   7
ENDBRANCH   3   4
ENDBRANCH   2   3
TORSDOF 7
ENDMDL
MODEL       24
REMARK 921   NORMALIZED FREE ENERGY PREDICTED BY IDOCK:   -7.14 KCAL/MOL
REMARK 922        TOTAL FREE ENERGY PREDICTED BY IDOCK:  -11.81 KCAL/MOL
REMARK 923 INTER-LIGAND FREE ENERGY PREDICTED BY IDOCK:   -9.91 KCAL/MOL
REMARK 924 INTRA-LIGAND FREE ENERGY PREDICTED BY IDOCK:   -1.91 KCAL/MOL
REMARK 927      BINDING AFFINITY PREDICTED BY RF-SCORE:    0.00 PKD
ROOT
HETATM    1  C   UNL     1     -13.365   9.634  72.280  1.00  0.00    -0.498 C  
HETATM    2  C   UNL     1     -12.098   9.161  71.586  1.00  0.00    -0.432 C  
ENDROOT
BRANCH   2   3
HETATM    3  C   UNL     1     -11.456   7.985  72.316  1.00  0.00    -0.360 C  
BRANCH   3   4
HETATM    4  S   UNL     1     -10.636   6.884  71.160  1.00  0.00    -0.224 S  
HETATM    5  O   UNL     1     -10.790   5.518  71.606  1.00  0.00    -0.245 OA 
HETATM    6  O   UNL     1      -9.345   7.440  70.834  1.00  0.00    -0.155 OA 
BRANCH   4   7
HETATM    7  N   UNL     1     -11.562   7.135  69.767  1.00  0.00    -0.538 N  
HETATM    8  H   UNL     1     -12.579   7.196  69.813  1.00  0.00     0.000 HD 
BRANCH   7   9
HETATM    9  C   UNL     1     -10.867   7.256  68.523  1.00  0.00    -0.060 A  
HETATM   10  C   UNL     1     -10.454   8.512  68.061  1.00  0.00    -0.191 A  
HETATM   11  C   UNL     1      -9.560   8.615  66.992  1.00  0.00    -0.240 A  
HETATM   12  F   UNL     1     -10.873   9.606  68.717  1.00  0.00    -0.232 F  
HETATM   13  C   UNL     1     -10.562   6.110  67.793  1.00  0.00    -0.338 A  
HETATM   14  C   UNL     1      -9.265   7.460  66.265  1.00  0.00    -0.135 A  
HETATM   15  C   UNL     1      -9.783   6.219  66.642  1.00  0.00    -0.195 A  
HETATM   16  F   UNL     1      -8.442   7.492  65.207  1.00  0.00    -0.134 F  
BRANCH  11  17
HETATM   17  C   UNL     1      -8.885   9.887  66.641  1.00  0.00    -0.135 C  
HETATM   18  O   UNL     1      -7.683   9.998  66.875  1.00  0.00    -0.095 OA 
BRANCH  17  19
HETATM   19  C   UNL     1      -9.634  10.976  66.003  1.00  0.00    -0.249 A  
HETATM   20  C   UNL     1      -9.809  11.060  64.629  1.00  0.00    -0.285 A  
HETATM   21  N   UNL     1     -10.688  12.074  64.358  1.00  0.00    -0.301 NA 
HETATM   22  C   UNL     1     -11.059  12.682  65.524  1.00  0.00    -0.294 A  
HETATM   23  H   UNL     1     -11.015  12.337  63.429  1.00  0.00     0.000 HD 
HETATM   24  N   UNL     1     -11.971  13.667  65.613  1.00  0.00    -0.372 NA 
HETATM   25  C   UNL     1     -12.156  14.104  66.888  1.00  0.00    -0.432 A  
HETATM   26  C   UNL     1     -11.467  13.684  68.030  1.00  0.00    -0.345 A  
HETATM   27  C   UNL     1     -10.502  12.680  67.833  1.00  0.00    -0.225 A  
HETATM   28  C   UNL     1     -10.334  12.104  66.558  1.00  0.00    -0.239 A  
BRANCH  26  29
HETATM   29  C   UNL     1     -11.750  14.207  69.386  1.00  0.00    -0.361 A  
HETATM   30  C   UNL     1     -11.447  15.533  69.748  1.00  0.00    -0.339 A  
HETATM   31  C   UNL     1     -11.782  16.038  71.012  1.00  0.00    -0.458 A  
HETATM   32  C   UNL     1     -12.435  15.226  71.933  1.00  0.00    -0.353 A  
HETATM   33  C   UNL     1     -12.736  13.909  71.611  1.00  0.00    -0.416 A  
HETATM   34 CL   UNL     1     -12.881  15.853  73.471  1.00  0.00    -0.648 Cl 
HETATM   35  C   UNL     1     -12.387  13.405  70.354  1.00  0.00    -0.382 A  
ENDBRANCH  26  29
ENDBRANCH  17  19
ENDBRANCH  11  17
ENDBRANCH   7   9
ENDBRANCH   4   7
ENDBRANCH   3   4
ENDBRANCH   2   3
TORSDOF 7
ENDMDL
MODEL       25
REMARK 921   NORMALIZED FREE ENERGY PREDICTED BY IDOCK:   -7.13 KCAL/MOL
REMARK 922        TOTAL FREE ENERGY PREDICTED BY IDOCK:  -11.79 KCAL/MOL
REMARK 923 INTER-LIGAND FREE ENERGY PREDICTED BY IDOCK:  -10.00 KCAL/MOL
REMARK 924 INTRA-LIGAND FREE ENERGY PREDICTED BY IDOCK:   -1.80 KCAL/MOL
REMARK 927      BINDING AFFINITY PREDICTED BY RF-SCORE:    0.00 PKD
ROOT
HETATM    1  C   UNL     1      -8.062   6.691  67.215  1.00  0.00    -0.121 C  
HETATM    2  C   UNL     1      -9.055   7.577  66.479  1.00  0.00    -0.201 C  
ENDROOT
BRANCH   2   3
HETATM    3  C   UNL     1      -8.352   8.602  65.594  1.00  0.00    -0.145 C  
BRANCH   3   4
HETATM    4  S   UNL     1      -8.341  10.220  66.370  1.00  0.00    -0.135 S  
HETATM    5  O   UNL     1      -7.001  10.531  66.814  1.00  0.00    -0.093 OA 
HETATM    6  O   UNL     1      -9.478  10.312  67.254  1.00  0.00    -0.148 OA 
BRANCH   4   7
HETATM    7  N   UNL     1      -8.750  11.208  65.060  1.00  0.00    -0.384 N  
HETATM    8  H   UNL     1      -8.183  11.221  64.212  1.00  0.00     0.000 HD 
BRANCH   7   9
HETATM    9  C   UNL     1      -9.918  12.023  65.184  1.00  0.00    -0.239 A  
HETATM   10  C   UNL     1      -9.840  13.289  65.779  1.00  0.00    -0.197 A  
HETATM   11  C   UNL     1     -10.904  14.188  65.673  1.00  0.00    -0.306 A  
HETATM   12  F   UNL     1      -8.693  13.645  66.380  1.00  0.00    -0.141 F  
HETATM   13  C   UNL     1     -11.129  11.569  64.668  1.00  0.00    -0.317 A  
HETATM   14  C   UNL     1     -12.114  13.721  65.157  1.00  0.00    -0.399 A  
HETATM   15  C   UNL     1     -12.239  12.413  64.683  1.00  0.00    -0.499 A  
HETATM   16  F   UNL     1     -13.186  14.520  65.059  1.00  0.00    -0.276 F  
BRANCH  11  17
HETATM   17  C   UNL     1     -10.774  15.618  66.039  1.00  0.00    -0.317 C  
HETATM   18  O   UNL     1     -10.690  16.451  65.139  1.00  0.00    -0.579 OA 
BRANCH  17  19
HETATM   19  C   UNL     1     -10.774  16.028  67.449  1.00  0.00    -0.306 A  
HETATM   20  C   UNL     1     -10.493  17.327  67.852  1.00  0.00    -0.382 A  
HETATM   21  N   UNL     1     -10.741  17.435  69.194  1.00  0.00    -0.350 NA 
HETATM   22  C   UNL     1     -11.140  16.224  69.685  1.00  0.00    -0.333 A  
HETATM   23  H   UNL     1     -10.644  18.288  69.743  1.00  0.00     0.000 HD 
HETATM   24  N   UNL     1     -11.532  16.008  70.953  1.00  0.00    -0.405 NA 
HETATM   25  C   UNL     1     -11.874  14.713  71.189  1.00  0.00    -0.323 A  
HETATM   26  C   UNL     1     -11.788  13.643  70.292  1.00  0.00    -0.336 A  
HETATM   27  C   UNL     1     -11.326  13.956  69.002  1.00  0.00    -0.324 A  
HETATM   28  C   UNL     1     -11.058  15.296  68.655  1.00  0.00    -0.282 A  
BRANCH  26  29
HETATM   29  C   UNL     1     -12.201  12.263  70.635  1.00  0.00    -0.378 A  
HETATM   30  C   UNL     1     -11.640  11.140  69.997  1.00  0.00    -0.421 A  
HETATM   31  C   UNL     1     -11.987   9.837  70.377  1.00  0.00    -0.218 A  
HETATM   32  C   UNL     1     -12.898   9.633  71.409  1.00  0.00    -0.379 A  
HETATM   33  C   UNL     1     -13.479  10.721  72.049  1.00  0.00    -0.296 A  
HETATM   34 CL   UNL     1     -13.299   8.036  71.902  1.00  0.00    -0.346 Cl 
HETATM   35  C   UNL     1     -13.140  12.020  71.657  1.00  0.00    -0.422 A  
ENDBRANCH  26  29
ENDBRANCH  17  19
ENDBRANCH  11  17
ENDBRANCH   7   9
ENDBRANCH   4   7
ENDBRANCH   3   4
ENDBRANCH   2   3
TORSDOF 7
ENDMDL
MODEL       26
REMARK 921   NORMALIZED FREE ENERGY PREDICTED BY IDOCK:   -7.10 KCAL/MOL
REMARK 922        TOTAL FREE ENERGY PREDICTED BY IDOCK:  -11.76 KCAL/MOL
REMARK 923 INTER-LIGAND FREE ENERGY PREDICTED BY IDOCK:  -10.56 KCAL/MOL
REMARK 924 INTRA-LIGAND FREE ENERGY PREDICTED BY IDOCK:   -1.20 KCAL/MOL
REMARK 927      BINDING AFFINITY PREDICTED BY RF-SCORE:    0.00 PKD
ROOT
HETATM    1  C   UNL     1      -9.436   7.931  73.313  1.00  0.00    -0.350 C  
HETATM    2  C   UNL     1     -10.864   7.649  72.876  1.00  0.00    -0.446 C  
ENDROOT
BRANCH   2   3
HETATM    3  C   UNL     1     -11.478   8.839  72.144  1.00  0.00    -0.351 C  
BRANCH   3   4
HETATM    4  S   UNL     1     -13.239   8.597  71.893  1.00  0.00    -0.397 S  
HETATM    5  O   UNL     1     -13.958   9.048  73.063  1.00  0.00    -0.367 OA 
HETATM    6  O   UNL     1     -13.446   7.284  71.329  1.00  0.00    -0.369 OA 
BRANCH   4   7
HETATM    7  N   UNL     1     -13.528   9.655  70.606  1.00  0.00    -0.580 N  
HETATM    8  H   UNL     1     -14.079   9.365  69.798  1.00  0.00     0.000 HD 
BRANCH   7   9
HETATM    9  C   UNL     1     -12.973  10.969  70.691  1.00  0.00    -0.131 A  
HETATM   10  C   UNL     1     -12.077  11.426  69.716  1.00  0.00    -0.320 A  
HETATM   11  C   UNL     1     -11.735  12.779  69.647  1.00  0.00    -0.372 A  
HETATM   12  F   UNL     1     -11.621  10.552  68.805  1.00  0.00    -0.298 F  
HETATM   13  C   UNL     1     -13.363  11.813  71.729  1.00  0.00    -0.342 A  
HETATM   14  C   UNL     1     -12.128  13.614  70.694  1.00  0.00    -0.323 A  
HETATM   15  C   UNL     1     -12.913  13.132  71.745  1.00  0.00    -0.435 A  
HETATM   16  F   UNL     1     -11.804  14.915  70.709  1.00  0.00    -0.284 F  
BRANCH  11  17
HETATM   17  C   UNL     1     -11.018  13.358  68.486  1.00  0.00    -0.268 C  
HETATM   18  O   UNL     1      -9.913  13.864  68.669  1.00  0.00    -0.227 OA 
BRANCH  17  19
HETATM   19  C   UNL     1     -11.609  13.303  67.143  1.00  0.00    -0.402 A  
HETATM   20  C   UNL     1     -12.653  14.130  66.749  1.00  0.00     0.018 A  
HETATM   21  N   UNL     1     -12.863  13.964  65.406  1.00  0.00    -0.722 NA 
HETATM   22  C   UNL     1     -12.007  13.015  64.922  1.00  0.00    -0.396 A  
HETATM   23  H   UNL     1     -13.553  14.470  64.852  1.00  0.00     0.000 HD 
HETATM   24  N   UNL     1     -11.905  12.672  63.627  1.00  0.00    -0.488 NA 
HETATM   25  C   UNL     1     -10.982  11.697  63.408  1.00  0.00    -0.362 A  
HETATM   26  C   UNL     1     -10.228  11.021  64.372  1.00  0.00    -0.409 A  
HETATM   27  C   UNL     1     -10.432  11.418  65.705  1.00  0.00    -0.316 A  
HETATM   28  C   UNL     1     -11.293  12.496  65.995  1.00  0.00    -0.386 A  
BRANCH  26  29
HETATM   29  C   UNL     1      -9.228   9.981  64.036  1.00  0.00    -0.318 A  
HETATM   30  C   UNL     1      -8.572   9.232  65.032  1.00  0.00    -0.200 A  
HETATM   31  C   UNL     1      -7.680   8.203  64.702  1.00  0.00    -0.118 A  
HETATM   32  C   UNL     1      -7.433   7.900  63.367  1.00  0.00    -0.122 A  
HETATM   33  C   UNL     1      -8.054   8.629  62.361  1.00  0.00    -0.167 A  
HETATM   34 CL   UNL     1      -6.367   6.615  62.958  1.00  0.00    -0.041 Cl 
HETATM   35  C   UNL     1      -8.933   9.664  62.695  1.00  0.00    -0.274 A  
ENDBRANCH  26  29
ENDBRANCH  17  19
ENDBRANCH  11  17
ENDBRANCH   7   9
ENDBRANCH   4   7
ENDBRANCH   3   4
ENDBRANCH   2   3
TORSDOF 7
ENDMDL
MODEL       27
REMARK 921   NORMALIZED FREE ENERGY PREDICTED BY IDOCK:   -7.10 KCAL/MOL
REMARK 922        TOTAL FREE ENERGY PREDICTED BY IDOCK:  -11.76 KCAL/MOL
REMARK 923 INTER-LIGAND FREE ENERGY PREDICTED BY IDOCK:  -10.32 KCAL/MOL
REMARK 924 INTRA-LIGAND FREE ENERGY PREDICTED BY IDOCK:   -1.44 KCAL/MOL
REMARK 927      BINDING AFFINITY PREDICTED BY RF-SCORE:    0.00 PKD
ROOT
HETATM    1  C   UNL     1      -9.746   4.064  70.106  1.00  0.00    -0.265 C  
HETATM    2  C   UNL     1     -10.236   5.490  69.910  1.00  0.00    -0.338 C  
ENDROOT
BRANCH   2   3
HETATM    3  C   UNL     1      -9.785   6.405  71.045  1.00  0.00    -0.176 C  
BRANCH   3   4
HETATM    4  S   UNL     1     -11.196   7.068  71.933  1.00  0.00    -0.259 S  
HETATM    5  O   UNL     1     -10.741   8.034  72.908  1.00  0.00    -0.355 OA 
HETATM    6  O   UNL     1     -12.067   5.975  72.291  1.00  0.00    -0.301 OA 
BRANCH   4   7
HETATM    7  N   UNL     1     -12.016   7.863  70.685  1.00  0.00    -0.483 N  
HETATM    8  H   UNL     1     -12.573   7.345  70.006  1.00  0.00     0.000 HD 
BRANCH   7   9
HETATM    9  C   UNL     1     -11.899   9.286  70.618  1.00  0.00    -0.192 A  
HETATM   10  C   UNL     1     -10.914   9.881  69.820  1.00  0.00    -0.268 A  
HETATM   11  C   UNL     1     -10.955  11.250  69.545  1.00  0.00    -0.249 A  
HETATM   12  F   UNL     1      -9.980   9.094  69.262  1.00  0.00    -0.170 F  
HETATM   13  C   UNL     1     -12.803  10.082  71.317  1.00  0.00    -0.500 A  
HETATM   14  C   UNL     1     -11.863  12.039  70.255  1.00  0.00    -0.270 A  
HETATM   15  C   UNL     1     -12.763  11.467  71.157  1.00  0.00    -0.479 A  
HETATM   16  F   UNL     1     -11.933  13.364  70.067  1.00  0.00    -0.345 F  
BRANCH  11  17
HETATM   17  C   UNL     1     -10.111  11.876  68.500  1.00  0.00    -0.206 C  
HETATM   18  O   UNL     1      -8.899  11.953  68.692  1.00  0.00    -0.139 OA 
BRANCH  17  19
HETATM   19  C   UNL     1     -10.711  12.368  67.254  1.00  0.00    -0.259 A  
HETATM   20  C   UNL     1     -11.611  11.618  66.509  1.00  0.00    -0.087 A  
HETATM   21  N   UNL     1     -12.121  12.405  65.511  1.00  0.00    -0.559 NA 
HETATM   22  C   UNL     1     -11.542  13.642  65.563  1.00  0.00    -0.324 A  
HETATM   23  H   UNL     1     -12.824  12.113  64.833  1.00  0.00     0.000 HD 
HETATM   24  N   UNL     1     -11.878  14.673  64.768  1.00  0.00    -0.424 NA 
HETATM   25  C   UNL     1     -11.148  15.794  65.018  1.00  0.00    -0.370 A  
HETATM   26  C   UNL     1     -10.097  15.927  65.930  1.00  0.00    -0.376 A  
HETATM   27  C   UNL     1      -9.788  14.783  66.687  1.00  0.00    -0.270 A  
HETATM   28  C   UNL     1     -10.574  13.620  66.559  1.00  0.00    -0.282 A  
BRANCH  26  29
HETATM   29  C   UNL     1      -9.368  17.198  66.147  1.00  0.00    -0.222 A  
HETATM   30  C   UNL     1     -10.038  18.432  66.237  1.00  0.00    -0.409 A  
HETATM   31  C   UNL     1      -9.346  19.620  66.512  1.00  0.00    -0.464 A  
HETATM   32  C   UNL     1      -7.969  19.591  66.709  1.00  0.00    -0.287 A  
HETATM   33  C   UNL     1      -7.277  18.391  66.612  1.00  0.00    -0.240 A  
HETATM   34 CL   UNL     1      -7.121  21.039  67.082  1.00  0.00    -0.413 Cl 
HETATM   35  C   UNL     1      -7.970  17.211  66.325  1.00  0.00    -0.339 A  
ENDBRANCH  26  29
ENDBRANCH  17  19
ENDBRANCH  11  17
ENDBRANCH   7   9
ENDBRANCH   4   7
ENDBRANCH   3   4
ENDBRANCH   2   3
TORSDOF 7
ENDMDL
MODEL       28
REMARK 921   NORMALIZED FREE ENERGY PREDICTED BY IDOCK:   -7.10 KCAL/MOL
REMARK 922        TOTAL FREE ENERGY PREDICTED BY IDOCK:  -11.76 KCAL/MOL
REMARK 923 INTER-LIGAND FREE ENERGY PREDICTED BY IDOCK:  -10.48 KCAL/MOL
REMARK 924 INTRA-LIGAND FREE ENERGY PREDICTED BY IDOCK:   -1.27 KCAL/MOL
REMARK 927      BINDING AFFINITY PREDICTED BY RF-SCORE:    0.00 PKD
ROOT
HETATM    1  C   UNL     1     -10.258  19.948  68.622  1.00  0.00    -0.494 C  
HETATM    2  C   UNL     1     -10.795  19.369  67.323  1.00  0.00    -0.561 C  
ENDROOT
BRANCH   2   3
HETATM    3  C   UNL     1      -9.742  18.540  66.594  1.00  0.00    -0.341 C  
BRANCH   3   4
HETATM    4  S   UNL     1      -9.625  16.893  67.297  1.00  0.00    -0.251 S  
HETATM    5  O   UNL     1     -10.909  16.506  67.835  1.00  0.00    -0.342 OA 
HETATM    6  O   UNL     1      -8.414  16.813  68.080  1.00  0.00    -0.196 OA 
BRANCH   4   7
HETATM    7  N   UNL     1      -9.289  15.977  65.915  1.00  0.00    -0.330 N  
HETATM    8  H   UNL     1      -8.441  16.136  65.370  1.00  0.00     0.000 HD 
BRANCH   7   9
HETATM    9  C   UNL     1     -10.236  14.974  65.539  1.00  0.00    -0.378 A  
HETATM   10  C   UNL     1     -10.128  13.672  66.043  1.00  0.00    -0.312 A  
HETATM   11  C   UNL     1     -11.180  12.765  65.892  1.00  0.00    -0.334 A  
HETATM   12  F   UNL     1      -9.029  13.344  66.742  1.00  0.00    -0.226 F  
HETATM   13  C   UNL     1     -11.296  15.312  64.701  1.00  0.00    -0.364 A  
HETATM   14  C   UNL     1     -12.235  13.113  65.046  1.00  0.00    -0.440 A  
HETATM   15  C   UNL     1     -12.283  14.365  64.430  1.00  0.00    -0.481 A  
HETATM   16  F   UNL     1     -13.260  12.276  64.828  1.00  0.00    -0.462 F  
BRANCH  11  17
HETATM   17  C   UNL     1     -11.234  11.481  66.631  1.00  0.00    -0.271 C  
HETATM   18  O   UNL     1     -11.944  11.408  67.631  1.00  0.00    -0.630 OA 
BRANCH  17  19
HETATM   19  C   UNL     1     -10.474  10.317  66.158  1.00  0.00    -0.200 A  
HETATM   20  C   UNL     1      -9.816  10.299  64.935  1.00  0.00    -0.336 A  
HETATM   21  N   UNL     1      -9.063   9.159  64.858  1.00  0.00    -0.402 NA 
HETATM   22  C   UNL     1      -9.246   8.411  65.986  1.00  0.00    -0.187 A  
HETATM   23  H   UNL     1      -8.457   8.905  64.077  1.00  0.00     0.000 HD 
HETATM   24  N   UNL     1      -8.591   7.268  66.257  1.00  0.00    -0.136 NA 
HETATM   25  C   UNL     1      -8.960   6.715  67.445  1.00  0.00    -0.114 A  
HETATM   26  C   UNL     1      -9.952   7.176  68.316  1.00  0.00    -0.171 A  
HETATM   27  C   UNL     1     -10.613   8.355  67.928  1.00  0.00    -0.218 A  
HETATM   28  C   UNL     1     -10.207   9.042  66.766  1.00  0.00    -0.341 A  
BRANCH  26  29
HETATM   29  C   UNL     1     -10.274   6.515  69.601  1.00  0.00    -0.220 A  
HETATM   30  C   UNL     1      -9.771   5.241  69.927  1.00  0.00    -0.260 A  
HETATM   31  C   UNL     1     -10.025   4.654  71.174  1.00  0.00    -0.265 A  
HETATM   32  C   UNL     1     -10.781   5.336  72.121  1.00  0.00    -0.209 A  
HETATM   33  C   UNL     1     -11.303   6.588  71.825  1.00  0.00    -0.325 A  
HETATM   34 CL   UNL     1     -11.065   4.635  73.665  1.00  0.00    -0.385 Cl 
HETATM   35  C   UNL     1     -11.059   7.164  70.574  1.00  0.00    -0.299 A  
ENDBRANCH  26  29
ENDBRANCH  17  19
ENDBRANCH  11  17
ENDBRANCH   7   9
ENDBRANCH   4   7
ENDBRANCH   3   4
ENDBRANCH   2   3
TORSDOF 7
ENDMDL
MODEL       29
REMARK 921   NORMALIZED FREE ENERGY PREDICTED BY IDOCK:   -7.07 KCAL/MOL
REMARK 922        TOTAL FREE ENERGY PREDICTED BY IDOCK:  -11.71 KCAL/MOL
REMARK 923 INTER-LIGAND FREE ENERGY PREDICTED BY IDOCK:  -10.38 KCAL/MOL
REMARK 924 INTRA-LIGAND FREE ENERGY PREDICTED BY IDOCK:   -1.33 KCAL/MOL
REMARK 927      BINDING AFFINITY PREDICTED BY RF-SCORE:    0.00 PKD
ROOT
HETATM    1  C   UNL     1      -8.497  19.946  66.267  1.00  0.00    -0.373 C  
HETATM    2  C   UNL     1      -9.945  19.489  66.198  1.00  0.00    -0.526 C  
ENDROOT
BRANCH   2   3
HETATM    3  C   UNL     1     -10.170  18.195  66.975  1.00  0.00    -0.365 C  
BRANCH   3   4
HETATM    4  S   UNL     1     -10.312  16.796  65.860  1.00  0.00    -0.271 S  
HETATM    5  O   UNL     1      -9.039  16.116  65.777  1.00  0.00    -0.398 OA 
HETATM    6  O   UNL     1     -11.029  17.220  64.681  1.00  0.00    -1.013 OA 
BRANCH   4   7
HETATM    7  N   UNL     1     -11.419  15.830  66.697  1.00  0.00     0.103 N  
HETATM    8  H   UNL     1     -12.173  16.245  67.245  1.00  0.00     0.000 HD 
BRANCH   7   9
HETATM    9  C   UNL     1     -11.260  14.412  66.610  1.00  0.00    -0.339 A  
HETATM   10  C   UNL     1     -10.625  13.704  67.639  1.00  0.00    -0.241 A  
HETATM   11  C   UNL     1     -10.694  12.310  67.686  1.00  0.00    -0.250 A  
HETATM   12  F   UNL     1     -10.021  14.399  68.616  1.00  0.00    -0.217 F  
HETATM   13  C   UNL     1     -11.781  13.729  65.513  1.00  0.00    -0.356 A  
HETATM   14  C   UNL     1     -11.215  11.636  66.580  1.00  0.00    -0.294 A  
HETATM   15  C   UNL     1     -11.729  12.336  65.486  1.00  0.00    -0.433 A  
HETATM   16  F   UNL     1     -11.278  10.298  66.543  1.00  0.00    -0.130 F  
BRANCH  11  17
HETATM   17  C   UNL     1     -10.282  11.535  68.880  1.00  0.00    -0.149 C  
HETATM   18  O   UNL     1      -9.121  11.137  68.952  1.00  0.00    -0.164 OA 
BRANCH  17  19
HETATM   19  C   UNL     1     -11.238  11.275  69.965  1.00  0.00    -0.213 A  
HETATM   20  C   UNL     1     -12.130  12.234  70.423  1.00  0.00    -0.300 A  
HETATM   21  N   UNL     1     -12.996  11.645  71.304  1.00  0.00    -0.338 NA 
HETATM   22  C   UNL     1     -12.662  10.330  71.464  1.00  0.00    -0.452 A  
HETATM   23  H   UNL     1     -13.771  12.115  71.771  1.00  0.00     0.000 HD 
HETATM   24  N   UNL     1     -13.360   9.452  72.205  1.00  0.00    -0.458 NA 
HETATM   25  C   UNL     1     -12.814   8.205  72.205  1.00  0.00    -0.281 A  
HETATM   26  C   UNL     1     -11.623   7.809  71.589  1.00  0.00    -0.304 A  
HETATM   27  C   UNL     1     -10.939   8.806  70.871  1.00  0.00    -0.315 A  
HETATM   28  C   UNL     1     -11.502  10.091  70.738  1.00  0.00    -0.438 A  
BRANCH  26  29
HETATM   29  C   UNL     1     -11.113   6.419  71.628  1.00  0.00    -0.314 A  
HETATM   30  C   UNL     1     -10.568   5.796  70.489  1.00  0.00    -0.359 A  
HETATM   31  C   UNL     1     -10.026   4.506  70.554  1.00  0.00    -0.278 A  
HETATM   32  C   UNL     1     -10.012   3.818  71.763  1.00  0.00    -0.157 A  
HETATM   33  C   UNL     1     -10.555   4.400  72.901  1.00  0.00    -0.264 A  
HETATM   34 CL   UNL     1      -9.315   2.249  71.855  1.00  0.00    -0.157 Cl 
HETATM   35  C   UNL     1     -11.108   5.682  72.829  1.00  0.00    -0.334 A  
ENDBRANCH  26  29
ENDBRANCH  17  19
ENDBRANCH  11  17
ENDBRANCH   7   9
ENDBRANCH   4   7
ENDBRANCH   3   4
ENDBRANCH   2   3
TORSDOF 7
ENDMDL
MODEL       30
REMARK 921   NORMALIZED FREE ENERGY PREDICTED BY IDOCK:   -7.06 KCAL/MOL
REMARK 922        TOTAL FREE ENERGY PREDICTED BY IDOCK:  -11.70 KCAL/MOL
REMARK 923 INTER-LIGAND FREE ENERGY PREDICTED BY IDOCK:  -10.05 KCAL/MOL
REMARK 924 INTRA-LIGAND FREE ENERGY PREDICTED BY IDOCK:   -1.65 KCAL/MOL
REMARK 927      BINDING AFFINITY PREDICTED BY RF-SCORE:    0.00 PKD
ROOT
HETATM    1  C   UNL     1      -6.548  19.526  67.565  1.00  0.00    -0.235 C  
HETATM    2  C   UNL     1      -8.014  19.926  67.519  1.00  0.00    -0.331 C  
ENDROOT
BRANCH   2   3
HETATM    3  C   UNL     1      -8.680  19.492  66.216  1.00  0.00    -0.359 C  
BRANCH   3   4
HETATM    4  S   UNL     1     -10.230  18.647  66.539  1.00  0.00    -0.431 S  
HETATM    5  O   UNL     1     -10.351  17.510  65.655  1.00  0.00    -0.601 OA 
HETATM    6  O   UNL     1     -11.275  19.636  66.658  1.00  0.00    -0.247 OA 
BRANCH   4   7
HETATM    7  N   UNL     1      -9.980  18.112  68.123  1.00  0.00    -0.338 N  
HETATM    8  H   UNL     1     -10.018  18.758  68.911  1.00  0.00     0.000 HD 
BRANCH   7   9
HETATM    9  C   UNL     1      -9.712  16.721  68.318  1.00  0.00    -0.252 A  
HETATM   10  C   UNL     1     -10.754  15.831  68.609  1.00  0.00    -0.263 A  
HETATM   11  C   UNL     1     -10.546  14.452  68.545  1.00  0.00    -0.256 A  
HETATM   12  F   UNL     1     -11.971  16.334  68.871  1.00  0.00    -0.338 F  
HETATM   13  C   UNL     1      -8.411  16.246  68.171  1.00  0.00    -0.172 A  
HETATM   14  C   UNL     1      -9.237  13.987  68.401  1.00  0.00    -0.196 A  
HETATM   15  C   UNL     1      -8.170  14.874  68.244  1.00  0.00    -0.145 A  
HETATM   16  F   UNL     1      -8.962  12.675  68.367  1.00  0.00    -0.185 F  
BRANCH  11  17
HETATM   17  C   UNL     1     -11.663  13.478  68.574  1.00  0.00    -0.357 C  
HETATM   18  O   UNL     1     -12.148  13.107  67.507  1.00  0.00    -0.339 OA 
BRANCH  17  19
HETATM   19  C   UNL     1     -12.158  12.951  69.852  1.00  0.00    -0.335 A  
HETATM   20  C   UNL     1     -12.880  13.724  70.751  1.00  0.00    -0.232 A  
HETATM   21  N   UNL     1     -13.346  12.914  71.752  1.00  0.00    -0.408 NA 
HETATM   22  C   UNL     1     -12.909  11.636  71.548  1.00  0.00    -0.364 A  
HETATM   23  H   UNL     1     -13.929  13.219  72.531  1.00  0.00     0.000 HD 
HETATM   24  N   UNL     1     -13.253  10.583  72.310  1.00  0.00    -0.311 NA 
HETATM   25  C   UNL     1     -12.679   9.420  71.899  1.00  0.00    -0.401 A  
HETATM   26  C   UNL     1     -11.763   9.258  70.854  1.00  0.00    -0.360 A  
HETATM   27  C   UNL     1     -11.430  10.423  70.140  1.00  0.00    -0.396 A  
HETATM   28  C   UNL     1     -12.070  11.642  70.441  1.00  0.00    -0.462 A  
BRANCH  26  29
HETATM   29  C   UNL     1     -11.201   7.944  70.465  1.00  0.00    -0.259 A  
HETATM   30  C   UNL     1     -11.114   6.875  71.377  1.00  0.00    -0.284 A  
HETATM   31  C   UNL     1     -10.645   5.616  70.980  1.00  0.00    -0.318 A  
HETATM   32  C   UNL     1     -10.262   5.401  69.660  1.00  0.00    -0.274 A  
HETATM   33  C   UNL     1     -10.323   6.440  68.740  1.00  0.00    -0.232 A  
HETATM   34 CL   UNL     1      -9.720   3.848  69.161  1.00  0.00    -0.212 Cl 
HETATM   35  C   UNL     1     -10.779   7.699  69.144  1.00  0.00    -0.153 A  
ENDBRANCH  26  29
ENDBRANCH  17  19
ENDBRANCH  11  17
ENDBRANCH   7   9
ENDBRANCH   4   7
ENDBRANCH   3   4
ENDBRANCH   2   3
TORSDOF 7
ENDMDL
MODEL       31
REMARK 921   NORMALIZED FREE ENERGY PREDICTED BY IDOCK:   -7.04 KCAL/MOL
REMARK 922        TOTAL FREE ENERGY PREDICTED BY IDOCK:  -11.67 KCAL/MOL
REMARK 923 INTER-LIGAND FREE ENERGY PREDICTED BY IDOCK:  -10.00 KCAL/MOL
REMARK 924 INTRA-LIGAND FREE ENERGY PREDICTED BY IDOCK:   -1.67 KCAL/MOL
REMARK 927      BINDING AFFINITY PREDICTED BY RF-SCORE:    0.00 PKD
ROOT
HETATM    1  C   UNL     1      -6.366  14.540  70.525  1.00  0.00    -0.125 C  
HETATM    2  C   UNL     1      -5.909  15.692  69.644  1.00  0.00    -0.128 C  
ENDROOT
BRANCH   2   3
HETATM    3  C   UNL     1      -7.085  16.384  68.961  1.00  0.00    -0.208 C  
BRANCH   3   4
HETATM    4  S   UNL     1      -7.485  15.581  67.407  1.00  0.00    -0.217 S  
HETATM    5  O   UNL     1      -6.479  14.589  67.104  1.00  0.00    -0.221 OA 
HETATM    6  O   UNL     1      -7.869  16.594  66.453  1.00  0.00    -0.277 OA 
BRANCH   4   7
HETATM    7  N   UNL     1      -8.938  14.813  67.807  1.00  0.00    -0.178 N  
HETATM    8  H   UNL     1      -9.283  14.804  68.767  1.00  0.00     0.000 HD 
BRANCH   7   9
HETATM    9  C   UNL     1      -9.664  14.177  66.752  1.00  0.00    -0.277 A  
HETATM   10  C   UNL     1      -9.386  12.851  66.399  1.00  0.00    -0.187 A  
HETATM   11  C   UNL     1     -10.252  12.145  65.559  1.00  0.00    -0.294 A  
HETATM   12  F   UNL     1      -8.317  12.252  66.948  1.00  0.00    -0.171 F  
HETATM   13  C   UNL     1     -10.684  14.872  66.106  1.00  0.00    -0.317 A  
HETATM   14  C   UNL     1     -11.268  12.853  64.914  1.00  0.00    -0.300 A  
HETATM   15  C   UNL     1     -11.468  14.213  65.160  1.00  0.00    -0.336 A  
HETATM   16  F   UNL     1     -12.112  12.246  64.068  1.00  0.00    -0.428 F  
BRANCH  11  17
HETATM   17  C   UNL     1     -10.157  10.678  65.373  1.00  0.00    -0.291 C  
HETATM   18  O   UNL     1      -9.891  10.243  64.255  1.00  0.00    -0.329 OA 
BRANCH  17  19
HETATM   19  C   UNL     1     -10.351   9.770  66.511  1.00  0.00    -0.262 A  
HETATM   20  C   UNL     1      -9.994   8.429  66.468  1.00  0.00    -0.265 A  
HETATM   21  N   UNL     1     -10.133   7.896  67.721  1.00  0.00    -0.180 NA 
HETATM   22  C   UNL     1     -10.612   8.849  68.574  1.00  0.00    -0.141 A  
HETATM   23  H   UNL     1      -9.912   6.934  67.979  1.00  0.00     0.000 HD 
HETATM   24  N   UNL     1     -10.790   8.670  69.894  1.00  0.00    -0.231 NA 
HETATM   25  C   UNL     1     -11.285   9.774  70.517  1.00  0.00    -0.315 A  
HETATM   26  C   UNL     1     -11.664  10.979  69.918  1.00  0.00    -0.424 A  
HETATM   27  C   UNL     1     -11.482  11.060  68.526  1.00  0.00    -0.379 A  
HETATM   28  C   UNL     1     -10.873   9.995  67.832  1.00  0.00    -0.323 A  
BRANCH  26  29
HETATM   29  C   UNL     1     -12.179  12.138  70.683  1.00  0.00    -0.392 A  
HETATM   30  C   UNL     1     -11.859  13.463  70.329  1.00  0.00    -0.316 A  
HETATM   31  C   UNL     1     -12.408  14.553  71.017  1.00  0.00    -0.417 A  
HETATM   32  C   UNL     1     -13.293  14.338  72.068  1.00  0.00    -0.398 A  
HETATM   33  C   UNL     1     -13.618  13.043  72.450  1.00  0.00    -0.628 A  
HETATM   34 CL   UNL     1     -13.997  15.674  72.890  1.00  0.00    -0.577 Cl 
HETATM   35  C   UNL     1     -13.057  11.957  71.770  1.00  0.00    -0.465 A  
ENDBRANCH  26  29
ENDBRANCH  17  19
ENDBRANCH  11  17
ENDBRANCH   7   9
ENDBRANCH   4   7
ENDBRANCH   3   4
ENDBRANCH   2   3
TORSDOF 7
ENDMDL
MODEL       32
REMARK 921   NORMALIZED FREE ENERGY PREDICTED BY IDOCK:   -7.01 KCAL/MOL
REMARK 922        TOTAL FREE ENERGY PREDICTED BY IDOCK:  -11.63 KCAL/MOL
REMARK 923 INTER-LIGAND FREE ENERGY PREDICTED BY IDOCK:   -9.32 KCAL/MOL
REMARK 924 INTRA-LIGAND FREE ENERGY PREDICTED BY IDOCK:   -2.31 KCAL/MOL
REMARK 927      BINDING AFFINITY PREDICTED BY RF-SCORE:    0.00 PKD
ROOT
HETATM    1  C   UNL     1     -10.998  15.780  64.827  1.00  0.00    -0.410 C  
HETATM    2  C   UNL     1     -10.375  14.464  65.267  1.00  0.00    -0.427 C  
ENDROOT
BRANCH   2   3
HETATM    3  C   UNL     1     -11.408  13.344  65.339  1.00  0.00    -0.291 C  
BRANCH   3   4
HETATM    4  S   UNL     1     -11.127  12.130  64.047  1.00  0.00    -0.427 S  
HETATM    5  O   UNL     1      -9.904  12.447  63.346  1.00  0.00    -0.370 OA 
HETATM    6  O   UNL     1     -12.371  11.907  63.349  1.00  0.00    -0.557 OA 
BRANCH   4   7
HETATM    7  N   UNL     1     -10.908  10.728  64.966  1.00  0.00    -0.094 N  
HETATM    8  H   UNL     1     -11.255   9.825  64.643  1.00  0.00     0.000 HD 
BRANCH   7   9
HETATM    9  C   UNL     1     -10.220  10.854  66.213  1.00  0.00    -0.247 A  
HETATM   10  C   UNL     1     -10.936  10.929  67.415  1.00  0.00    -0.293 A  
HETATM   11  C   UNL     1     -10.279  10.793  68.640  1.00  0.00    -0.198 A  
HETATM   12  F   UNL     1     -12.272  11.054  67.358  1.00  0.00     0.049 F  
HETATM   13  C   UNL     1      -8.827  10.857  66.230  1.00  0.00    -0.187 A  
HETATM   14  C   UNL     1      -8.883  10.800  68.646  1.00  0.00    -0.152 A  
HETATM   15  C   UNL     1      -8.158  10.861  67.453  1.00  0.00    -0.114 A  
HETATM   16  F   UNL     1      -8.189  10.707  69.789  1.00  0.00    -0.141 F  
BRANCH  11  17
HETATM   17  C   UNL     1     -11.009  10.592  69.914  1.00  0.00    -0.298 C  
HETATM   18  O   UNL     1     -10.878   9.522  70.505  1.00  0.00    -0.244 OA 
BRANCH  17  19
HETATM   19  C   UNL     1     -11.848  11.662  70.468  1.00  0.00    -0.328 A  
HETATM   20  C   UNL     1     -12.867  11.420  71.380  1.00  0.00    -0.397 A  
HETATM   21  N   UNL     1     -13.343  12.619  71.837  1.00  0.00    -0.451 NA 
HETATM   22  C   UNL     1     -12.687  13.641  71.212  1.00  0.00    -0.361 A  
HETATM   23  H   UNL     1     -14.076  12.732  72.536  1.00  0.00     0.000 HD 
HETATM   24  N   UNL     1     -12.866  14.944  71.490  1.00  0.00    -0.312 NA 
HETATM   25  C   UNL     1     -12.095  15.761  70.722  1.00  0.00    -0.408 A  
HETATM   26  C   UNL     1     -11.237  15.378  69.686  1.00  0.00    -0.289 A  
HETATM   27  C   UNL     1     -11.146  13.997  69.439  1.00  0.00    -0.246 A  
HETATM   28  C   UNL     1     -11.832  13.086  70.267  1.00  0.00    -0.294 A  
BRANCH  26  29
HETATM   29  C   UNL     1     -10.419  16.342  68.913  1.00  0.00    -0.273 A  
HETATM   30  C   UNL     1      -9.019  16.227  68.829  1.00  0.00    -0.243 A  
HETATM   31  C   UNL     1      -8.262  17.103  68.039  1.00  0.00    -0.216 A  
HETATM   32  C   UNL     1      -8.896  18.105  67.311  1.00  0.00    -0.251 A  
HETATM   33  C   UNL     1     -10.275  18.252  67.384  1.00  0.00    -0.385 A  
HETATM   34 CL   UNL     1      -7.975  19.158  66.311  1.00  0.00    -0.306 Cl 
HETATM   35  C   UNL     1     -11.025  17.385  68.185  1.00  0.00    -0.160 A  
ENDBRANCH  26  29
ENDBRANCH  17  19
ENDBRANCH  11  17
ENDBRANCH   7   9
ENDBRANCH   4   7
ENDBRANCH   3   4
ENDBRANCH   2   3
TORSDOF 7
ENDMDL
MODEL       33
REMARK 921   NORMALIZED FREE ENERGY PREDICTED BY IDOCK:   -6.93 KCAL/MOL
REMARK 922        TOTAL FREE ENERGY PREDICTED BY IDOCK:  -11.52 KCAL/MOL
REMARK 923 INTER-LIGAND FREE ENERGY PREDICTED BY IDOCK:   -9.15 KCAL/MOL
REMARK 924 INTRA-LIGAND FREE ENERGY PREDICTED BY IDOCK:   -2.37 KCAL/MOL
REMARK 927      BINDING AFFINITY PREDICTED BY RF-SCORE:    0.00 PKD
ROOT
HETATM    1  C   UNL     1     -11.896  15.414  69.491  1.00  0.00    -0.370 C  
HETATM    2  C   UNL     1     -12.010  14.142  68.668  1.00  0.00    -0.373 C  
ENDROOT
BRANCH   2   3
HETATM    3  C   UNL     1     -10.934  13.126  69.040  1.00  0.00    -0.197 C  
BRANCH   3   4
HETATM    4  S   UNL     1     -11.670  11.576  69.566  1.00  0.00    -0.373 S  
HETATM    5  O   UNL     1     -12.515  11.062  68.511  1.00  0.00    -0.440 OA 
HETATM    6  O   UNL     1     -12.148  11.731  70.919  1.00  0.00    -0.330 OA 
BRANCH   4   7
HETATM    7  N   UNL     1     -10.295  10.603  69.718  1.00  0.00    -0.425 N  
HETATM    8  H   UNL     1     -10.194   9.950  70.494  1.00  0.00     0.000 HD 
BRANCH   7   9
HETATM    9  C   UNL     1      -9.280  10.730  68.719  1.00  0.00    -0.189 A  
HETATM   10  C   UNL     1      -9.515  10.294  67.409  1.00  0.00    -0.153 A  
HETATM   11  C   UNL     1      -8.641  10.644  66.377  1.00  0.00    -0.151 A  
HETATM   12  F   UNL     1     -10.638   9.601  67.156  1.00  0.00    -0.287 F  
HETATM   13  C   UNL     1      -8.069  11.334  69.045  1.00  0.00    -0.045 A  
HETATM   14  C   UNL     1      -7.428  11.246  66.716  1.00  0.00    -0.146 A  
HETATM   15  C   UNL     1      -7.127  11.565  68.043  1.00  0.00    -0.079 A  
HETATM   16  F   UNL     1      -6.527  11.577  65.780  1.00  0.00     0.051 F  
BRANCH  11  17
HETATM   17  C   UNL     1      -8.979  10.446  64.948  1.00  0.00    -0.199 C  
HETATM   18  O   UNL     1      -8.403   9.555  64.326  1.00  0.00    -0.147 OA 
BRANCH  17  19
HETATM   19  C   UNL     1     -10.000  11.280  64.301  1.00  0.00    -0.347 A  
HETATM   20  C   UNL     1     -10.887  10.781  63.357  1.00  0.00     0.404 A  
HETATM   21  N   UNL     1     -11.817  11.745  63.074  1.00  0.00    -0.836 NA 
HETATM   22  C   UNL     1     -11.532  12.878  63.783  1.00  0.00    -0.459 A  
HETATM   23  H   UNL     1     -12.602  11.635  62.433  1.00  0.00     0.000 HD 
HETATM   24  N   UNL     1     -12.295  13.985  63.788  1.00  0.00    -0.749 NA 
HETATM   25  C   UNL     1     -11.787  14.976  64.570  1.00  0.00    -0.371 A  
HETATM   26  C   UNL     1     -10.576  14.958  65.270  1.00  0.00    -0.421 A  
HETATM   27  C   UNL     1      -9.824  13.774  65.171  1.00  0.00    -0.125 A  
HETATM   28  C   UNL     1     -10.341  12.667  64.466  1.00  0.00    -0.369 A  
BRANCH  26  29
HETATM   29  C   UNL     1     -10.111  16.082  66.115  1.00  0.00    -0.346 A  
HETATM   30  C   UNL     1      -9.090  15.920  67.070  1.00  0.00    -0.236 A  
HETATM   31  C   UNL     1      -8.610  17.005  67.815  1.00  0.00    -0.213 A  
HETATM   32  C   UNL     1      -9.139  18.275  67.611  1.00  0.00    -0.263 A  
HETATM   33  C   UNL     1     -10.157  18.466  66.686  1.00  0.00    -0.399 A  
HETATM   34 CL   UNL     1      -8.528  19.616  68.497  1.00  0.00    -0.365 Cl 
HETATM   35  C   UNL     1     -10.643  17.377  65.955  1.00  0.00    -0.201 A  
ENDBRANCH  26  29
ENDBRANCH  17  19
ENDBRANCH  11  17
ENDBRANCH   7   9
ENDBRANCH   4   7
ENDBRANCH   3   4
ENDBRANCH   2   3
TORSDOF 7
ENDMDL
MODEL       34
REMARK 921   NORMALIZED FREE ENERGY PREDICTED BY IDOCK:   -6.91 KCAL/MOL
REMARK 922        TOTAL FREE ENERGY PREDICTED BY IDOCK:  -11.49 KCAL/MOL
REMARK 923 INTER-LIGAND FREE ENERGY PREDICTED BY IDOCK:   -9.11 KCAL/MOL
REMARK 924 INTRA-LIGAND FREE ENERGY PREDICTED BY IDOCK:   -2.38 KCAL/MOL
REMARK 927      BINDING AFFINITY PREDICTED BY RF-SCORE:    0.00 PKD
ROOT
HETATM    1  C   UNL     1     -11.081   6.236  68.951  1.00  0.00    -0.434 C  
HETATM    2  C   UNL     1     -10.907   6.605  67.487  1.00  0.00    -0.417 C  
ENDROOT
BRANCH   2   3
HETATM    3  C   UNL     1     -10.268   7.981  67.321  1.00  0.00    -0.275 C  
BRANCH   3   4
HETATM    4  S   UNL     1      -8.931   7.926  66.126  1.00  0.00    -0.158 S  
HETATM    5  O   UNL     1      -9.057   9.039  65.211  1.00  0.00    -0.209 OA 
HETATM    6  O   UNL     1      -8.787   6.568  65.660  1.00  0.00    -0.133 OA 
BRANCH   4   7
HETATM    7  N   UNL     1      -7.592   8.167  67.131  1.00  0.00    -0.095 N  
HETATM    8  H   UNL     1      -6.838   8.800  66.864  1.00  0.00     0.000 HD 
BRANCH   7   9
HETATM    9  C   UNL     1      -7.556   7.451  68.368  1.00  0.00    -0.114 A  
HETATM   10  C   UNL     1      -7.809   8.111  69.578  1.00  0.00    -0.104 A  
HETATM   11  C   UNL     1      -8.030   7.383  70.749  1.00  0.00    -0.104 A  
HETATM   12  F   UNL     1      -7.914   9.450  69.568  1.00  0.00    -0.076 F  
HETATM   13  C   UNL     1      -7.310   6.080  68.360  1.00  0.00    -0.085 A  
HETATM   14  C   UNL     1      -7.778   6.009  70.730  1.00  0.00    -0.098 A  
HETATM   15  C   UNL     1      -7.392   5.363  69.553  1.00  0.00    -0.065 A  
HETATM   16  F   UNL     1      -7.935   5.256  71.827  1.00  0.00    -0.101 F  
BRANCH  11  17
HETATM   17  C   UNL     1      -8.566   8.006  71.982  1.00  0.00    -0.146 C  
HETATM   18  O   UNL     1      -7.775   8.358  72.855  1.00  0.00    -0.241 OA 
BRANCH  17  19
HETATM   19  C   UNL     1     -10.010   8.220  72.141  1.00  0.00    -0.343 A  
HETATM   20  C   UNL     1     -10.779   7.501  73.047  1.00  0.00    -0.384 A  
HETATM   21  N   UNL     1     -12.035   8.043  73.086  1.00  0.00    -0.578 NA 
HETATM   22  C   UNL     1     -12.117   9.075  72.194  1.00  0.00    -0.342 A  
HETATM   23  H   UNL     1     -12.794   7.726  73.688  1.00  0.00     0.000 HD 
HETATM   24  N   UNL     1     -13.193   9.865  72.041  1.00  0.00    -0.451 NA 
HETATM   25  C   UNL     1     -13.021  10.816  71.082  1.00  0.00    -0.371 A  
HETATM   26  C   UNL     1     -11.909  10.979  70.250  1.00  0.00    -0.456 A  
HETATM   27  C   UNL     1     -10.849  10.078  70.454  1.00  0.00    -0.380 A  
HETATM   28  C   UNL     1     -10.914   9.139  71.503  1.00  0.00    -0.434 A  
BRANCH  26  29
HETATM   29  C   UNL     1     -11.803  12.058  69.242  1.00  0.00    -0.377 A  
HETATM   30  C   UNL     1     -11.857  13.418  69.602  1.00  0.00    -0.394 A  
HETATM   31  C   UNL     1     -11.686  14.432  68.649  1.00  0.00    -0.367 A  
HETATM   32  C   UNL     1     -11.450  14.101  67.318  1.00  0.00    -0.350 A  
HETATM   33  C   UNL     1     -11.406  12.768  66.929  1.00  0.00    -0.371 A  
HETATM   34 CL   UNL     1     -11.204  15.340  66.152  1.00  0.00    -0.280 Cl 
HETATM   35  C   UNL     1     -11.591  11.761  67.881  1.00  0.00    -0.377 A  
ENDBRANCH  26  29
ENDBRANCH  17  19
ENDBRANCH  11  17
ENDBRANCH   7   9
ENDBRANCH   4   7
ENDBRANCH   3   4
ENDBRANCH   2   3
TORSDOF 7
ENDMDL
MODEL       35
REMARK 921   NORMALIZED FREE ENERGY PREDICTED BY IDOCK:   -6.90 KCAL/MOL
REMARK 922        TOTAL FREE ENERGY PREDICTED BY IDOCK:  -11.47 KCAL/MOL
REMARK 923 INTER-LIGAND FREE ENERGY PREDICTED BY IDOCK:   -9.76 KCAL/MOL
REMARK 924 INTRA-LIGAND FREE ENERGY PREDICTED BY IDOCK:   -1.71 KCAL/MOL
REMARK 927      BINDING AFFINITY PREDICTED BY RF-SCORE:    0.00 PKD
ROOT
HETATM    1  C   UNL     1      -9.975   4.455  65.665  1.00  0.00    -0.247 C  
HETATM    2  C   UNL     1     -10.630   5.177  66.831  1.00  0.00    -0.234 C  
ENDROOT
BRANCH   2   3
HETATM    3  C   UNL     1     -10.019   4.767  68.168  1.00  0.00    -0.087 C  
BRANCH   3   4
HETATM    4  S   UNL     1     -10.097   6.116  69.349  1.00  0.00    -0.200 S  
HETATM    5  O   UNL     1      -8.769   6.646  69.563  1.00  0.00    -0.134 OA 
HETATM    6  O   UNL     1     -10.945   5.717  70.446  1.00  0.00    -0.298 OA 
BRANCH   4   7
HETATM    7  N   UNL     1     -11.025   7.240  68.491  1.00  0.00    -0.441 N  
HETATM    8  H   UNL     1     -11.916   6.978  68.070  1.00  0.00     0.000 HD 
BRANCH   7   9
HETATM    9  C   UNL     1     -10.514   8.571  68.376  1.00  0.00    -0.171 A  
HETATM   10  C   UNL     1      -9.835   8.973  67.219  1.00  0.00    -0.196 A  
HETATM   11  C   UNL     1      -9.564  10.324  66.990  1.00  0.00    -0.205 A  
HETATM   12  F   UNL     1      -9.524   8.043  66.302  1.00  0.00    -0.225 F  
HETATM   13  C   UNL     1     -10.736   9.482  69.406  1.00  0.00    -0.244 A  
HETATM   14  C   UNL     1      -9.787  11.228  68.031  1.00  0.00    -0.178 A  
HETATM   15  C   UNL     1     -10.342  10.809  69.242  1.00  0.00    -0.228 A  
HETATM   16  F   UNL     1      -9.517  12.533  67.892  1.00  0.00    -0.171 F  
BRANCH  11  17
HETATM   17  C   UNL     1      -9.101  10.830  65.676  1.00  0.00    -0.194 C  
HETATM   18  O   UNL     1      -7.929  10.646  65.355  1.00  0.00    -0.148 OA 
BRANCH  17  19
HETATM   19  C   UNL     1     -10.033  11.512  64.770  1.00  0.00    -0.304 A  
HETATM   20  C   UNL     1     -10.701  10.852  63.746  1.00  0.00    -0.086 A  
HETATM   21  N   UNL     1     -11.618  11.707  63.197  1.00  0.00    -0.861 NA 
HETATM   22  C   UNL     1     -11.537  12.924  63.812  1.00  0.00    -0.475 A  
HETATM   23  H   UNL     1     -12.264  11.471  62.444  1.00  0.00     0.000 HD 
HETATM   24  N   UNL     1     -12.353  13.962  63.558  1.00  0.00    -0.765 NA 
HETATM   25  C   UNL     1     -12.057  15.063  64.301  1.00  0.00    -0.306 A  
HETATM   26  C   UNL     1     -10.997  15.211  65.200  1.00  0.00    -0.428 A  
HETATM   27  C   UNL     1     -10.170  14.086  65.369  1.00  0.00    -0.368 A  
HETATM   28  C   UNL     1     -10.482  12.877  64.714  1.00  0.00    -0.371 A  
BRANCH  26  29
HETATM   29  C   UNL     1     -10.763  16.447  65.981  1.00  0.00    -0.194 A  
HETATM   30  C   UNL     1     -10.676  17.710  65.364  1.00  0.00     0.039 A  
HETATM   31  C   UNL     1     -10.524  18.881  66.119  1.00  0.00    -0.521 A  
HETATM   32  C   UNL     1     -10.464  18.809  67.507  1.00  0.00    -0.435 A  
HETATM   33  C   UNL     1     -10.533  17.577  68.145  1.00  0.00    -0.386 A  
HETATM   34 CL   UNL     1     -10.314  20.247  68.439  1.00  0.00    -0.421 Cl 
HETATM   35  C   UNL     1     -10.671  16.410  67.387  1.00  0.00    -0.278 A  
ENDBRANCH  26  29
ENDBRANCH  17  19
ENDBRANCH  11  17
ENDBRANCH   7   9
ENDBRANCH   4   7
ENDBRANCH   3   4
ENDBRANCH   2   3
TORSDOF 7
ENDMDL
MODEL       36
REMARK 921   NORMALIZED FREE ENERGY PREDICTED BY IDOCK:   -6.83 KCAL/MOL
REMARK 922        TOTAL FREE ENERGY PREDICTED BY IDOCK:  -11.37 KCAL/MOL
REMARK 923 INTER-LIGAND FREE ENERGY PREDICTED BY IDOCK:   -9.91 KCAL/MOL
REMARK 924 INTRA-LIGAND FREE ENERGY PREDICTED BY IDOCK:   -1.46 KCAL/MOL
REMARK 927      BINDING AFFINITY PREDICTED BY RF-SCORE:    0.00 PKD
ROOT
HETATM    1  C   UNL     1      -9.686  11.547  67.122  1.00  0.00    -0.199 C  
HETATM    2  C   UNL     1     -10.067  11.160  65.703  1.00  0.00    -0.304 C  
ENDROOT
BRANCH   2   3
HETATM    3  C   UNL     1     -11.547  11.405  65.426  1.00  0.00     0.214 C  
BRANCH   3   4
HETATM    4  S   UNL     1     -11.772  12.279  63.874  1.00  0.00    -0.495 S  
HETATM    5  O   UNL     1     -12.569  11.472  62.978  1.00  0.00    -0.263 OA 
HETATM    6  O   UNL     1     -10.503  12.838  63.474  1.00  0.00    -0.333 OA 
BRANCH   4   7
HETATM    7  N   UNL     1     -12.673  13.616  64.387  1.00  0.00    -0.653 N  
HETATM    8  H   UNL     1     -13.665  13.701  64.164  1.00  0.00     0.000 HD 
BRANCH   7   9
HETATM    9  C   UNL     1     -11.994  14.621  65.143  1.00  0.00    -0.334 A  
HETATM   10  C   UNL     1     -11.797  14.462  66.521  1.00  0.00    -0.390 A  
HETATM   11  C   UNL     1     -10.921  15.301  67.213  1.00  0.00    -0.327 A  
HETATM   12  F   UNL     1     -12.406  13.437  67.141  1.00  0.00    -0.391 F  
HETATM   13  C   UNL     1     -11.488  15.744  64.493  1.00  0.00    -0.292 A  
HETATM   14  C   UNL     1     -10.422  16.425  66.552  1.00  0.00    -0.282 A  
HETATM   15  C   UNL     1     -10.724  16.664  65.209  1.00  0.00    -0.219 A  
HETATM   16  F   UNL     1      -9.605  17.291  67.167  1.00  0.00    -0.240 F  
BRANCH  11  17
HETATM   17  C   UNL     1     -10.470  15.011  68.595  1.00  0.00    -0.238 C  
HETATM   18  O   UNL     1      -9.274  14.810  68.793  1.00  0.00    -0.192 OA 
BRANCH  17  19
HETATM   19  C   UNL     1     -11.433  14.993  69.704  1.00  0.00    -0.321 A  
HETATM   20  C   UNL     1     -12.066  16.140  70.165  1.00  0.00     0.025 A  
HETATM   21  N   UNL     1     -13.023  15.779  71.075  1.00  0.00    -0.550 NA 
HETATM   22  C   UNL     1     -13.001  14.424  71.250  1.00  0.00    -0.344 A  
HETATM   23  H   UNL     1     -13.655  16.422  71.550  1.00  0.00     0.000 HD 
HETATM   24  N   UNL     1     -13.865  13.742  72.021  1.00  0.00    -0.467 NA 
HETATM   25  C   UNL     1     -13.624  12.402  72.030  1.00  0.00    -0.252 A  
HETATM   26  C   UNL     1     -12.574  11.732  71.396  1.00  0.00    -0.367 A  
HETATM   27  C   UNL     1     -11.694  12.534  70.646  1.00  0.00     0.200 A  
HETATM   28  C   UNL     1     -11.946  13.913  70.503  1.00  0.00    -0.384 A  
BRANCH  26  29
HETATM   29  C   UNL     1     -12.401  10.262  71.447  1.00  0.00    -0.502 A  
HETATM   30  C   UNL     1     -11.132   9.660  71.354  1.00  0.00    -0.397 A  
HETATM   31  C   UNL     1     -10.972   8.273  71.473  1.00  0.00    -0.312 A  
HETATM   32  C   UNL     1     -12.081   7.463  71.697  1.00  0.00    -0.317 A  
HETATM   33  C   UNL     1     -13.349   8.026  71.780  1.00  0.00    -0.370 A  
HETATM   34 CL   UNL     1     -11.886   5.765  71.881  1.00  0.00    -0.147 Cl 
HETATM   35  C   UNL     1     -13.504   9.409  71.646  1.00  0.00    -0.467 A  
ENDBRANCH  26  29
ENDBRANCH  17  19
ENDBRANCH  11  17
ENDBRANCH   7   9
ENDBRANCH   4   7
ENDBRANCH   3   4
ENDBRANCH   2   3
TORSDOF 7
ENDMDL
MODEL       37
REMARK 921   NORMALIZED FREE ENERGY PREDICTED BY IDOCK:   -6.82 KCAL/MOL
REMARK 922        TOTAL FREE ENERGY PREDICTED BY IDOCK:  -11.36 KCAL/MOL
REMARK 923 INTER-LIGAND FREE ENERGY PREDICTED BY IDOCK:   -9.96 KCAL/MOL
REMARK 924 INTRA-LIGAND FREE ENERGY PREDICTED BY IDOCK:   -1.41 KCAL/MOL
REMARK 927      BINDING AFFINITY PREDICTED BY RF-SCORE:    0.00 PKD
ROOT
HETATM    1  C   UNL     1     -10.540  19.958  65.735  1.00  0.00    -0.490 C  
HETATM    2  C   UNL     1     -10.598  19.476  67.176  1.00  0.00    -0.605 C  
ENDROOT
BRANCH   2   3
HETATM    3  C   UNL     1      -9.317  18.758  67.586  1.00  0.00    -0.292 C  
BRANCH   3   4
HETATM    4  S   UNL     1      -9.290  17.081  66.948  1.00  0.00    -0.261 S  
HETATM    5  O   UNL     1      -8.326  16.989  65.875  1.00  0.00    -0.515 OA 
HETATM    6  O   UNL     1     -10.651  16.628  66.792  1.00  0.00    -0.293 OA 
BRANCH   4   7
HETATM    7  N   UNL     1      -8.720  16.234  68.297  1.00  0.00    -0.185 N  
HETATM    8  H   UNL     1      -8.340  16.724  69.106  1.00  0.00     0.000 HD 
BRANCH   7   9
HETATM    9  C   UNL     1      -8.791  14.806  68.260  1.00  0.00    -0.179 A  
HETATM   10  C   UNL     1      -9.963  14.143  68.646  1.00  0.00    -0.222 A  
HETATM   11  C   UNL     1     -10.131  12.784  68.372  1.00  0.00    -0.226 A  
HETATM   12  F   UNL     1     -10.949  14.860  69.210  1.00  0.00    -0.230 F  
HETATM   13  C   UNL     1      -7.699  14.077  67.795  1.00  0.00    -0.178 A  
HETATM   14  C   UNL     1      -9.028  12.063  67.909  1.00  0.00    -0.182 A  
HETATM   15  C   UNL     1      -7.811  12.695  67.648  1.00  0.00    -0.162 A  
HETATM   16  F   UNL     1      -9.109  10.748  67.658  1.00  0.00    -0.142 F  
BRANCH  11  17
HETATM   17  C   UNL     1     -11.440  12.102  68.507  1.00  0.00    -0.300 C  
HETATM   18  O   UNL     1     -12.116  11.922  67.497  1.00  0.00    -0.573 OA 
BRANCH  17  19
HETATM   19  C   UNL     1     -11.902  11.631  69.819  1.00  0.00    -0.428 A  
HETATM   20  C   UNL     1     -12.634  12.430  70.687  1.00  0.00    -0.153 A  
HETATM   21  N   UNL     1     -13.061  11.663  71.737  1.00  0.00    -0.449 NA 
HETATM   22  C   UNL     1     -12.589  10.389  71.595  1.00  0.00    -0.417 A  
HETATM   23  H   UNL     1     -13.643  11.992  72.507  1.00  0.00     0.000 HD 
HETATM   24  N   UNL     1     -12.890   9.369  72.418  1.00  0.00    -0.357 NA 
HETATM   25  C   UNL     1     -12.287   8.203  72.061  1.00  0.00    -0.338 A  
HETATM   26  C   UNL     1     -11.381   8.012  71.013  1.00  0.00    -0.294 A  
HETATM   27  C   UNL     1     -11.093   9.145  70.232  1.00  0.00    -0.272 A  
HETATM   28  C   UNL     1     -11.766  10.359  70.477  1.00  0.00    -0.434 A  
BRANCH  26  29
HETATM   29  C   UNL     1     -10.785   6.696  70.686  1.00  0.00    -0.286 A  
HETATM   30  C   UNL     1     -10.511   5.738  71.681  1.00  0.00    -0.286 A  
HETATM   31  C   UNL     1     -10.012   4.470  71.354  1.00  0.00    -0.259 A  
HETATM   32  C   UNL     1      -9.785   4.135  70.023  1.00  0.00    -0.212 A  
HETATM   33  C   UNL     1     -10.033   5.063  69.020  1.00  0.00    -0.251 A  
HETATM   34 CL   UNL     1      -9.207   2.568  69.615  1.00  0.00    -0.190 Cl 
HETATM   35  C   UNL     1     -10.518   6.332  69.352  1.00  0.00    -0.298 A  
ENDBRANCH  26  29
ENDBRANCH  17  19
ENDBRANCH  11  17
ENDBRANCH   7   9
ENDBRANCH   4   7
ENDBRANCH   3   4
ENDBRANCH   2   3
TORSDOF 7
ENDMDL
MODEL       38
REMARK 921   NORMALIZED FREE ENERGY PREDICTED BY IDOCK:   -6.82 KCAL/MOL
REMARK 922        TOTAL FREE ENERGY PREDICTED BY IDOCK:  -11.36 KCAL/MOL
REMARK 923 INTER-LIGAND FREE ENERGY PREDICTED BY IDOCK:  -10.31 KCAL/MOL
REMARK 924 INTRA-LIGAND FREE ENERGY PREDICTED BY IDOCK:   -1.06 KCAL/MOL
REMARK 927      BINDING AFFINITY PREDICTED BY RF-SCORE:    0.00 PKD
ROOT
HETATM    1  C   UNL     1     -11.251  15.957  70.399  1.00  0.00    -0.392 C  
HETATM    2  C   UNL     1     -10.214  16.097  69.296  1.00  0.00    -0.257 C  
ENDROOT
BRANCH   2   3
HETATM    3  C   UNL     1     -10.848  16.507  67.971  1.00  0.00    -0.337 C  
BRANCH   3   4
HETATM    4  S   UNL     1      -9.670  17.389  66.943  1.00  0.00    -0.299 S  
HETATM    5  O   UNL     1      -8.581  17.870  67.763  1.00  0.00    -0.236 OA 
HETATM    6  O   UNL     1     -10.400  18.262  66.055  1.00  0.00    -0.474 OA 
BRANCH   4   7
HETATM    7  N   UNL     1      -9.120  16.141  65.943  1.00  0.00    -0.300 N  
HETATM    8  H   UNL     1      -8.146  16.094  65.643  1.00  0.00     0.000 HD 
BRANCH   7   9
HETATM    9  C   UNL     1     -10.070  15.154  65.532  1.00  0.00    -0.370 A  
HETATM   10  C   UNL     1     -10.011  13.854  66.050  1.00  0.00    -0.310 A  
HETATM   11  C   UNL     1     -11.073  12.967  65.859  1.00  0.00    -0.303 A  
HETATM   12  F   UNL     1      -8.952  13.510  66.800  1.00  0.00    -0.224 F  
HETATM   13  C   UNL     1     -11.084  15.505  64.645  1.00  0.00    -0.373 A  
HETATM   14  C   UNL     1     -12.083  13.328  64.965  1.00  0.00    -0.408 A  
HETATM   15  C   UNL     1     -12.077  14.577  64.338  1.00  0.00    -0.492 A  
HETATM   16  F   UNL     1     -13.113  12.511  64.708  1.00  0.00    -0.542 F  
BRANCH  11  17
HETATM   17  C   UNL     1     -11.186  11.691  66.605  1.00  0.00    -0.299 C  
HETATM   18  O   UNL     1     -11.869  11.665  67.627  1.00  0.00    -0.575 OA 
BRANCH  17  19
HETATM   19  C   UNL     1     -10.517  10.480  66.114  1.00  0.00    -0.237 A  
HETATM   20  C   UNL     1      -9.934  10.404  64.856  1.00  0.00    -0.339 A  
HETATM   21  N   UNL     1      -9.246   9.224  64.761  1.00  0.00    -0.431 NA 
HETATM   22  C   UNL     1      -9.401   8.509  65.914  1.00  0.00    -0.163 A  
HETATM   23  H   UNL     1      -8.701   8.925  63.952  1.00  0.00     0.000 HD 
HETATM   24  N   UNL     1      -8.791   7.338  66.172  1.00  0.00    -0.161 NA 
HETATM   25  C   UNL     1      -9.118   6.828  67.390  1.00  0.00    -0.117 A  
HETATM   26  C   UNL     1     -10.032   7.357  68.306  1.00  0.00    -0.182 A  
HETATM   27  C   UNL     1     -10.653   8.562  67.932  1.00  0.00    -0.219 A  
HETATM   28  C   UNL     1     -10.281   9.204  66.734  1.00  0.00    -0.331 A  
BRANCH  26  29
HETATM   29  C   UNL     1     -10.311   6.737  69.622  1.00  0.00    -0.223 A  
HETATM   30  C   UNL     1     -11.027   7.417  70.626  1.00  0.00    -0.274 A  
HETATM   31  C   UNL     1     -11.346   6.796  71.841  1.00  0.00    -0.306 A  
HETATM   32  C   UNL     1     -10.960   5.480  72.071  1.00  0.00    -0.214 A  
HETATM   33  C   UNL     1     -10.241   4.787  71.106  1.00  0.00    -0.229 A  
HETATM   34 CL   UNL     1     -11.381   4.703  73.546  1.00  0.00    -0.394 Cl 
HETATM   35  C   UNL     1      -9.913   5.414  69.900  1.00  0.00    -0.294 A  
ENDBRANCH  26  29
ENDBRANCH  17  19
ENDBRANCH  11  17
ENDBRANCH   7   9
ENDBRANCH   4   7
ENDBRANCH   3   4
ENDBRANCH   2   3
TORSDOF 7
ENDMDL
MODEL       39
REMARK 921   NORMALIZED FREE ENERGY PREDICTED BY IDOCK:   -6.76 KCAL/MOL
REMARK 922        TOTAL FREE ENERGY PREDICTED BY IDOCK:  -11.28 KCAL/MOL
REMARK 923 INTER-LIGAND FREE ENERGY PREDICTED BY IDOCK:  -10.02 KCAL/MOL
REMARK 924 INTRA-LIGAND FREE ENERGY PREDICTED BY IDOCK:   -1.25 KCAL/MOL
REMARK 927      BINDING AFFINITY PREDICTED BY RF-SCORE:    0.00 PKD
ROOT
HETATM    1  C   UNL     1     -10.566  16.041  69.889  1.00  0.00    -0.314 C  
HETATM    2  C   UNL     1     -11.463  16.326  71.083  1.00  0.00    -0.364 C  
ENDROOT
BRANCH   2   3
HETATM    3  C   UNL     1     -11.452  15.178  72.087  1.00  0.00    -0.339 C  
BRANCH   3   4
HETATM    4  S   UNL     1     -13.104  14.858  72.712  1.00  0.00    -0.500 S  
HETATM    5  O   UNL     1     -13.800  16.111  72.896  1.00  0.00    -0.498 OA 
HETATM    6  O   UNL     1     -13.014  13.874  73.764  1.00  0.00     0.049 OA 
BRANCH   4   7
HETATM    7  N   UNL     1     -13.782  14.017  71.411  1.00  0.00    -0.274 N  
HETATM    8  H   UNL     1     -14.637  14.342  70.960  1.00  0.00     0.000 HD 
BRANCH   7   9
HETATM    9  C   UNL     1     -13.113  12.833  70.967  1.00  0.00     0.019 A  
HETATM   10  C   UNL     1     -12.391  12.834  69.766  1.00  0.00    -0.032 A  
HETATM   11  C   UNL     1     -11.531  11.778  69.456  1.00  0.00    -0.363 A  
HETATM   12  F   UNL     1     -12.484  13.907  68.964  1.00  0.00    -0.374 F  
HETATM   13  C   UNL     1     -13.146  11.688  71.759  1.00  0.00    -0.487 A  
HETATM   14  C   UNL     1     -11.575  10.634  70.255  1.00  0.00    -0.336 A  
HETATM   15  C   UNL     1     -12.397  10.574  71.383  1.00  0.00    -0.477 A  
HETATM   16  F   UNL     1     -10.802   9.570  69.995  1.00  0.00    -0.219 F  
BRANCH  11  17
HETATM   17  C   UNL     1     -10.549  11.853  68.349  1.00  0.00    -0.218 C  
HETATM   18  O   UNL     1      -9.416  11.416  68.537  1.00  0.00    -0.182 OA 
BRANCH  17  19
HETATM   19  C   UNL     1     -10.935  12.414  67.048  1.00  0.00    -0.303 A  
HETATM   20  C   UNL     1     -11.721  11.720  66.137  1.00  0.00    -0.028 A  
HETATM   21  N   UNL     1     -12.051  12.562  65.109  1.00  0.00    -0.440 NA 
HETATM   22  C   UNL     1     -11.464  13.780  65.308  1.00  0.00    -0.312 A  
HETATM   23  H   UNL     1     -12.644  12.319  64.316  1.00  0.00     0.000 HD 
HETATM   24  N   UNL     1     -11.650  14.853  64.520  1.00  0.00    -0.380 NA 
HETATM   25  C   UNL     1     -10.947  15.942  64.932  1.00  0.00    -0.411 A  
HETATM   26  C   UNL     1     -10.050  16.008  66.003  1.00  0.00    -0.362 A  
HETATM   27  C   UNL     1      -9.887  14.825  66.745  1.00  0.00    -0.263 A  
HETATM   28  C   UNL     1     -10.666  13.690  66.442  1.00  0.00    -0.281 A  
BRANCH  26  29
HETATM   29  C   UNL     1      -9.340  17.249  66.390  1.00  0.00    -0.281 A  
HETATM   30  C   UNL     1      -7.940  17.287  66.540  1.00  0.00    -0.318 A  
HETATM   31  C   UNL     1      -7.272  18.482  66.838  1.00  0.00    -0.226 A  
HETATM   32  C   UNL     1      -7.992  19.663  66.985  1.00  0.00    -0.281 A  
HETATM   33  C   UNL     1      -9.375  19.656  66.857  1.00  0.00    -0.445 A  
HETATM   34 CL   UNL     1      -7.172  21.138  67.316  1.00  0.00    -0.379 Cl 
HETATM   35  C   UNL     1     -10.040  18.458  66.573  1.00  0.00    -0.406 A  
ENDBRANCH  26  29
ENDBRANCH  17  19
ENDBRANCH  11  17
ENDBRANCH   7   9
ENDBRANCH   4   7
ENDBRANCH   3   4
ENDBRANCH   2   3
TORSDOF 7
ENDMDL
MODEL       40
REMARK 921   NORMALIZED FREE ENERGY PREDICTED BY IDOCK:   -6.69 KCAL/MOL
REMARK 922        TOTAL FREE ENERGY PREDICTED BY IDOCK:  -11.18 KCAL/MOL
REMARK 923 INTER-LIGAND FREE ENERGY PREDICTED BY IDOCK:   -9.38 KCAL/MOL
REMARK 924 INTRA-LIGAND FREE ENERGY PREDICTED BY IDOCK:   -1.80 KCAL/MOL
REMARK 927      BINDING AFFINITY PREDICTED BY RF-SCORE:    0.00 PKD
ROOT
HETATM    1  C   UNL     1      -7.121  19.415  67.084  1.00  0.00    -0.218 C  
HETATM    2  C   UNL     1      -6.303  18.307  67.728  1.00  0.00    -0.185 C  
ENDROOT
BRANCH   2   3
HETATM    3  C   UNL     1      -7.004  17.722  68.950  1.00  0.00    -0.250 C  
BRANCH   3   4
HETATM    4  S   UNL     1      -7.690  16.105  68.581  1.00  0.00    -0.199 S  
HETATM    5  O   UNL     1      -7.480  15.224  69.708  1.00  0.00    -0.201 OA 
HETATM    6  O   UNL     1      -7.301  15.736  67.241  1.00  0.00    -0.183 OA 
BRANCH   4   7
HETATM    7  N   UNL     1      -9.335  16.477  68.449  1.00  0.00    -0.214 N  
HETATM    8  H   UNL     1      -9.868  16.808  69.254  1.00  0.00     0.000 HD 
BRANCH   7   9
HETATM    9  C   UNL     1      -9.952  16.311  67.170  1.00  0.00    -0.257 A  
HETATM   10  C   UNL     1     -10.473  15.068  66.789  1.00  0.00    -0.283 A  
HETATM   11  C   UNL     1     -11.296  14.959  65.667  1.00  0.00    -0.325 A  
HETATM   12  F   UNL     1     -10.228  14.004  67.572  1.00  0.00    -0.236 F  
HETATM   13  C   UNL     1     -10.072  17.407  66.319  1.00  0.00    -0.328 A  
HETATM   14  C   UNL     1     -11.407  16.063  64.819  1.00  0.00    -0.280 A  
HETATM   15  C   UNL     1     -10.777  17.272  65.124  1.00  0.00     0.053 A  
HETATM   16  F   UNL     1     -12.153  16.017  63.706  1.00  0.00    -0.321 F  
BRANCH  11  17
HETATM   17  C   UNL     1     -12.087  13.739  65.377  1.00  0.00    -0.407 C  
HETATM   18  O   UNL     1     -13.310  13.791  65.487  1.00  0.00    -0.613 OA 
BRANCH  17  19
HETATM   19  C   UNL     1     -11.420  12.505  64.943  1.00  0.00    -0.367 A  
HETATM   20  C   UNL     1     -11.053  12.277  63.623  1.00  0.00    -0.469 A  
HETATM   21  N   UNL     1     -10.304  11.133  63.567  1.00  0.00    -0.421 NA 
HETATM   22  C   UNL     1     -10.209  10.585  64.815  1.00  0.00    -0.303 A  
HETATM   23  H   UNL     1      -9.882  10.747  62.722  1.00  0.00     0.000 HD 
HETATM   24  N   UNL     1      -9.479   9.497  65.115  1.00  0.00    -0.265 NA 
HETATM   25  C   UNL     1      -9.557   9.152  66.429  1.00  0.00    -0.245 A  
HETATM   26  C   UNL     1     -10.342   9.761  67.413  1.00  0.00    -0.297 A  
HETATM   27  C   UNL     1     -11.105  10.866  66.997  1.00  0.00    -0.271 A  
HETATM   28  C   UNL     1     -10.989  11.346  65.676  1.00  0.00    -0.254 A  
BRANCH  26  29
HETATM   29  C   UNL     1     -10.349   9.326  68.829  1.00  0.00    -0.231 A  
HETATM   30  C   UNL     1     -10.952  10.098  69.840  1.00  0.00    -0.344 A  
HETATM   31  C   UNL     1     -11.015   9.643  71.164  1.00  0.00    -0.430 A  
HETATM   32  C   UNL     1     -10.480   8.404  71.499  1.00  0.00    -0.239 A  
HETATM   33  C   UNL     1      -9.866   7.625  70.527  1.00  0.00    -0.183 A  
HETATM   34 CL   UNL     1     -10.586   7.827  73.115  1.00  0.00    -0.433 Cl 
HETATM   35  C   UNL     1      -9.793   8.088  69.209  1.00  0.00    -0.178 A  
ENDBRANCH  26  29
ENDBRANCH  17  19
ENDBRANCH  11  17
ENDBRANCH   7   9
ENDBRANCH   4   7
ENDBRANCH   3   4
ENDBRANCH   2   3
TORSDOF 7
ENDMDL
MODEL       41
REMARK 921   NORMALIZED FREE ENERGY PREDICTED BY IDOCK:   -6.66 KCAL/MOL
REMARK 922        TOTAL FREE ENERGY PREDICTED BY IDOCK:  -11.14 KCAL/MOL
REMARK 923 INTER-LIGAND FREE ENERGY PREDICTED BY IDOCK:   -8.72 KCAL/MOL
REMARK 924 INTRA-LIGAND FREE ENERGY PREDICTED BY IDOCK:   -2.42 KCAL/MOL
REMARK 927      BINDING AFFINITY PREDICTED BY RF-SCORE:    0.00 PKD
ROOT
HETATM    1  C   UNL     1      -7.668  12.531  68.373  1.00  0.00    -0.136 C  
HETATM    2  C   UNL     1      -7.817  11.653  67.141  1.00  0.00    -0.163 C  
ENDROOT
BRANCH   2   3
HETATM    3  C   UNL     1      -9.207  11.770  66.525  1.00  0.00    -0.201 C  
BRANCH   3   4
HETATM    4  S   UNL     1      -9.836  10.158  66.051  1.00  0.00    -0.260 S  
HETATM    5  O   UNL     1     -10.086  10.138  64.627  1.00  0.00    -0.321 OA 
HETATM    6  O   UNL     1     -10.840   9.757  67.007  1.00  0.00    -0.203 OA 
BRANCH   4   7
HETATM    7  N   UNL     1      -8.506   9.177  66.407  1.00  0.00    -0.121 N  
HETATM    8  H   UNL     1      -7.558   9.460  66.156  1.00  0.00     0.000 HD 
BRANCH   7   9
HETATM    9  C   UNL     1      -8.756   7.936  67.072  1.00  0.00    -0.129 A  
HETATM   10  C   UNL     1      -8.726   7.861  68.470  1.00  0.00    -0.131 A  
HETATM   11  C   UNL     1      -9.218   6.733  69.130  1.00  0.00    -0.137 A  
HETATM   12  F   UNL     1      -8.289   8.928  69.160  1.00  0.00    -0.113 F  
HETATM   13  C   UNL     1      -9.077   6.808  66.321  1.00  0.00    -0.165 A  
HETATM   14  C   UNL     1      -9.533   5.606  68.367  1.00  0.00    -0.121 A  
HETATM   15  C   UNL     1      -9.437   5.630  66.974  1.00  0.00    -0.132 A  
HETATM   16  F   UNL     1      -9.977   4.478  68.939  1.00  0.00    -0.233 F  
BRANCH  11  17
HETATM   17  C   UNL     1      -9.461   6.711  70.592  1.00  0.00    -0.169 C  
HETATM   18  O   UNL     1      -8.517   6.472  71.342  1.00  0.00    -0.124 OA 
BRANCH  17  19
HETATM   19  C   UNL     1     -10.798   6.995  71.129  1.00  0.00    -0.263 A  
HETATM   20  C   UNL     1     -11.558   6.041  71.792  1.00  0.00    -0.226 A  
HETATM   21  N   UNL     1     -12.665   6.650  72.320  1.00  0.00    -0.551 NA 
HETATM   22  C   UNL     1     -12.666   7.973  71.981  1.00  0.00    -0.302 A  
HETATM   23  H   UNL     1     -13.379   6.186  72.881  1.00  0.00     0.000 HD 
HETATM   24  N   UNL     1     -13.576   8.867  72.405  1.00  0.00    -0.446 NA 
HETATM   25  C   UNL     1     -13.356  10.119  71.919  1.00  0.00    -0.402 A  
HETATM   26  C   UNL     1     -12.362  10.508  71.016  1.00  0.00    -0.503 A  
HETATM   27  C   UNL     1     -11.482   9.496  70.594  1.00  0.00    -0.362 A  
HETATM   28  C   UNL     1     -11.583   8.200  71.141  1.00  0.00    -0.306 A  
BRANCH  26  29
HETATM   29  C   UNL     1     -12.188  11.904  70.554  1.00  0.00    -0.426 A  
HETATM   30  C   UNL     1     -11.574  12.208  69.324  1.00  0.00    -0.377 A  
HETATM   31  C   UNL     1     -11.476  13.528  68.865  1.00  0.00    -0.348 A  
HETATM   32  C   UNL     1     -12.000  14.569  69.626  1.00  0.00    -0.328 A  
HETATM   33  C   UNL     1     -12.600  14.303  70.850  1.00  0.00    -0.426 A  
HETATM   34 CL   UNL     1     -11.915  16.186  69.049  1.00  0.00    -0.203 Cl 
HETATM   35  C   UNL     1     -12.682  12.985  71.311  1.00  0.00    -0.385 A  
ENDBRANCH  26  29
ENDBRANCH  17  19
ENDBRANCH  11  17
ENDBRANCH   7   9
ENDBRANCH   4   7
ENDBRANCH   3   4
ENDBRANCH   2   3
TORSDOF 7
ENDMDL
MODEL       42
REMARK 921   NORMALIZED FREE ENERGY PREDICTED BY IDOCK:   -6.64 KCAL/MOL
REMARK 922        TOTAL FREE ENERGY PREDICTED BY IDOCK:  -11.11 KCAL/MOL
REMARK 923 INTER-LIGAND FREE ENERGY PREDICTED BY IDOCK:   -9.18 KCAL/MOL
REMARK 924 INTRA-LIGAND FREE ENERGY PREDICTED BY IDOCK:   -1.93 KCAL/MOL
REMARK 927      BINDING AFFINITY PREDICTED BY RF-SCORE:    0.00 PKD
ROOT
HETATM    1  C   UNL     1      -9.202  17.157  66.411  1.00  0.00    -0.285 C  
HETATM    2  C   UNL     1     -10.352  16.164  66.465  1.00  0.00    -0.311 C  
ENDROOT
BRANCH   2   3
HETATM    3  C   UNL     1      -9.971  14.821  65.850  1.00  0.00    -0.326 C  
BRANCH   3   4
HETATM    4  S   UNL     1      -9.865  13.546  67.109  1.00  0.00    -0.251 S  
HETATM    5  O   UNL     1     -11.018  12.679  67.014  1.00  0.00    -0.251 OA 
HETATM    6  O   UNL     1      -9.475  14.163  68.354  1.00  0.00    -0.207 OA 
BRANCH   4   7
HETATM    7  N   UNL     1      -8.483  12.712  66.606  1.00  0.00    -0.411 N  
HETATM    8  H   UNL     1      -7.594  13.193  66.474  1.00  0.00     0.000 HD 
BRANCH   7   9
HETATM    9  C   UNL     1      -8.607  11.307  66.370  1.00  0.00    -0.174 A  
HETATM   10  C   UNL     1      -8.236  10.386  67.358  1.00  0.00    -0.117 A  
HETATM   11  C   UNL     1      -8.590   9.040  67.241  1.00  0.00    -0.115 A  
HETATM   12  F   UNL     1      -7.604  10.840  68.453  1.00  0.00    -0.086 F  
HETATM   13  C   UNL     1      -9.144  10.858  65.166  1.00  0.00    -0.216 A  
HETATM   14  C   UNL     1      -9.124   8.600  66.028  1.00  0.00    -0.204 A  
HETATM   15  C   UNL     1      -9.374   9.495  64.985  1.00  0.00    -0.294 A  
HETATM   16  F   UNL     1      -9.454   7.316  65.836  1.00  0.00    -0.153 F  
BRANCH  11  17
HETATM   17  C   UNL     1      -8.466   8.085  68.368  1.00  0.00    -0.127 C  
HETATM   18  O   UNL     1      -7.342   7.728  68.716  1.00  0.00    -0.083 OA 
BRANCH  17  19
HETATM   19  C   UNL     1      -9.662   7.601  69.069  1.00  0.00    -0.160 A  
HETATM   20  C   UNL     1      -9.938   6.250  69.234  1.00  0.00    -0.155 A  
HETATM   21  N   UNL     1     -11.015   6.119  70.068  1.00  0.00    -0.339 NA 
HETATM   22  C   UNL     1     -11.475   7.357  70.419  1.00  0.00    -0.225 A  
HETATM   23  H   UNL     1     -11.414   5.234  70.380  1.00  0.00     0.000 HD 
HETATM   24  N   UNL     1     -12.476   7.579  71.289  1.00  0.00    -0.333 NA 
HETATM   25  C   UNL     1     -12.745   8.901  71.462  1.00  0.00    -0.335 A  
HETATM   26  C   UNL     1     -12.147   9.975  70.796  1.00  0.00    -0.418 A  
HETATM   27  C   UNL     1     -11.139   9.644  69.873  1.00  0.00    -0.268 A  
HETATM   28  C   UNL     1     -10.733   8.303  69.723  1.00  0.00    -0.221 A  
BRANCH  26  29
HETATM   29  C   UNL     1     -12.494  11.390  71.064  1.00  0.00    -0.486 A  
HETATM   30  C   UNL     1     -12.015  12.438  70.255  1.00  0.00    -0.371 A  
HETATM   31  C   UNL     1     -12.405  13.765  70.475  1.00  0.00    -0.429 A  
HETATM   32  C   UNL     1     -13.290  14.068  71.505  1.00  0.00    -0.350 A  
HETATM   33  C   UNL     1     -13.769  13.058  72.330  1.00  0.00    -0.608 A  
HETATM   34 CL   UNL     1     -13.799  15.690  71.756  1.00  0.00    -0.536 Cl 
HETATM   35  C   UNL     1     -13.366  11.736  72.115  1.00  0.00    -0.334 A  
ENDBRANCH  26  29
ENDBRANCH  17  19
ENDBRANCH  11  17
ENDBRANCH   7   9
ENDBRANCH   4   7
ENDBRANCH   3   4
ENDBRANCH   2   3
TORSDOF 7
ENDMDL
MODEL       43
REMARK 921   NORMALIZED FREE ENERGY PREDICTED BY IDOCK:   -6.63 KCAL/MOL
REMARK 922        TOTAL FREE ENERGY PREDICTED BY IDOCK:  -11.09 KCAL/MOL
REMARK 923 INTER-LIGAND FREE ENERGY PREDICTED BY IDOCK:   -9.64 KCAL/MOL
REMARK 924 INTRA-LIGAND FREE ENERGY PREDICTED BY IDOCK:   -1.45 KCAL/MOL
REMARK 927      BINDING AFFINITY PREDICTED BY RF-SCORE:    0.00 PKD
ROOT
HETATM    1  C   UNL     1     -13.279  10.288  71.906  1.00  0.00    -0.550 C  
HETATM    2  C   UNL     1     -13.230  11.805  71.821  1.00  0.00    -0.434 C  
ENDROOT
BRANCH   2   3
HETATM    3  C   UNL     1     -12.421  12.280  70.619  1.00  0.00    -0.236 C  
BRANCH   3   4
HETATM    4  S   UNL     1     -12.181  14.058  70.670  1.00  0.00    -0.381 S  
HETATM    5  O   UNL     1     -12.072  14.489  72.046  1.00  0.00    -0.305 OA 
HETATM    6  O   UNL     1     -13.106  14.672  69.749  1.00  0.00     0.118 OA 
BRANCH   4   7
HETATM    7  N   UNL     1     -10.677  14.201  69.910  1.00  0.00    -0.440 N  
HETATM    8  H   UNL     1      -9.808  14.138  70.441  1.00  0.00     0.000 HD 
BRANCH   7   9
HETATM    9  C   UNL     1     -10.667  14.414  68.496  1.00  0.00    -0.253 A  
HETATM   10  C   UNL     1     -10.876  13.345  67.616  1.00  0.00    -0.259 A  
HETATM   11  C   UNL     1     -11.125  13.580  66.261  1.00  0.00    -0.308 A  
HETATM   12  F   UNL     1     -10.911  12.099  68.117  1.00  0.00    -0.208 F  
HETATM   13  C   UNL     1     -10.494  15.703  67.998  1.00  0.00    -0.263 A  
HETATM   14  C   UNL     1     -10.944  14.876  65.772  1.00  0.00    -0.345 A  
HETATM   15  C   UNL     1     -10.603  15.927  66.626  1.00  0.00    -0.305 A  
HETATM   16  F   UNL     1     -11.132  15.165  64.477  1.00  0.00    -0.363 F  
BRANCH  11  17
HETATM   17  C   UNL     1     -11.617  12.521  65.349  1.00  0.00    -0.375 C  
HETATM   18  O   UNL     1     -12.814  12.495  65.069  1.00  0.00    -0.742 OA 
BRANCH  17  19
HETATM   19  C   UNL     1     -10.686  11.543  64.772  1.00  0.00    -0.366 A  
HETATM   20  C   UNL     1     -10.063  11.734  63.546  1.00  0.00    -0.438 A  
HETATM   21  N   UNL     1      -9.133  10.746  63.366  1.00  0.00    -0.218 NA 
HETATM   22  C   UNL     1      -9.163   9.890  64.430  1.00  0.00    -0.264 A  
HETATM   23  H   UNL     1      -8.512  10.662  62.561  1.00  0.00     0.000 HD 
HETATM   24  N   UNL     1      -8.322   8.854  64.598  1.00  0.00    -0.164 NA 
HETATM   25  C   UNL     1      -8.565   8.153  65.738  1.00  0.00    -0.154 A  
HETATM   26  C   UNL     1      -9.599   8.369  66.654  1.00  0.00    -0.294 A  
HETATM   27  C   UNL     1     -10.456   9.449  66.373  1.00  0.00    -0.165 A  
HETATM   28  C   UNL     1     -10.197  10.285  65.269  1.00  0.00    -0.308 A  
BRANCH  26  29
HETATM   29  C   UNL     1      -9.777   7.561  67.882  1.00  0.00    -0.170 A  
HETATM   30  C   UNL     1     -10.842   6.652  68.026  1.00  0.00    -0.345 A  
HETATM   31  C   UNL     1     -10.961   5.842  69.163  1.00  0.00    -0.382 A  
HETATM   32  C   UNL     1     -10.010   5.923  70.176  1.00  0.00    -0.191 A  
HETATM   33  C   UNL     1      -8.955   6.820  70.070  1.00  0.00    -0.141 A  
HETATM   34 CL   UNL     1     -10.133   4.905  71.556  1.00  0.00    -0.258 Cl 
HETATM   35  C   UNL     1      -8.848   7.636  68.940  1.00  0.00    -0.135 A  
ENDBRANCH  26  29
ENDBRANCH  17  19
ENDBRANCH  11  17
ENDBRANCH   7   9
ENDBRANCH   4   7
ENDBRANCH   3   4
ENDBRANCH   2   3
TORSDOF 7
ENDMDL
MODEL       44
REMARK 921   NORMALIZED FREE ENERGY PREDICTED BY IDOCK:   -6.57 KCAL/MOL
REMARK 922        TOTAL FREE ENERGY PREDICTED BY IDOCK:  -11.00 KCAL/MOL
REMARK 923 INTER-LIGAND FREE ENERGY PREDICTED BY IDOCK:   -9.46 KCAL/MOL
REMARK 924 INTRA-LIGAND FREE ENERGY PREDICTED BY IDOCK:   -1.54 KCAL/MOL
REMARK 927      BINDING AFFINITY PREDICTED BY RF-SCORE:    0.00 PKD
ROOT
HETATM    1  C   UNL     1      -8.132   3.973  63.296  1.00  0.00    -0.084 C  
HETATM    2  C   UNL     1      -9.479   4.206  63.963  1.00  0.00    -0.152 C  
ENDROOT
BRANCH   2   3
HETATM    3  C   UNL     1      -9.625   3.391  65.244  1.00  0.00    -0.116 C  
BRANCH   3   4
HETATM    4  S   UNL     1      -9.364   4.419  66.692  1.00  0.00    -0.175 S  
HETATM    5  O   UNL     1      -8.047   5.013  66.628  1.00  0.00    -0.107 OA 
HETATM    6  O   UNL     1      -9.820   3.697  67.855  1.00  0.00    -0.100 OA 
BRANCH   4   7
HETATM    7  N   UNL     1     -10.538   5.613  66.454  1.00  0.00    -0.475 N  
HETATM    8  H   UNL     1     -11.369   5.431  65.890  1.00  0.00     0.000 HD 
BRANCH   7   9
HETATM    9  C   UNL     1     -10.324   6.885  67.070  1.00  0.00    -0.278 A  
HETATM   10  C   UNL     1     -10.715   7.105  68.397  1.00  0.00    -0.147 A  
HETATM   11  C   UNL     1     -10.282   8.242  69.083  1.00  0.00    -0.223 A  
HETATM   12  F   UNL     1     -11.445   6.163  69.015  1.00  0.00    -0.448 F  
HETATM   13  C   UNL     1      -9.681   7.893  66.357  1.00  0.00    -0.235 A  
HETATM   14  C   UNL     1      -9.642   9.248  68.357  1.00  0.00    -0.147 A  
HETATM   15  C   UNL     1      -9.366   9.092  66.997  1.00  0.00    -0.190 A  
HETATM   16  F   UNL     1      -9.231  10.381  68.945  1.00  0.00    -0.141 F  
BRANCH  11  17
HETATM   17  C   UNL     1     -10.435   8.391  70.550  1.00  0.00    -0.207 C  
HETATM   18  O   UNL     1      -9.564   7.927  71.282  1.00  0.00    -0.155 OA 
BRANCH  17  19
HETATM   19  C   UNL     1     -11.592   9.101  71.110  1.00  0.00    -0.386 A  
HETATM   20  C   UNL     1     -12.492   8.500  71.979  1.00  0.00    -0.363 A  
HETATM   21  N   UNL     1     -13.347   9.455  72.458  1.00  0.00    -0.598 NA 
HETATM   22  C   UNL     1     -13.052  10.661  71.889  1.00  0.00    -0.458 A  
HETATM   23  H   UNL     1     -14.091   9.292  73.136  1.00  0.00     0.000 HD 
HETATM   24  N   UNL     1     -13.657  11.820  72.202  1.00  0.00    -0.244 NA 
HETATM   25  C   UNL     1     -13.183  12.876  71.487  1.00  0.00    -0.257 A  
HETATM   26  C   UNL     1     -12.226  12.841  70.469  1.00  0.00    -0.389 A  
HETATM   27  C   UNL     1     -11.678  11.578  70.181  1.00  0.00    -0.395 A  
HETATM   28  C   UNL     1     -12.043  10.458  70.956  1.00  0.00    -0.488 A  
BRANCH  26  29
HETATM   29  C   UNL     1     -11.756  14.051  69.755  1.00  0.00    -0.375 A  
HETATM   30  C   UNL     1     -11.710  14.111  68.349  1.00  0.00    -0.380 A  
HETATM   31  C   UNL     1     -11.330  15.284  67.683  1.00  0.00    -0.315 A  
HETATM   32  C   UNL     1     -10.998  16.421  68.412  1.00  0.00    -0.353 A  
HETATM   33  C   UNL     1     -11.021  16.389  69.800  1.00  0.00    -0.341 A  
HETATM   34 CL   UNL     1     -10.567  17.873  67.598  1.00  0.00    -0.407 Cl 
HETATM   35  C   UNL     1     -11.386  15.212  70.462  1.00  0.00    -0.334 A  
ENDBRANCH  26  29
ENDBRANCH  17  19
ENDBRANCH  11  17
ENDBRANCH   7   9
ENDBRANCH   4   7
ENDBRANCH   3   4
ENDBRANCH   2   3
TORSDOF 7
ENDMDL
MODEL       45
REMARK 921   NORMALIZED FREE ENERGY PREDICTED BY IDOCK:   -6.57 KCAL/MOL
REMARK 922        TOTAL FREE ENERGY PREDICTED BY IDOCK:  -11.00 KCAL/MOL
REMARK 923 INTER-LIGAND FREE ENERGY PREDICTED BY IDOCK:   -9.84 KCAL/MOL
REMARK 924 INTRA-LIGAND FREE ENERGY PREDICTED BY IDOCK:   -1.17 KCAL/MOL
REMARK 927      BINDING AFFINITY PREDICTED BY RF-SCORE:    0.00 PKD
ROOT
HETATM    1  C   UNL     1     -11.924  15.653  70.340  1.00  0.00    -0.405 C  
HETATM    2  C   UNL     1     -11.506  16.037  68.929  1.00  0.00    -0.362 C  
ENDROOT
BRANCH   2   3
HETATM    3  C   UNL     1     -10.011  15.834  68.706  1.00  0.00    -0.214 C  
BRANCH   3   4
HETATM    4  S   UNL     1      -9.389  16.969  67.462  1.00  0.00    -0.235 S  
HETATM    5  O   UNL     1      -8.256  17.692  67.993  1.00  0.00    -0.228 OA 
HETATM    6  O   UNL     1     -10.512  17.647  66.858  1.00  0.00    -0.329 OA 
BRANCH   4   7
HETATM    7  N   UNL     1      -8.866  15.887  66.273  1.00  0.00    -0.333 N  
HETATM    8  H   UNL     1      -7.920  15.935  65.894  1.00  0.00     0.000 HD 
BRANCH   7   9
HETATM    9  C   UNL     1      -9.797  14.901  65.819  1.00  0.00    -0.348 A  
HETATM   10  C   UNL     1      -9.715  13.581  66.281  1.00  0.00    -0.277 A  
HETATM   11  C   UNL     1     -10.760  12.684  66.050  1.00  0.00    -0.295 A  
HETATM   12  F   UNL     1      -8.650  13.224  67.016  1.00  0.00    -0.195 F  
HETATM   13  C   UNL     1     -10.817  15.271  64.946  1.00  0.00    -0.444 A  
HETATM   14  C   UNL     1     -11.776  13.065  65.170  1.00  0.00    -0.343 A  
HETATM   15  C   UNL     1     -11.793  14.339  64.597  1.00  0.00    -0.459 A  
HETATM   16  F   UNL     1     -12.791  12.240  64.876  1.00  0.00    -0.526 F  
BRANCH  11  17
HETATM   17  C   UNL     1     -10.851  11.375  66.740  1.00  0.00    -0.286 C  
HETATM   18  O   UNL     1     -10.656  10.352  66.088  1.00  0.00    -0.187 OA 
BRANCH  17  19
HETATM   19  C   UNL     1     -11.140  11.310  68.178  1.00  0.00    -0.319 A  
HETATM   20  C   UNL     1     -11.646  12.390  68.890  1.00  0.00    -0.316 A  
HETATM   21  N   UNL     1     -11.972  11.972  70.152  1.00  0.00    -0.395 NA 
HETATM   22  C   UNL     1     -11.652  10.651  70.293  1.00  0.00    -0.336 A  
HETATM   23  H   UNL     1     -12.389  12.556  70.876  1.00  0.00     0.000 HD 
HETATM   24  N   UNL     1     -11.914   9.917  71.389  1.00  0.00    -0.389 NA 
HETATM   25  C   UNL     1     -11.489   8.629  71.279  1.00  0.00    -0.283 A  
HETATM   26  C   UNL     1     -10.784   8.065  70.211  1.00  0.00    -0.239 A  
HETATM   27  C   UNL     1     -10.517   8.920  69.127  1.00  0.00    -0.236 A  
HETATM   28  C   UNL     1     -11.023  10.235  69.126  1.00  0.00    -0.280 A  
BRANCH  26  29
HETATM   29  C   UNL     1     -10.376   6.641  70.172  1.00  0.00    -0.236 A  
HETATM   30  C   UNL     1     -10.335   5.848  71.334  1.00  0.00    -0.271 A  
HETATM   31  C   UNL     1     -10.015   4.485  71.276  1.00  0.00    -0.258 A  
HETATM   32  C   UNL     1      -9.736   3.889  70.050  1.00  0.00    -0.172 A  
HETATM   33  C   UNL     1      -9.754   4.648  68.887  1.00  0.00    -0.236 A  
HETATM   34 CL   UNL     1      -9.378   2.210  69.969  1.00  0.00    -0.187 Cl 
HETATM   35  C   UNL     1     -10.061   6.011  68.952  1.00  0.00    -0.220 A  
ENDBRANCH  26  29
ENDBRANCH  17  19
ENDBRANCH  11  17
ENDBRANCH   7   9
ENDBRANCH   4   7
ENDBRANCH   3   4
ENDBRANCH   2   3
TORSDOF 7
ENDMDL
MODEL       46
REMARK 921   NORMALIZED FREE ENERGY PREDICTED BY IDOCK:   -6.53 KCAL/MOL
REMARK 922        TOTAL FREE ENERGY PREDICTED BY IDOCK:  -10.95 KCAL/MOL
REMARK 923 INTER-LIGAND FREE ENERGY PREDICTED BY IDOCK:   -8.12 KCAL/MOL
REMARK 924 INTRA-LIGAND FREE ENERGY PREDICTED BY IDOCK:   -2.83 KCAL/MOL
REMARK 927      BINDING AFFINITY PREDICTED BY RF-SCORE:    0.00 PKD
ROOT
HETATM    1  C   UNL     1      -8.252  12.694  68.065  1.00  0.00    -0.167 C  
HETATM    2  C   UNL     1      -7.267  11.804  67.325  1.00  0.00    -0.142 C  
ENDROOT
BRANCH   2   3
HETATM    3  C   UNL     1      -7.964  10.923  66.292  1.00  0.00    -0.161 C  
BRANCH   3   4
HETATM    4  S   UNL     1      -7.811   9.187  66.723  1.00  0.00    -0.101 S  
HETATM    5  O   UNL     1      -7.325   8.449  65.579  1.00  0.00    -0.080 OA 
HETATM    6  O   UNL     1      -8.996   8.787  67.442  1.00  0.00    -0.132 OA 
BRANCH   4   7
HETATM    7  N   UNL     1      -6.607   9.256  67.908  1.00  0.00    -0.063 N  
HETATM    8  H   UNL     1      -5.825   9.907  67.830  1.00  0.00     0.000 HD 
BRANCH   7   9
HETATM    9  C   UNL     1      -6.723   8.368  69.023  1.00  0.00    -0.052 A  
HETATM   10  C   UNL     1      -7.251   8.820  70.239  1.00  0.00    -0.049 A  
HETATM   11  C   UNL     1      -7.607   7.912  71.238  1.00  0.00    -0.081 A  
HETATM   12  F   UNL     1      -7.481  10.135  70.388  1.00  0.00    -0.159 F  
HETATM   13  C   UNL     1      -6.349   7.034  68.879  1.00  0.00    -0.028 A  
HETATM   14  C   UNL     1      -7.224   6.578  71.085  1.00  0.00    -0.078 A  
HETATM   15  C   UNL     1      -6.574   6.143  69.928  1.00  0.00    -0.044 A  
HETATM   16  F   UNL     1      -7.502   5.660  72.021  1.00  0.00    -0.085 F  
BRANCH  11  17
HETATM   17  C   UNL     1      -8.412   8.305  72.419  1.00  0.00    -0.190 C  
HETATM   18  O   UNL     1      -7.825   8.663  73.438  1.00  0.00    -0.398 OA 
BRANCH  17  19
HETATM   19  C   UNL     1      -9.879   8.291  72.357  1.00  0.00    -0.375 A  
HETATM   20  C   UNL     1     -10.657   7.515  73.206  1.00  0.00    -0.384 A  
HETATM   21  N   UNL     1     -11.972   7.848  73.024  1.00  0.00    -0.646 NA 
HETATM   22  C   UNL     1     -12.074   8.795  72.045  1.00  0.00    -0.377 A  
HETATM   23  H   UNL     1     -12.757   7.449  73.540  1.00  0.00     0.000 HD 
HETATM   24  N   UNL     1     -13.223   9.390  71.678  1.00  0.00    -0.375 NA 
HETATM   25  C   UNL     1     -13.054  10.294  70.675  1.00  0.00    -0.226 A  
HETATM   26  C   UNL     1     -11.868  10.584  69.995  1.00  0.00    -0.388 A  
HETATM   27  C   UNL     1     -10.726   9.882  70.419  1.00  0.00    -0.379 A  
HETATM   28  C   UNL     1     -10.805   9.011  71.524  1.00  0.00    -0.416 A  
BRANCH  26  29
HETATM   29  C   UNL     1     -11.776  11.602  68.923  1.00  0.00    -0.397 A  
HETATM   30  C   UNL     1     -11.643  11.244  67.568  1.00  0.00    -0.257 A  
HETATM   31  C   UNL     1     -11.626  12.213  66.556  1.00  0.00    -0.425 A  
HETATM   32  C   UNL     1     -11.751  13.560  66.882  1.00  0.00    -0.384 A  
HETATM   33  C   UNL     1     -11.870  13.947  68.211  1.00  0.00    -0.412 A  
HETATM   34 CL   UNL     1     -11.768  14.750  65.641  1.00  0.00    -0.304 Cl 
HETATM   35  C   UNL     1     -11.872  12.977  69.218  1.00  0.00    -0.370 A  
ENDBRANCH  26  29
ENDBRANCH  17  19
ENDBRANCH  11  17
ENDBRANCH   7   9
ENDBRANCH   4   7
ENDBRANCH   3   4
ENDBRANCH   2   3
TORSDOF 7
ENDMDL
MODEL       47
REMARK 921   NORMALIZED FREE ENERGY PREDICTED BY IDOCK:   -6.49 KCAL/MOL
REMARK 922        TOTAL FREE ENERGY PREDICTED BY IDOCK:  -10.90 KCAL/MOL
REMARK 923 INTER-LIGAND FREE ENERGY PREDICTED BY IDOCK:   -9.65 KCAL/MOL
REMARK 924 INTRA-LIGAND FREE ENERGY PREDICTED BY IDOCK:   -1.25 KCAL/MOL
REMARK 927      BINDING AFFINITY PREDICTED BY RF-SCORE:    0.00 PKD
ROOT
HETATM    1  C   UNL     1     -10.073  20.162  66.373  1.00  0.00    -0.569 C  
HETATM    2  C   UNL     1      -8.579  19.882  66.368  1.00  0.00    -0.386 C  
ENDROOT
BRANCH   2   3
HETATM    3  C   UNL     1      -8.155  19.044  67.571  1.00  0.00    -0.267 C  
BRANCH   3   4
HETATM    4  S   UNL     1      -8.034  17.308  67.131  1.00  0.00    -0.216 S  
HETATM    5  O   UNL     1      -7.204  16.624  68.097  1.00  0.00    -0.150 OA 
HETATM    6  O   UNL     1      -7.791  17.211  65.711  1.00  0.00    -0.449 OA 
BRANCH   4   7
HETATM    7  N   UNL     1      -9.642  16.818  67.314  1.00  0.00    -0.231 N  
HETATM    8  H   UNL     1     -10.175  17.057  68.149  1.00  0.00     0.000 HD 
BRANCH   7   9
HETATM    9  C   UNL     1     -10.226  16.054  66.255  1.00  0.00    -0.316 A  
HETATM   10  C   UNL     1     -10.244  14.655  66.315  1.00  0.00    -0.292 A  
HETATM   11  C   UNL     1     -11.031  13.918  65.427  1.00  0.00    -0.316 A  
HETATM   12  F   UNL     1      -9.553  14.047  67.293  1.00  0.00    -0.216 F  
HETATM   13  C   UNL     1     -10.820  16.713  65.182  1.00  0.00    -0.199 A  
HETATM   14  C   UNL     1     -11.618  14.588  64.353  1.00  0.00    -0.313 A  
HETATM   15  C   UNL     1     -11.492  15.972  64.211  1.00  0.00    -0.162 A  
HETATM   16  F   UNL     1     -12.357  13.937  63.443  1.00  0.00    -0.532 F  
BRANCH  11  17
HETATM   17  C   UNL     1     -11.299  12.472  65.616  1.00  0.00    -0.335 C  
HETATM   18  O   UNL     1     -12.243  12.138  66.329  1.00  0.00    -0.604 OA 
BRANCH  17  19
HETATM   19  C   UNL     1     -10.469  11.467  64.941  1.00  0.00    -0.363 A  
HETATM   20  C   UNL     1      -9.913  11.674  63.686  1.00  0.00    -0.379 A  
HETATM   21  N   UNL     1      -9.060  10.641  63.406  1.00  0.00    -0.218 NA 
HETATM   22  C   UNL     1      -9.077   9.741  64.434  1.00  0.00    -0.248 A  
HETATM   23  H   UNL     1      -8.497  10.555  62.560  1.00  0.00     0.000 HD 
HETATM   24  N   UNL     1      -8.293   8.651  64.505  1.00  0.00    -0.164 NA 
HETATM   25  C   UNL     1      -8.509   7.915  65.629  1.00  0.00    -0.147 A  
HETATM   26  C   UNL     1      -9.468   8.153  66.619  1.00  0.00    -0.274 A  
HETATM   27  C   UNL     1     -10.271   9.293  66.438  1.00  0.00    -0.298 A  
HETATM   28  C   UNL     1     -10.030  10.161  65.354  1.00  0.00    -0.377 A  
BRANCH  26  29
HETATM   29  C   UNL     1      -9.619   7.303  67.822  1.00  0.00    -0.158 A  
HETATM   30  C   UNL     1      -8.589   7.176  68.775  1.00  0.00    -0.125 A  
HETATM   31  C   UNL     1      -8.768   6.425  69.944  1.00  0.00    -0.142 A  
HETATM   32  C   UNL     1      -9.984   5.794  70.186  1.00  0.00    -0.198 A  
HETATM   33  C   UNL     1     -11.014   5.889  69.259  1.00  0.00    -0.397 A  
HETATM   34 CL   UNL     1     -10.219   4.902  71.637  1.00  0.00    -0.270 Cl 
HETATM   35  C   UNL     1     -10.827   6.628  68.087  1.00  0.00    -0.334 A  
ENDBRANCH  26  29
ENDBRANCH  17  19
ENDBRANCH  11  17
ENDBRANCH   7   9
ENDBRANCH   4   7
ENDBRANCH   3   4
ENDBRANCH   2   3
TORSDOF 7
ENDMDL
MODEL       48
REMARK 921   NORMALIZED FREE ENERGY PREDICTED BY IDOCK:   -6.48 KCAL/MOL
REMARK 922        TOTAL FREE ENERGY PREDICTED BY IDOCK:  -10.88 KCAL/MOL
REMARK 923 INTER-LIGAND FREE ENERGY PREDICTED BY IDOCK:   -9.16 KCAL/MOL
REMARK 924 INTRA-LIGAND FREE ENERGY PREDICTED BY IDOCK:   -1.72 KCAL/MOL
REMARK 927      BINDING AFFINITY PREDICTED BY RF-SCORE:    0.00 PKD
ROOT
HETATM    1  C   UNL     1     -10.743   5.903  66.860  1.00  0.00    -0.395 C  
HETATM    2  C   UNL     1      -9.344   5.741  66.286  1.00  0.00    -0.171 C  
ENDROOT
BRANCH   2   3
HETATM    3  C   UNL     1      -8.354   6.712  66.923  1.00  0.00    -0.114 C  
BRANCH   3   4
HETATM    4  S   UNL     1      -7.798   7.933  65.732  1.00  0.00    -0.109 S  
HETATM    5  O   UNL     1      -8.403   7.663  64.447  1.00  0.00    -0.075 OA 
HETATM    6  O   UNL     1      -6.373   8.106  65.884  1.00  0.00    -0.044 OA 
BRANCH   4   7
HETATM    7  N   UNL     1      -8.462   9.345  66.386  1.00  0.00    -0.124 N  
HETATM    8  H   UNL     1      -8.733  10.127  65.790  1.00  0.00     0.000 HD 
BRANCH   7   9
HETATM    9  C   UNL     1      -8.630   9.402  67.805  1.00  0.00    -0.116 A  
HETATM   10  C   UNL     1      -9.892   9.204  68.379  1.00  0.00    -0.164 A  
HETATM   11  C   UNL     1     -10.020   9.002  69.755  1.00  0.00    -0.204 A  
HETATM   12  F   UNL     1     -10.961   9.134  67.569  1.00  0.00    -0.335 F  
HETATM   13  C   UNL     1      -7.519   9.611  68.619  1.00  0.00    -0.075 A  
HETATM   14  C   UNL     1      -8.901   9.218  70.562  1.00  0.00    -0.241 A  
HETATM   15  C   UNL     1      -7.664   9.549  70.004  1.00  0.00    -0.146 A  
HETATM   16  F   UNL     1      -8.962   9.076  71.893  1.00  0.00    -0.291 F  
BRANCH  11  17
HETATM   17  C   UNL     1     -11.279   8.522  70.374  1.00  0.00    -0.211 C  
HETATM   18  O   UNL     1     -11.529   7.320  70.340  1.00  0.00    -0.284 OA 
BRANCH  17  19
HETATM   19  C   UNL     1     -12.190   9.465  71.034  1.00  0.00    -0.354 A  
HETATM   20  C   UNL     1     -13.069   9.080  72.038  1.00  0.00    -0.414 A  
HETATM   21  N   UNL     1     -13.650  10.200  72.568  1.00  0.00    -0.554 NA 
HETATM   22  C   UNL     1     -13.201  11.307  71.905  1.00  0.00    -0.386 A  
HETATM   23  H   UNL     1     -14.316  10.208  73.340  1.00  0.00     0.000 HD 
HETATM   24  N   UNL     1     -13.522  12.571  72.230  1.00  0.00    -0.509 NA 
HETATM   25  C   UNL     1     -12.948  13.492  71.409  1.00  0.00    -0.339 A  
HETATM   26  C   UNL     1     -12.157  13.238  70.283  1.00  0.00    -0.405 A  
HETATM   27  C   UNL     1     -11.911  11.884  69.995  1.00  0.00    -0.409 A  
HETATM   28  C   UNL     1     -12.383  10.881  70.866  1.00  0.00    -0.501 A  
BRANCH  26  29
HETATM   29  C   UNL     1     -11.558  14.309  69.455  1.00  0.00    -0.354 A  
HETATM   30  C   UNL     1     -10.936  15.433  70.031  1.00  0.00    -0.313 A  
HETATM   31  C   UNL     1     -10.311  16.406  69.240  1.00  0.00    -0.292 A  
HETATM   32  C   UNL     1     -10.291  16.268  67.856  1.00  0.00    -0.285 A  
HETATM   33  C   UNL     1     -10.909  15.178  67.256  1.00  0.00    -0.316 A  
HETATM   34 CL   UNL     1      -9.495  17.441  66.883  1.00  0.00    -0.262 Cl 
HETATM   35  C   UNL     1     -11.543  14.216  68.049  1.00  0.00    -0.368 A  
ENDBRANCH  26  29
ENDBRANCH  17  19
ENDBRANCH  11  17
ENDBRANCH   7   9
ENDBRANCH   4   7
ENDBRANCH   3   4
ENDBRANCH   2   3
TORSDOF 7
ENDMDL
MODEL       49
REMARK 921   NORMALIZED FREE ENERGY PREDICTED BY IDOCK:   -6.47 KCAL/MOL
REMARK 922        TOTAL FREE ENERGY PREDICTED BY IDOCK:  -10.87 KCAL/MOL
REMARK 923 INTER-LIGAND FREE ENERGY PREDICTED BY IDOCK:   -8.57 KCAL/MOL
REMARK 924 INTRA-LIGAND FREE ENERGY PREDICTED BY IDOCK:   -2.29 KCAL/MOL
REMARK 927      BINDING AFFINITY PREDICTED BY RF-SCORE:    0.00 PKD
ROOT
HETATM    1  C   UNL     1      -7.042  16.208  68.985  1.00  0.00    -0.187 C  
HETATM    2  C   UNL     1      -7.857  14.977  69.350  1.00  0.00    -0.179 C  
ENDROOT
BRANCH   2   3
HETATM    3  C   UNL     1      -7.838  13.934  68.237  1.00  0.00    -0.146 C  
BRANCH   3   4
HETATM    4  S   UNL     1      -6.354  12.928  68.327  1.00  0.00    -0.099 S  
HETATM    5  O   UNL     1      -6.059  12.628  69.711  1.00  0.00    -0.123 OA 
HETATM    6  O   UNL     1      -5.363  13.491  67.441  1.00  0.00    -0.343 OA 
BRANCH   4   7
HETATM    7  N   UNL     1      -6.870  11.524  67.539  1.00  0.00    -0.090 N  
HETATM    8  H   UNL     1      -6.202  10.890  67.099  1.00  0.00     0.000 HD 
BRANCH   7   9
HETATM    9  C   UNL     1      -8.274  11.258  67.511  1.00  0.00    -0.124 A  
HETATM   10  C   UNL     1      -8.918  10.724  68.635  1.00  0.00    -0.162 A  
HETATM   11  C   UNL     1     -10.313  10.703  68.709  1.00  0.00    -0.210 A  
HETATM   12  F   UNL     1      -8.166  10.309  69.667  1.00  0.00    -0.141 F  
HETATM   13  C   UNL     1      -9.010  11.575  66.372  1.00  0.00    -0.200 A  
HETATM   14  C   UNL     1     -11.040  11.020  67.560  1.00  0.00    -0.302 A  
HETATM   15  C   UNL     1     -10.396  11.426  66.389  1.00  0.00    -0.284 A  
HETATM   16  F   UNL     1     -12.380  10.987  67.551  1.00  0.00     0.149 F  
BRANCH  11  17
HETATM   17  C   UNL     1     -11.037  10.408  69.968  1.00  0.00    -0.314 C  
HETATM   18  O   UNL     1     -10.863   9.316  70.505  1.00  0.00    -0.228 OA 
BRANCH  17  19
HETATM   19  C   UNL     1     -11.920  11.413  70.572  1.00  0.00    -0.451 A  
HETATM   20  C   UNL     1     -12.823  11.108  71.582  1.00  0.00    -0.419 A  
HETATM   21  N   UNL     1     -13.369  12.272  72.052  1.00  0.00    -0.477 NA 
HETATM   22  C   UNL     1     -12.874  13.329  71.342  1.00  0.00    -0.322 A  
HETATM   23  H   UNL     1     -14.042  12.340  72.814  1.00  0.00     0.000 HD 
HETATM   24  N   UNL     1     -13.151  14.618  71.603  1.00  0.00    -0.326 NA 
HETATM   25  C   UNL     1     -12.536  15.477  70.745  1.00  0.00    -0.452 A  
HETATM   26  C   UNL     1     -11.744  15.142  69.643  1.00  0.00    -0.353 A  
HETATM   27  C   UNL     1     -11.543  13.768  69.423  1.00  0.00    -0.365 A  
HETATM   28  C   UNL     1     -12.060  12.825  70.335  1.00  0.00    -0.382 A  
BRANCH  26  29
HETATM   29  C   UNL     1     -11.098  16.151  68.772  1.00  0.00    -0.354 A  
HETATM   30  C   UNL     1     -10.605  17.366  69.283  1.00  0.00    -0.084 A  
HETATM   31  C   UNL     1      -9.934  18.283  68.463  1.00  0.00    -0.413 A  
HETATM   32  C   UNL     1      -9.737  17.995  67.116  1.00  0.00    -0.297 A  
HETATM   33  C   UNL     1     -10.224  16.811  66.579  1.00  0.00    -0.319 A  
HETATM   34 CL   UNL     1      -8.882  19.101  66.114  1.00  0.00    -0.287 Cl 
HETATM   35  C   UNL     1     -10.905  15.905  67.398  1.00  0.00    -0.291 A  
ENDBRANCH  26  29
ENDBRANCH  17  19
ENDBRANCH  11  17
ENDBRANCH   7   9
ENDBRANCH   4   7
ENDBRANCH   3   4
ENDBRANCH   2   3
TORSDOF 7
ENDMDL
MODEL       50
REMARK 921   NORMALIZED FREE ENERGY PREDICTED BY IDOCK:   -6.42 KCAL/MOL
REMARK 922        TOTAL FREE ENERGY PREDICTED BY IDOCK:  -10.80 KCAL/MOL
REMARK 923 INTER-LIGAND FREE ENERGY PREDICTED BY IDOCK:   -9.07 KCAL/MOL
REMARK 924 INTRA-LIGAND FREE ENERGY PREDICTED BY IDOCK:   -1.74 KCAL/MOL
REMARK 927      BINDING AFFINITY PREDICTED BY RF-SCORE:    0.00 PKD
ROOT
HETATM    1  C   UNL     1     -10.173  20.040  67.098  1.00  0.00    -0.580 C  
HETATM    2  C   UNL     1      -9.864  19.018  68.181  1.00  0.00    -0.430 C  
ENDROOT
BRANCH   2   3
HETATM    3  C   UNL     1     -10.209  17.600  67.737  1.00  0.00    -0.354 C  
BRANCH   3   4
HETATM    4  S   UNL     1      -9.081  16.409  68.465  1.00  0.00    -0.232 S  
HETATM    5  O   UNL     1      -9.791  15.603  69.433  1.00  0.00    -0.248 OA 
HETATM    6  O   UNL     1      -7.849  17.085  68.792  1.00  0.00    -0.243 OA 
BRANCH   4   7
HETATM    7  N   UNL     1      -8.695  15.467  67.115  1.00  0.00    -0.204 N  
HETATM    8  H   UNL     1      -8.943  15.768  66.172  1.00  0.00     0.000 HD 
BRANCH   7   9
HETATM    9  C   UNL     1      -8.009  14.233  67.343  1.00  0.00    -0.192 A  
HETATM   10  C   UNL     1      -8.674  13.011  67.180  1.00  0.00    -0.204 A  
HETATM   11  C   UNL     1      -7.956  11.813  67.147  1.00  0.00    -0.166 A  
HETATM   12  F   UNL     1     -10.002  13.025  66.979  1.00  0.00    -0.227 F  
HETATM   13  C   UNL     1      -6.659  14.251  67.684  1.00  0.00    -0.172 A  
HETATM   14  C   UNL     1      -6.604  11.843  67.494  1.00  0.00    -0.110 A  
HETATM   15  C   UNL     1      -5.962  13.048  67.789  1.00  0.00    -0.145 A  
HETATM   16  F   UNL     1      -5.864  10.726  67.516  1.00  0.00    -0.044 F  
BRANCH  11  17
HETATM   17  C   UNL     1      -8.566  10.534  66.710  1.00  0.00    -0.126 C  
HETATM   18  O   UNL     1      -8.491  10.221  65.524  1.00  0.00    -0.149 OA 
BRANCH  17  19
HETATM   19  C   UNL     1      -9.220   9.651  67.684  1.00  0.00    -0.144 A  
HETATM   20  C   UNL     1      -8.930   8.296  67.780  1.00  0.00    -0.136 A  
HETATM   21  N   UNL     1      -9.563   7.788  68.882  1.00  0.00    -0.153 NA 
HETATM   22  C   UNL     1     -10.293   8.772  69.485  1.00  0.00    -0.213 A  
HETATM   23  H   UNL     1      -9.499   6.822  69.204  1.00  0.00     0.000 HD 
HETATM   24  N   UNL     1     -10.973   8.619  70.636  1.00  0.00    -0.235 NA 
HETATM   25  C   UNL     1     -11.623   9.750  71.021  1.00  0.00    -0.376 A  
HETATM   26  C   UNL     1     -11.692  10.960  70.324  1.00  0.00    -0.437 A  
HETATM   27  C   UNL     1     -10.985  11.013  69.110  1.00  0.00    -0.289 A  
HETATM   28  C   UNL     1     -10.200   9.915  68.702  1.00  0.00    -0.197 A  
BRANCH  26  29
HETATM   29  C   UNL     1     -12.413  12.149  70.833  1.00  0.00    -0.374 A  
HETATM   30  C   UNL     1     -13.248  12.083  71.965  1.00  0.00    -0.481 A  
HETATM   31  C   UNL     1     -13.871  13.228  72.479  1.00  0.00    -0.554 A  
HETATM   32  C   UNL     1     -13.662  14.463  71.874  1.00  0.00    -0.431 A  
HETATM   33  C   UNL     1     -12.855  14.559  70.747  1.00  0.00    -0.423 A  
HETATM   34 CL   UNL     1     -14.395  15.876  72.523  1.00  0.00    -0.396 Cl 
HETATM   35  C   UNL     1     -12.247  13.411  70.229  1.00  0.00    -0.405 A  
ENDBRANCH  26  29
ENDBRANCH  17  19
ENDBRANCH  11  17
ENDBRANCH   7   9
ENDBRANCH   4   7
ENDBRANCH   3   4
ENDBRANCH   2   3
TORSDOF 7
ENDMDL
MODEL       51
REMARK 921   NORMALIZED FREE ENERGY PREDICTED BY IDOCK:   -6.42 KCAL/MOL
REMARK 922        TOTAL FREE ENERGY PREDICTED BY IDOCK:  -10.80 KCAL/MOL
REMARK 923 INTER-LIGAND FREE ENERGY PREDICTED BY IDOCK:   -9.56 KCAL/MOL
REMARK 924 INTRA-LIGAND FREE ENERGY PREDICTED BY IDOCK:   -1.24 KCAL/MOL
REMARK 927      BINDING AFFINITY PREDICTED BY RF-SCORE:    0.00 PKD
ROOT
HETATM    1  C   UNL     1     -11.151   3.978  73.537  1.00  0.00    -0.350 C  
HETATM    2  C   UNL     1     -10.941   5.470  73.336  1.00  0.00    -0.324 C  
ENDROOT
BRANCH   2   3
HETATM    3  C   UNL     1     -10.598   5.805  71.888  1.00  0.00    -0.232 C  
BRANCH   3   4
HETATM    4  S   UNL     1     -11.825   6.906  71.178  1.00  0.00    -0.365 S  
HETATM    5  O   UNL     1     -13.111   6.650  71.785  1.00  0.00    -0.294 OA 
HETATM    6  O   UNL     1     -11.648   6.926  69.745  1.00  0.00    -0.240 OA 
BRANCH   4   7
HETATM    7  N   UNL     1     -11.243   8.409  71.691  1.00  0.00    -0.261 N  
HETATM    8  H   UNL     1     -11.322   8.701  72.665  1.00  0.00     0.000 HD 
BRANCH   7   9
HETATM    9  C   UNL     1     -10.636   9.255  70.710  1.00  0.00    -0.285 A  
HETATM   10  C   UNL     1     -11.367  10.293  70.120  1.00  0.00    -0.316 A  
HETATM   11  C   UNL     1     -10.720  11.274  69.364  1.00  0.00    -0.188 A  
HETATM   12  F   UNL     1     -12.686  10.368  70.362  1.00  0.00    -0.352 F  
HETATM   13  C   UNL     1      -9.297   9.068  70.377  1.00  0.00    -0.244 A  
HETATM   14  C   UNL     1      -9.378  11.075  69.034  1.00  0.00    -0.091 A  
HETATM   15  C   UNL     1      -8.675   9.966  69.511  1.00  0.00    -0.200 A  
HETATM   16  F   UNL     1      -8.705  11.958  68.283  1.00  0.00    -0.148 F  
BRANCH  11  17
HETATM   17  C   UNL     1     -11.391  12.529  68.951  1.00  0.00    -0.297 C  
HETATM   18  O   UNL     1     -11.786  13.300  69.822  1.00  0.00    -0.308 OA 
BRANCH  17  19
HETATM   19  C   UNL     1     -11.553  12.852  67.527  1.00  0.00    -0.409 A  
HETATM   20  C   UNL     1     -12.251  12.036  66.648  1.00  0.00     0.524 A  
HETATM   21  N   UNL     1     -12.375  12.684  65.449  1.00  0.00    -0.609 NA 
HETATM   22  C   UNL     1     -11.737  13.890  65.512  1.00  0.00    -0.349 A  
HETATM   23  H   UNL     1     -12.868  12.323  64.633  1.00  0.00     0.000 HD 
HETATM   24  N   UNL     1     -11.735  14.804  64.526  1.00  0.00    -0.409 NA 
HETATM   25  C   UNL     1     -11.021  15.919  64.837  1.00  0.00    -0.411 A  
HETATM   26  C   UNL     1     -10.279  16.145  66.000  1.00  0.00    -0.374 A  
HETATM   27  C   UNL     1     -10.305  15.116  66.958  1.00  0.00    -0.271 A  
HETATM   28  C   UNL     1     -11.112  13.979  66.750  1.00  0.00    -0.311 A  
BRANCH  26  29
HETATM   29  C   UNL     1      -9.543  17.404  66.261  1.00  0.00    -0.260 A  
HETATM   30  C   UNL     1     -10.210  18.634  66.420  1.00  0.00    -0.461 A  
HETATM   31  C   UNL     1      -9.510  19.806  66.735  1.00  0.00    -0.489 A  
HETATM   32  C   UNL     1      -8.130  19.768  66.904  1.00  0.00    -0.297 A  
HETATM   33  C   UNL     1      -7.442  18.572  66.739  1.00  0.00    -0.240 A  
HETATM   34 CL   UNL     1      -7.272  21.196  67.326  1.00  0.00    -0.379 Cl 
HETATM   35  C   UNL     1      -8.142  17.407  66.412  1.00  0.00    -0.315 A  
ENDBRANCH  26  29
ENDBRANCH  17  19
ENDBRANCH  11  17
ENDBRANCH   7   9
ENDBRANCH   4   7
ENDBRANCH   3   4
ENDBRANCH   2   3
TORSDOF 7
ENDMDL
MODEL       52
REMARK 921   NORMALIZED FREE ENERGY PREDICTED BY IDOCK:   -6.40 KCAL/MOL
REMARK 922        TOTAL FREE ENERGY PREDICTED BY IDOCK:  -10.77 KCAL/MOL
REMARK 923 INTER-LIGAND FREE ENERGY PREDICTED BY IDOCK:   -8.42 KCAL/MOL
REMARK 924 INTRA-LIGAND FREE ENERGY PREDICTED BY IDOCK:   -2.35 KCAL/MOL
REMARK 927      BINDING AFFINITY PREDICTED BY RF-SCORE:    0.00 PKD
ROOT
HETATM    1  C   UNL     1      -8.671   9.103  70.257  1.00  0.00    -0.223 C  
HETATM    2  C   UNL     1     -10.057   8.520  70.485  1.00  0.00    -0.218 C  
ENDROOT
BRANCH   2   3
HETATM    3  C   UNL     1     -10.808   9.257  71.589  1.00  0.00    -0.348 C  
BRANCH   3   4
HETATM    4  S   UNL     1     -12.505   8.684  71.703  1.00  0.00    -0.352 S  
HETATM    5  O   UNL     1     -13.015   8.949  73.029  1.00  0.00    -0.297 OA 
HETATM    6  O   UNL     1     -12.588   7.375  71.100  1.00  0.00    -0.335 OA 
BRANCH   4   7
HETATM    7  N   UNL     1     -13.264   9.705  70.588  1.00  0.00    -0.581 N  
HETATM    8  H   UNL     1     -14.043   9.378  70.018  1.00  0.00     0.000 HD 
BRANCH   7   9
HETATM    9  C   UNL     1     -12.772  11.043  70.475  1.00  0.00    -0.247 A  
HETATM   10  C   UNL     1     -12.097  11.456  69.319  1.00  0.00    -0.289 A  
HETATM   11  C   UNL     1     -11.846  12.811  69.091  1.00  0.00    -0.352 A  
HETATM   12  F   UNL     1     -11.772  10.530  68.402  1.00  0.00    -0.345 F  
HETATM   13  C   UNL     1     -13.009  11.950  71.505  1.00  0.00    -0.427 A  
HETATM   14  C   UNL     1     -12.083  13.711  70.132  1.00  0.00    -0.361 A  
HETATM   15  C   UNL     1     -12.634  13.283  71.342  1.00  0.00    -0.365 A  
HETATM   16  F   UNL     1     -11.831  15.020  69.994  1.00  0.00    -0.265 F  
BRANCH  11  17
HETATM   17  C   UNL     1     -11.387  13.323  67.778  1.00  0.00    -0.295 C  
HETATM   18  O   UNL     1     -12.202  13.885  67.049  1.00  0.00    -0.421 OA 
BRANCH  17  19
HETATM   19  C   UNL     1      -9.983  13.185  67.374  1.00  0.00    -0.229 A  
HETATM   20  C   UNL     1      -9.104  14.259  67.337  1.00  0.00    -0.196 A  
HETATM   21  N   UNL     1      -7.842  13.788  67.095  1.00  0.00    -0.366 NA 
HETATM   22  C   UNL     1      -7.883  12.432  66.932  1.00  0.00    -0.011 A  
HETATM   23  H   UNL     1      -7.000  14.361  67.044  1.00  0.00     0.000 HD 
HETATM   24  N   UNL     1      -6.801  11.653  66.755  1.00  0.00    -0.121 NA 
HETATM   25  C   UNL     1      -7.113  10.337  66.612  1.00  0.00    -0.108 A  
HETATM   26  C   UNL     1      -8.393   9.776  66.569  1.00  0.00    -0.124 A  
HETATM   27  C   UNL     1      -9.465  10.673  66.720  1.00  0.00    -0.189 A  
HETATM   28  C   UNL     1      -9.213  12.035  66.981  1.00  0.00    -0.195 A  
BRANCH  26  29
HETATM   29  C   UNL     1      -8.636   8.322  66.427  1.00  0.00    -0.144 A  
HETATM   30  C   UNL     1      -7.605   7.426  66.086  1.00  0.00    -0.088 A  
HETATM   31  C   UNL     1      -7.831   6.044  66.023  1.00  0.00    -0.105 A  
HETATM   32  C   UNL     1      -9.093   5.533  66.307  1.00  0.00    -0.146 A  
HETATM   33  C   UNL     1     -10.135   6.392  66.633  1.00  0.00    -0.206 A  
HETATM   34 CL   UNL     1      -9.365   3.836  66.265  1.00  0.00    -0.177 Cl 
HETATM   35  C   UNL     1      -9.908   7.771  66.682  1.00  0.00    -0.295 A  
ENDBRANCH  26  29
ENDBRANCH  17  19
ENDBRANCH  11  17
ENDBRANCH   7   9
ENDBRANCH   4   7
ENDBRANCH   3   4
ENDBRANCH   2   3
TORSDOF 7
ENDMDL
MODEL       53
REMARK 921   NORMALIZED FREE ENERGY PREDICTED BY IDOCK:   -6.39 KCAL/MOL
REMARK 922        TOTAL FREE ENERGY PREDICTED BY IDOCK:  -10.76 KCAL/MOL
REMARK 923 INTER-LIGAND FREE ENERGY PREDICTED BY IDOCK:   -9.67 KCAL/MOL
REMARK 924 INTRA-LIGAND FREE ENERGY PREDICTED BY IDOCK:   -1.09 KCAL/MOL
REMARK 927      BINDING AFFINITY PREDICTED BY RF-SCORE:    0.00 PKD
ROOT
HETATM    1  C   UNL     1     -11.064   5.108  73.416  1.00  0.00    -0.385 C  
HETATM    2  C   UNL     1     -11.317   5.884  72.134  1.00  0.00    -0.344 C  
ENDROOT
BRANCH   2   3
HETATM    3  C   UNL     1     -10.155   6.813  71.794  1.00  0.00    -0.182 C  
BRANCH   3   4
HETATM    4  S   UNL     1     -10.736   8.486  71.506  1.00  0.00    -0.286 S  
HETATM    5  O   UNL     1      -9.617   9.400  71.563  1.00  0.00    -0.250 OA 
HETATM    6  O   UNL     1     -11.934   8.696  72.284  1.00  0.00    -0.364 OA 
BRANCH   4   7
HETATM    7  N   UNL     1     -11.289   8.365  69.912  1.00  0.00    -0.454 N  
HETATM    8  H   UNL     1     -11.951   7.640  69.637  1.00  0.00     0.000 HD 
BRANCH   7   9
HETATM    9  C   UNL     1     -10.794   9.315  68.965  1.00  0.00    -0.111 A  
HETATM   10  C   UNL     1     -11.461  10.530  68.764  1.00  0.00    -0.224 A  
HETATM   11  C   UNL     1     -10.853  11.561  68.044  1.00  0.00    -0.259 A  
HETATM   12  F   UNL     1     -12.659  10.708  69.346  1.00  0.00    -0.342 F  
HETATM   13  C   UNL     1      -9.616   9.044  68.274  1.00  0.00    -0.158 A  
HETATM   14  C   UNL     1      -9.674  11.277  67.352  1.00  0.00    -0.173 A  
HETATM   15  C   UNL     1      -9.072  10.020  67.440  1.00  0.00    -0.146 A  
HETATM   16  F   UNL     1      -9.057  12.209  66.613  1.00  0.00    -0.187 F  
BRANCH  11  17
HETATM   17  C   UNL     1     -11.387  12.944  68.032  1.00  0.00    -0.292 C  
HETATM   18  O   UNL     1     -11.676  13.472  69.104  1.00  0.00    -0.282 OA 
BRANCH  17  19
HETATM   19  C   UNL     1     -11.540  13.672  66.767  1.00  0.00    -0.393 A  
HETATM   20  C   UNL     1     -12.393  13.248  65.756  1.00  0.00    -0.447 A  
HETATM   21  N   UNL     1     -12.447  14.216  64.790  1.00  0.00    -0.612 NA 
HETATM   22  C   UNL     1     -11.616  15.247  65.128  1.00  0.00    -0.192 A  
HETATM   23  H   UNL     1     -13.020  14.175  63.948  1.00  0.00     0.000 HD 
HETATM   24  N   UNL     1     -11.496  16.388  64.428  1.00  0.00    -0.830 NA 
HETATM   25  C   UNL     1     -10.597  17.252  64.973  1.00  0.00     0.286 A  
HETATM   26  C   UNL     1      -9.790  17.031  66.093  1.00  0.00    -0.297 A  
HETATM   27  C   UNL     1      -9.954  15.791  66.736  1.00  0.00    -0.260 A  
HETATM   28  C   UNL     1     -10.945  14.892  66.291  1.00  0.00    -0.338 A  
BRANCH  26  29
HETATM   29  C   UNL     1      -8.848  18.041  66.627  1.00  0.00    -0.280 A  
HETATM   30  C   UNL     1      -9.186  19.406  66.698  1.00  0.00    -0.393 A  
HETATM   31  C   UNL     1      -8.314  20.344  67.268  1.00  0.00    -0.398 A  
HETATM   32  C   UNL     1      -7.090  19.930  67.785  1.00  0.00    -0.274 A  
HETATM   33  C   UNL     1      -6.722  18.593  67.716  1.00  0.00    -0.218 A  
HETATM   34 CL   UNL     1      -6.034  21.071  68.518  1.00  0.00    -0.360 Cl 
HETATM   35  C   UNL     1      -7.589  17.663  67.134  1.00  0.00    -0.227 A  
ENDBRANCH  26  29
ENDBRANCH  17  19
ENDBRANCH  11  17
ENDBRANCH   7   9
ENDBRANCH   4   7
ENDBRANCH   3   4
ENDBRANCH   2   3
TORSDOF 7
ENDMDL
MODEL       54
REMARK 921   NORMALIZED FREE ENERGY PREDICTED BY IDOCK:   -6.37 KCAL/MOL
REMARK 922        TOTAL FREE ENERGY PREDICTED BY IDOCK:  -10.73 KCAL/MOL
REMARK 923 INTER-LIGAND FREE ENERGY PREDICTED BY IDOCK:   -8.94 KCAL/MOL
REMARK 924 INTRA-LIGAND FREE ENERGY PREDICTED BY IDOCK:   -1.79 KCAL/MOL
REMARK 927      BINDING AFFINITY PREDICTED BY RF-SCORE:    0.00 PKD
ROOT
HETATM    1  C   UNL     1      -6.882   6.936  65.694  1.00  0.00    -0.052 C  
HETATM    2  C   UNL     1      -8.162   7.546  65.145  1.00  0.00    -0.122 C  
ENDROOT
BRANCH   2   3
HETATM    3  C   UNL     1      -7.943   8.188  63.778  1.00  0.00    -0.137 C  
BRANCH   3   4
HETATM    4  S   UNL     1      -8.407   9.922  63.804  1.00  0.00    -0.183 S  
HETATM    5  O   UNL     1      -8.465  10.424  62.450  1.00  0.00    -0.160 OA 
HETATM    6  O   UNL     1      -7.643  10.586  64.833  1.00  0.00    -0.112 OA 
BRANCH   4   7
HETATM    7  N   UNL     1      -9.970   9.826  64.442  1.00  0.00    -0.399 N  
HETATM    8  H   UNL     1     -10.458   8.933  64.514  1.00  0.00     0.000 HD 
BRANCH   7   9
HETATM    9  C   UNL     1     -10.584  11.042  64.878  1.00  0.00    -0.258 A  
HETATM   10  C   UNL     1     -10.406  11.496  66.191  1.00  0.00    -0.245 A  
HETATM   11  C   UNL     1     -10.779  12.794  66.548  1.00  0.00    -0.277 A  
HETATM   12  F   UNL     1      -9.798  10.686  67.072  1.00  0.00    -0.190 F  
HETATM   13  C   UNL     1     -11.324  11.799  63.973  1.00  0.00    -0.461 A  
HETATM   14  C   UNL     1     -11.524  13.542  65.634  1.00  0.00    -0.315 A  
HETATM   15  C   UNL     1     -11.822  13.041  64.365  1.00  0.00    -0.443 A  
HETATM   16  F   UNL     1     -11.944  14.782  65.925  1.00  0.00    -0.350 F  
BRANCH  11  17
HETATM   17  C   UNL     1     -10.369  13.413  67.831  1.00  0.00    -0.238 C  
HETATM   18  O   UNL     1      -9.331  14.070  67.862  1.00  0.00    -0.193 OA 
BRANCH  17  19
HETATM   19  C   UNL     1     -11.205  13.264  69.029  1.00  0.00    -0.320 A  
HETATM   20  C   UNL     1     -11.989  14.295  69.529  1.00  0.00    -0.336 A  
HETATM   21  N   UNL     1     -12.775  13.803  70.535  1.00  0.00    -0.267 NA 
HETATM   22  C   UNL     1     -12.493  12.481  70.732  1.00  0.00    -0.268 A  
HETATM   23  H   UNL     1     -13.466  14.340  71.059  1.00  0.00     0.000 HD 
HETATM   24  N   UNL     1     -13.144  11.683  71.596  1.00  0.00    -0.424 NA 
HETATM   25  C   UNL     1     -12.666  10.409  71.606  1.00  0.00    -0.455 A  
HETATM   26  C   UNL     1     -11.576   9.914  70.883  1.00  0.00    -0.456 A  
HETATM   27  C   UNL     1     -10.929  10.832  70.037  1.00  0.00    -0.280 A  
HETATM   28  C   UNL     1     -11.438  12.139  69.894  1.00  0.00    -0.210 A  
BRANCH  26  29
HETATM   29  C   UNL     1     -11.137   8.501  70.944  1.00  0.00    -0.295 A  
HETATM   30  C   UNL     1     -11.935   7.501  71.531  1.00  0.00    -0.336 A  
HETATM   31  C   UNL     1     -11.541   6.156  71.522  1.00  0.00    -0.304 A  
HETATM   32  C   UNL     1     -10.344   5.787  70.917  1.00  0.00    -0.237 A  
HETATM   33  C   UNL     1      -9.528   6.752  70.342  1.00  0.00    -0.168 A  
HETATM   34 CL   UNL     1      -9.875   4.133  70.871  1.00  0.00    -0.263 Cl 
HETATM   35  C   UNL     1      -9.918   8.095  70.366  1.00  0.00    -0.190 A  
ENDBRANCH  26  29
ENDBRANCH  17  19
ENDBRANCH  11  17
ENDBRANCH   7   9
ENDBRANCH   4   7
ENDBRANCH   3   4
ENDBRANCH   2   3
TORSDOF 7
ENDMDL
MODEL       55
REMARK 921   NORMALIZED FREE ENERGY PREDICTED BY IDOCK:   -6.36 KCAL/MOL
REMARK 922        TOTAL FREE ENERGY PREDICTED BY IDOCK:  -10.72 KCAL/MOL
REMARK 923 INTER-LIGAND FREE ENERGY PREDICTED BY IDOCK:   -9.22 KCAL/MOL
REMARK 924 INTRA-LIGAND FREE ENERGY PREDICTED BY IDOCK:   -1.50 KCAL/MOL
REMARK 927      BINDING AFFINITY PREDICTED BY RF-SCORE:    0.00 PKD
ROOT
HETATM    1  C   UNL     1      -6.738   5.610  66.772  1.00  0.00    -0.058 C  
HETATM    2  C   UNL     1      -6.768   5.775  65.261  1.00  0.00    -0.044 C  
ENDROOT
BRANCH   2   3
HETATM    3  C   UNL     1      -6.166   7.107  64.824  1.00  0.00    -0.037 C  
BRANCH   3   4
HETATM    4  S   UNL     1      -7.364   8.084  63.912  1.00  0.00    -0.105 S  
HETATM    5  O   UNL     1      -7.806   7.343  62.753  1.00  0.00    -0.122 OA 
HETATM    6  O   UNL     1      -6.871   9.437  63.812  1.00  0.00    -0.091 OA 
BRANCH   4   7
HETATM    7  N   UNL     1      -8.622   8.181  65.038  1.00  0.00    -0.356 N  
HETATM    8  H   UNL     1      -9.300   7.426  65.140  1.00  0.00     0.000 HD 
BRANCH   7   9
HETATM    9  C   UNL     1      -8.702   9.361  65.842  1.00  0.00    -0.154 A  
HETATM   10  C   UNL     1      -9.755  10.269  65.669  1.00  0.00    -0.247 A  
HETATM   11  C   UNL     1      -9.984  11.276  66.609  1.00  0.00    -0.242 A  
HETATM   12  F   UNL     1     -10.582  10.098  64.625  1.00  0.00    -0.308 F  
HETATM   13  C   UNL     1      -7.749   9.581  66.834  1.00  0.00    -0.098 A  
HETATM   14  C   UNL     1      -9.020  11.489  67.597  1.00  0.00    -0.160 A  
HETATM   15  C   UNL     1      -7.894  10.668  67.694  1.00  0.00    -0.105 A  
HETATM   16  F   UNL     1      -9.159  12.461  68.510  1.00  0.00    -0.188 F  
BRANCH  11  17
HETATM   17  C   UNL     1     -11.227  12.082  66.622  1.00  0.00    -0.327 C  
HETATM   18  O   UNL     1     -12.077  11.839  67.476  1.00  0.00    -0.599 OA 
BRANCH  17  19
HETATM   19  C   UNL     1     -11.423  13.164  65.650  1.00  0.00    -0.351 A  
HETATM   20  C   UNL     1     -12.278  13.049  64.562  1.00  0.00    -0.416 A  
HETATM   21  N   UNL     1     -12.378  14.269  63.949  1.00  0.00    -0.986 NA 
HETATM   22  C   UNL     1     -11.574  15.170  64.589  1.00  0.00    -0.357 A  
HETATM   23  H   UNL     1     -12.962  14.474  63.139  1.00  0.00     0.000 HD 
HETATM   24  N   UNL     1     -11.501  16.477  64.281  1.00  0.00    -1.008 NA 
HETATM   25  C   UNL     1     -10.620  17.157  65.065  1.00  0.00     0.183 A  
HETATM   26  C   UNL     1      -9.789  16.623  66.055  1.00  0.00    -0.335 A  
HETATM   27  C   UNL     1      -9.905  15.240  66.277  1.00  0.00    -0.316 A  
HETATM   28  C   UNL     1     -10.874  14.492  65.578  1.00  0.00    -0.342 A  
BRANCH  26  29
HETATM   29  C   UNL     1      -8.871  17.448  66.874  1.00  0.00    -0.259 A  
HETATM   30  C   UNL     1      -7.478  17.434  66.669  1.00  0.00    -0.289 A  
HETATM   31  C   UNL     1      -6.625  18.270  67.402  1.00  0.00    -0.200 A  
HETATM   32  C   UNL     1      -7.152  19.141  68.350  1.00  0.00    -0.279 A  
HETATM   33  C   UNL     1      -8.521  19.168  68.585  1.00  0.00    -0.397 A  
HETATM   34 CL   UNL     1      -6.113  20.194  69.226  1.00  0.00    -0.340 Cl 
HETATM   35  C   UNL     1      -9.367  18.322  67.861  1.00  0.00    -0.284 A  
ENDBRANCH  26  29
ENDBRANCH  17  19
ENDBRANCH  11  17
ENDBRANCH   7   9
ENDBRANCH   4   7
ENDBRANCH   3   4
ENDBRANCH   2   3
TORSDOF 7
ENDMDL
MODEL       56
REMARK 921   NORMALIZED FREE ENERGY PREDICTED BY IDOCK:   -6.36 KCAL/MOL
REMARK 922        TOTAL FREE ENERGY PREDICTED BY IDOCK:  -10.71 KCAL/MOL
REMARK 923 INTER-LIGAND FREE ENERGY PREDICTED BY IDOCK:   -8.79 KCAL/MOL
REMARK 924 INTRA-LIGAND FREE ENERGY PREDICTED BY IDOCK:   -1.92 KCAL/MOL
REMARK 927      BINDING AFFINITY PREDICTED BY RF-SCORE:    0.00 PKD
ROOT
HETATM    1  C   UNL     1      -7.803   7.013  65.902  1.00  0.00    -0.106 C  
HETATM    2  C   UNL     1      -8.496   7.985  64.960  1.00  0.00    -0.089 C  
ENDROOT
BRANCH   2   3
HETATM    3  C   UNL     1      -7.955   9.403  65.110  1.00  0.00    -0.116 C  
BRANCH   3   4
HETATM    4  S   UNL     1      -8.857  10.303  66.374  1.00  0.00    -0.147 S  
HETATM    5  O   UNL     1      -8.184  10.155  67.644  1.00  0.00    -0.110 OA 
HETATM    6  O   UNL     1     -10.265  10.024  66.219  1.00  0.00    -0.241 OA 
BRANCH   4   7
HETATM    7  N   UNL     1      -8.684  11.892  65.821  1.00  0.00    -0.393 N  
HETATM    8  H   UNL     1      -8.538  12.095  64.832  1.00  0.00     0.000 HD 
BRANCH   7   9
HETATM    9  C   UNL     1      -8.749  12.941  66.791  1.00  0.00    -0.106 A  
HETATM   10  C   UNL     1      -9.937  13.658  66.982  1.00  0.00    -0.248 A  
HETATM   11  C   UNL     1     -10.088  14.497  68.089  1.00  0.00    -0.227 A  
HETATM   12  F   UNL     1     -10.951  13.459  66.124  1.00  0.00    -0.276 F  
HETATM   13  C   UNL     1      -7.634  13.218  67.578  1.00  0.00    -0.169 A  
HETATM   14  C   UNL     1      -8.963  14.769  68.870  1.00  0.00    -0.167 A  
HETATM   15  C   UNL     1      -7.735  14.158  68.602  1.00  0.00    -0.135 A  
HETATM   16  F   UNL     1      -9.028  15.592  69.926  1.00  0.00    -0.262 F  
BRANCH  11  17
HETATM   17  C   UNL     1     -11.401  15.059  68.486  1.00  0.00    -0.303 C  
HETATM   18  O   UNL     1     -11.964  15.837  67.719  1.00  0.00     0.014 OA 
BRANCH  17  19
HETATM   19  C   UNL     1     -12.023  14.671  69.758  1.00  0.00    -0.378 A  
HETATM   20  C   UNL     1     -12.653  15.584  70.593  1.00  0.00    -0.443 A  
HETATM   21  N   UNL     1     -13.278  14.900  71.601  1.00  0.00    -0.332 NA 
HETATM   22  C   UNL     1     -13.036  13.562  71.466  1.00  0.00    -0.355 A  
HETATM   23  H   UNL     1     -13.839  15.323  72.339  1.00  0.00     0.000 HD 
HETATM   24  N   UNL     1     -13.569  12.609  72.250  1.00  0.00    -0.515 NA 
HETATM   25  C   UNL     1     -13.163  11.355  71.910  1.00  0.00    -0.380 A  
HETATM   26  C   UNL     1     -12.242  11.009  70.916  1.00  0.00    -0.471 A  
HETATM   27  C   UNL     1     -11.705  12.077  70.175  1.00  0.00    -0.316 A  
HETATM   28  C   UNL     1     -12.161  13.391  70.400  1.00  0.00    -0.415 A  
BRANCH  26  29
HETATM   29  C   UNL     1     -11.874   9.609  70.604  1.00  0.00    -0.331 A  
HETATM   30  C   UNL     1     -10.945   9.294  69.594  1.00  0.00    -0.192 A  
HETATM   31  C   UNL     1     -10.551   7.970  69.354  1.00  0.00    -0.210 A  
HETATM   32  C   UNL     1     -11.076   6.939  70.126  1.00  0.00    -0.299 A  
HETATM   33  C   UNL     1     -12.005   7.216  71.120  1.00  0.00    -0.381 A  
HETATM   34 CL   UNL     1     -10.568   5.318  69.858  1.00  0.00    -0.355 Cl 
HETATM   35  C   UNL     1     -12.405   8.537  71.348  1.00  0.00    -0.332 A  
ENDBRANCH  26  29
ENDBRANCH  17  19
ENDBRANCH  11  17
ENDBRANCH   7   9
ENDBRANCH   4   7
ENDBRANCH   3   4
ENDBRANCH   2   3
TORSDOF 7
ENDMDL
MODEL       57
REMARK 921   NORMALIZED FREE ENERGY PREDICTED BY IDOCK:   -6.31 KCAL/MOL
REMARK 922        TOTAL FREE ENERGY PREDICTED BY IDOCK:  -10.64 KCAL/MOL
REMARK 923 INTER-LIGAND FREE ENERGY PREDICTED BY IDOCK:   -8.58 KCAL/MOL
REMARK 924 INTRA-LIGAND FREE ENERGY PREDICTED BY IDOCK:   -2.07 KCAL/MOL
REMARK 927      BINDING AFFINITY PREDICTED BY RF-SCORE:    0.00 PKD
ROOT
HETATM    1  C   UNL     1     -11.877   6.354  71.754  1.00  0.00    -0.374 C  
HETATM    2  C   UNL     1     -12.035   6.734  70.290  1.00  0.00    -0.294 C  
ENDROOT
BRANCH   2   3
HETATM    3  C   UNL     1     -10.810   6.343  69.469  1.00  0.00    -0.321 C  
BRANCH   3   4
HETATM    4  S   UNL     1     -10.088   7.781  68.673  1.00  0.00    -0.203 S  
HETATM    5  O   UNL     1     -11.080   8.419  67.839  1.00  0.00     0.083 OA 
HETATM    6  O   UNL     1      -8.785   7.420  68.169  1.00  0.00    -0.123 OA 
BRANCH   4   7
HETATM    7  N   UNL     1      -9.759   8.758  70.014  1.00  0.00    -0.170 N  
HETATM    8  H   UNL     1      -9.045   8.498  70.695  1.00  0.00     0.000 HD 
BRANCH   7   9
HETATM    9  C   UNL     1     -10.519   9.961  70.159  1.00  0.00    -0.285 A  
HETATM   10  C   UNL     1     -10.171  11.111  69.440  1.00  0.00    -0.010 A  
HETATM   11  C   UNL     1     -11.046  12.198  69.376  1.00  0.00    -0.183 A  
HETATM   12  F   UNL     1      -9.017  11.112  68.752  1.00  0.00    -0.157 F  
HETATM   13  C   UNL     1     -11.638   9.970  70.988  1.00  0.00    -0.476 A  
HETATM   14  C   UNL     1     -12.162  12.198  70.214  1.00  0.00    -0.264 A  
HETATM   15  C   UNL     1     -12.445  11.105  71.037  1.00  0.00    -0.506 A  
HETATM   16  F   UNL     1     -13.025  13.224  70.228  1.00  0.00    -0.160 F  
BRANCH  11  17
HETATM   17  C   UNL     1     -10.855  13.315  68.420  1.00  0.00    -0.258 C  
HETATM   18  O   UNL     1     -10.161  14.270  68.763  1.00  0.00    -0.232 OA 
BRANCH  17  19
HETATM   19  C   UNL     1     -11.463  13.265  67.085  1.00  0.00    -0.380 A  
HETATM   20  C   UNL     1     -12.477  14.127  66.690  1.00  0.00    -0.219 A  
HETATM   21  N   UNL     1     -12.709  13.951  65.352  1.00  0.00    -0.662 NA 
HETATM   22  C   UNL     1     -11.897  12.963  64.873  1.00  0.00    -0.366 A  
HETATM   23  H   UNL     1     -13.385  14.477  64.798  1.00  0.00     0.000 HD 
HETATM   24  N   UNL     1     -11.823  12.597  63.581  1.00  0.00    -0.488 NA 
HETATM   25  C   UNL     1     -10.941  11.584  63.366  1.00  0.00    -0.315 A  
HETATM   26  C   UNL     1     -10.204  10.892  64.332  1.00  0.00    -0.423 A  
HETATM   27  C   UNL     1     -10.377  11.315  65.661  1.00  0.00    -0.310 A  
HETATM   28  C   UNL     1     -11.192  12.430  65.945  1.00  0.00    -0.373 A  
BRANCH  26  29
HETATM   29  C   UNL     1      -9.250   9.809  64.000  1.00  0.00    -0.267 A  
HETATM   30  C   UNL     1      -8.911   9.499  62.669  1.00  0.00    -0.249 A  
HETATM   31  C   UNL     1      -7.955   8.519  62.370  1.00  0.00    -0.148 A  
HETATM   32  C   UNL     1      -7.314   7.836  63.399  1.00  0.00    -0.101 A  
HETATM   33  C   UNL     1      -7.637   8.108  64.722  1.00  0.00    -0.101 A  
HETATM   34 CL   UNL     1      -6.115   6.659  63.036  1.00  0.00    -0.037 Cl 
HETATM   35  C   UNL     1      -8.602   9.077  65.016  1.00  0.00    -0.207 A  
ENDBRANCH  26  29
ENDBRANCH  17  19
ENDBRANCH  11  17
ENDBRANCH   7   9
ENDBRANCH   4   7
ENDBRANCH   3   4
ENDBRANCH   2   3
TORSDOF 7
ENDMDL
MODEL       58
REMARK 921   NORMALIZED FREE ENERGY PREDICTED BY IDOCK:   -6.31 KCAL/MOL
REMARK 922        TOTAL FREE ENERGY PREDICTED BY IDOCK:  -10.64 KCAL/MOL
REMARK 923 INTER-LIGAND FREE ENERGY PREDICTED BY IDOCK:   -9.14 KCAL/MOL
REMARK 924 INTRA-LIGAND FREE ENERGY PREDICTED BY IDOCK:   -1.50 KCAL/MOL
REMARK 927      BINDING AFFINITY PREDICTED BY RF-SCORE:    0.00 PKD
ROOT
HETATM    1  C   UNL     1     -11.097   3.418  73.486  1.00  0.00    -0.317 C  
HETATM    2  C   UNL     1     -11.025   4.837  72.945  1.00  0.00    -0.312 C  
ENDROOT
BRANCH   2   3
HETATM    3  C   UNL     1     -10.354   5.787  73.931  1.00  0.00    -0.272 C  
BRANCH   3   4
HETATM    4  S   UNL     1     -10.217   7.437  73.239  1.00  0.00    -0.355 S  
HETATM    5  O   UNL     1      -9.159   8.155  73.914  1.00  0.00    -0.213 OA 
HETATM    6  O   UNL     1     -11.544   7.987  73.099  1.00  0.00    -0.289 OA 
BRANCH   4   7
HETATM    7  N   UNL     1      -9.742   7.082  71.655  1.00  0.00    -0.161 N  
HETATM    8  H   UNL     1      -9.646   6.118  71.336  1.00  0.00     0.000 HD 
BRANCH   7   9
HETATM    9  C   UNL     1      -9.479   8.182  70.780  1.00  0.00    -0.162 A  
HETATM   10  C   UNL     1     -10.527   8.812  70.098  1.00  0.00    -0.213 A  
HETATM   11  C   UNL     1     -10.319  10.034  69.453  1.00  0.00    -0.245 A  
HETATM   12  F   UNL     1     -11.749   8.257  70.146  1.00  0.00    -0.163 F  
HETATM   13  C   UNL     1      -8.176   8.654  70.645  1.00  0.00    -0.147 A  
HETATM   14  C   UNL     1      -9.009  10.496  69.320  1.00  0.00    -0.134 A  
HETATM   15  C   UNL     1      -7.938   9.799  69.885  1.00  0.00    -0.184 A  
HETATM   16  F   UNL     1      -8.734  11.642  68.683  1.00  0.00    -0.157 F  
BRANCH  11  17
HETATM   17  C   UNL     1     -11.438  10.870  68.956  1.00  0.00    -0.302 C  
HETATM   18  O   UNL     1     -11.887  10.645  67.834  1.00  0.00    -0.485 OA 
BRANCH  17  19
HETATM   19  C   UNL     1     -12.012  11.924  69.801  1.00  0.00    -0.377 A  
HETATM   20  C   UNL     1     -12.877  11.654  70.853  1.00  0.00    -0.173 A  
HETATM   21  N   UNL     1     -13.097  12.811  71.551  1.00  0.00    -0.344 NA 
HETATM   22  C   UNL     1     -12.427  13.841  70.953  1.00  0.00    -0.377 A  
HETATM   23  H   UNL     1     -13.673  12.892  72.388  1.00  0.00     0.000 HD 
HETATM   24  N   UNL     1     -12.374  15.095  71.434  1.00  0.00    -0.317 NA 
HETATM   25  C   UNL     1     -11.646  15.934  70.648  1.00  0.00    -0.400 A  
HETATM   26  C   UNL     1     -11.044  15.628  69.423  1.00  0.00    -0.303 A  
HETATM   27  C   UNL     1     -11.188  14.302  68.979  1.00  0.00    -0.294 A  
HETATM   28  C   UNL     1     -11.836  13.352  69.795  1.00  0.00    -0.393 A  
BRANCH  26  29
HETATM   29  C   UNL     1     -10.251  16.606  68.643  1.00  0.00    -0.284 A  
HETATM   30  C   UNL     1      -9.499  16.222  67.517  1.00  0.00    -0.227 A  
HETATM   31  C   UNL     1      -8.809  17.166  66.745  1.00  0.00    -0.270 A  
HETATM   32  C   UNL     1      -8.866  18.514  67.082  1.00  0.00    -0.270 A  
HETATM   33  C   UNL     1      -9.588  18.924  68.196  1.00  0.00    -0.386 A  
HETATM   34 CL   UNL     1      -8.050  19.680  66.117  1.00  0.00    -0.347 Cl 
HETATM   35  C   UNL     1     -10.264  17.976  68.971  1.00  0.00    -0.262 A  
ENDBRANCH  26  29
ENDBRANCH  17  19
ENDBRANCH  11  17
ENDBRANCH   7   9
ENDBRANCH   4   7
ENDBRANCH   3   4
ENDBRANCH   2   3
TORSDOF 7
ENDMDL
MODEL       59
REMARK 921   NORMALIZED FREE ENERGY PREDICTED BY IDOCK:   -6.30 KCAL/MOL
REMARK 922        TOTAL FREE ENERGY PREDICTED BY IDOCK:  -10.63 KCAL/MOL
REMARK 923 INTER-LIGAND FREE ENERGY PREDICTED BY IDOCK:   -9.33 KCAL/MOL
REMARK 924 INTRA-LIGAND FREE ENERGY PREDICTED BY IDOCK:   -1.29 KCAL/MOL
REMARK 927      BINDING AFFINITY PREDICTED BY RF-SCORE:    0.00 PKD
ROOT
HETATM    1  C   UNL     1     -12.837  10.531  71.639  1.00  0.00    -0.581 C  
HETATM    2  C   UNL     1     -12.808   9.011  71.606  1.00  0.00    -0.419 C  
ENDROOT
BRANCH   2   3
HETATM    3  C   UNL     1     -11.490   8.457  72.137  1.00  0.00    -0.372 C  
BRANCH   3   4
HETATM    4  S   UNL     1     -11.011   6.976  71.243  1.00  0.00    -0.249 S  
HETATM    5  O   UNL     1     -12.075   6.593  70.342  1.00  0.00    -0.374 OA 
HETATM    6  O   UNL     1     -10.430   6.044  72.178  1.00  0.00    -0.196 OA 
BRANCH   4   7
HETATM    7  N   UNL     1      -9.693   7.551  70.353  1.00  0.00    -0.179 N  
HETATM    8  H   UNL     1      -8.737   7.438  70.692  1.00  0.00     0.000 HD 
BRANCH   7   9
HETATM    9  C   UNL     1      -9.966   8.202  69.110  1.00  0.00    -0.192 A  
HETATM   10  C   UNL     1      -9.915   9.599  69.014  1.00  0.00    -0.185 A  
HETATM   11  C   UNL     1      -9.924  10.224  67.765  1.00  0.00    -0.203 A  
HETATM   12  F   UNL     1      -9.778  10.314  70.142  1.00  0.00    -0.249 F  
HETATM   13  C   UNL     1     -10.239   7.436  67.980  1.00  0.00    -0.234 A  
HETATM   14  C   UNL     1     -10.203   9.446  66.639  1.00  0.00    -0.249 A  
HETATM   15  C   UNL     1     -10.388   8.065  66.745  1.00  0.00    -0.360 A  
HETATM   16  F   UNL     1     -10.261   9.986  65.414  1.00  0.00    -0.362 F  
BRANCH  11  17
HETATM   17  C   UNL     1      -9.601  11.660  67.593  1.00  0.00    -0.181 C  
HETATM   18  O   UNL     1      -8.509  11.965  67.119  1.00  0.00    -0.160 OA 
BRANCH  17  19
HETATM   19  C   UNL     1     -10.580  12.692  67.957  1.00  0.00    -0.233 A  
HETATM   20  C   UNL     1     -11.799  12.392  68.551  1.00  0.00    -0.304 A  
HETATM   21  N   UNL     1     -12.406  13.560  68.926  1.00  0.00    -0.237 NA 
HETATM   22  C   UNL     1     -11.628  14.620  68.552  1.00  0.00    -0.317 A  
HETATM   23  H   UNL     1     -13.301  13.630  69.409  1.00  0.00     0.000 HD 
HETATM   24  N   UNL     1     -11.903  15.904  68.840  1.00  0.00    -0.377 NA 
HETATM   25  C   UNL     1     -10.973  16.768  68.350  1.00  0.00    -0.325 A  
HETATM   26  C   UNL     1      -9.862  16.450  67.562  1.00  0.00    -0.239 A  
HETATM   27  C   UNL     1      -9.679  15.086  67.276  1.00  0.00    -0.220 A  
HETATM   28  C   UNL     1     -10.542  14.125  67.843  1.00  0.00    -0.244 A  
BRANCH  26  29
HETATM   29  C   UNL     1      -8.890  17.461  67.086  1.00  0.00    -0.242 A  
HETATM   30  C   UNL     1      -7.740  17.100  66.358  1.00  0.00    -0.345 A  
HETATM   31  C   UNL     1      -6.863  18.069  65.853  1.00  0.00    -0.332 A  
HETATM   32  C   UNL     1      -7.126  19.419  66.061  1.00  0.00    -0.273 A  
HETATM   33  C   UNL     1      -8.244  19.807  66.787  1.00  0.00    -0.344 A  
HETATM   34 CL   UNL     1      -6.072  20.612  65.412  1.00  0.00    -0.264 Cl 
HETATM   35  C   UNL     1      -9.110  18.836  67.301  1.00  0.00    -0.291 A  
ENDBRANCH  26  29
ENDBRANCH  17  19
ENDBRANCH  11  17
ENDBRANCH   7   9
ENDBRANCH   4   7
ENDBRANCH   3   4
ENDBRANCH   2   3
TORSDOF 7
ENDMDL
MODEL       60
REMARK 921   NORMALIZED FREE ENERGY PREDICTED BY IDOCK:   -6.28 KCAL/MOL
REMARK 922        TOTAL FREE ENERGY PREDICTED BY IDOCK:  -10.60 KCAL/MOL
REMARK 923 INTER-LIGAND FREE ENERGY PREDICTED BY IDOCK:   -9.26 KCAL/MOL
REMARK 924 INTRA-LIGAND FREE ENERGY PREDICTED BY IDOCK:   -1.35 KCAL/MOL
REMARK 927      BINDING AFFINITY PREDICTED BY RF-SCORE:    0.00 PKD
ROOT
HETATM    1  C   UNL     1     -13.167  10.826  72.018  1.00  0.00    -0.466 C  
HETATM    2  C   UNL     1     -13.121  12.343  72.112  1.00  0.00    -0.419 C  
ENDROOT
BRANCH   2   3
HETATM    3  C   UNL     1     -13.028  12.993  70.735  1.00  0.00     0.033 C  
BRANCH   3   4
HETATM    4  S   UNL     1     -12.208  14.587  70.833  1.00  0.00    -0.363 S  
HETATM    5  O   UNL     1     -11.910  14.891  72.215  1.00  0.00    -0.347 OA 
HETATM    6  O   UNL     1     -12.910  15.517  69.981  1.00  0.00    -0.235 OA 
BRANCH   4   7
HETATM    7  N   UNL     1     -10.773  14.261  70.001  1.00  0.00    -0.436 N  
HETATM    8  H   UNL     1      -9.975  13.833  70.471  1.00  0.00     0.000 HD 
BRANCH   7   9
HETATM    9  C   UNL     1     -10.718  14.607  68.614  1.00  0.00    -0.250 A  
HETATM   10  C   UNL     1     -11.168  13.707  67.640  1.00  0.00    -0.279 A  
HETATM   11  C   UNL     1     -11.359  14.127  66.322  1.00  0.00    -0.340 A  
HETATM   12  F   UNL     1     -11.486  12.458  68.019  1.00  0.00    -0.273 F  
HETATM   13  C   UNL     1     -10.254  15.866  68.239  1.00  0.00    -0.227 A  
HETATM   14  C   UNL     1     -10.887  15.390  65.956  1.00  0.00    -0.314 A  
HETATM   15  C   UNL     1     -10.312  16.245  66.899  1.00  0.00    -0.299 A  
HETATM   16  F   UNL     1     -11.006  15.843  64.700  1.00  0.00    -0.433 F  
BRANCH  11  17
HETATM   17  C   UNL     1     -12.082  13.305  65.323  1.00  0.00    -0.418 C  
HETATM   18  O   UNL     1     -13.264  13.559  65.097  1.00  0.00    -0.720 OA 
BRANCH  17  19
HETATM   19  C   UNL     1     -11.390  12.229  64.602  1.00  0.00    -0.375 A  
HETATM   20  C   UNL     1     -11.597  11.978  63.253  1.00  0.00    -0.319 A  
HETATM   21  N   UNL     1     -10.690  11.041  62.836  1.00  0.00    -0.792 NA 
HETATM   22  C   UNL     1      -9.922  10.644  63.893  1.00  0.00    -0.326 A  
HETATM   23  H   UNL     1     -10.602  10.692  61.881  1.00  0.00     0.000 HD 
HETATM   24  N   UNL     1      -8.889   9.789  63.805  1.00  0.00    -0.221 NA 
HETATM   25  C   UNL     1      -8.292   9.553  65.005  1.00  0.00    -0.143 A  
HETATM   26  C   UNL     1      -8.687  10.046  66.252  1.00  0.00    -0.148 A  
HETATM   27  C   UNL     1      -9.805  10.899  66.252  1.00  0.00    -0.261 A  
HETATM   28  C   UNL     1     -10.406  11.273  65.033  1.00  0.00    -0.359 A  
BRANCH  26  29
HETATM   29  C   UNL     1      -7.961   9.748  67.509  1.00  0.00    -0.106 A  
HETATM   30  C   UNL     1      -7.707   8.427  67.924  1.00  0.00    -0.103 A  
HETATM   31  C   UNL     1      -6.959   8.158  69.078  1.00  0.00    -0.061 A  
HETATM   32  C   UNL     1      -6.446   9.206  69.834  1.00  0.00    -0.042 A  
HETATM   33  C   UNL     1      -6.692  10.521  69.459  1.00  0.00    -0.089 A  
HETATM   34 CL   UNL     1      -5.498   8.879  71.231  1.00  0.00    -0.036 Cl 
HETATM   35  C   UNL     1      -7.450  10.786  68.314  1.00  0.00    -0.092 A  
ENDBRANCH  26  29
ENDBRANCH  17  19
ENDBRANCH  11  17
ENDBRANCH   7   9
ENDBRANCH   4   7
ENDBRANCH   3   4
ENDBRANCH   2   3
TORSDOF 7
ENDMDL
MODEL       61
REMARK 921   NORMALIZED FREE ENERGY PREDICTED BY IDOCK:   -6.25 KCAL/MOL
REMARK 922        TOTAL FREE ENERGY PREDICTED BY IDOCK:  -10.56 KCAL/MOL
REMARK 923 INTER-LIGAND FREE ENERGY PREDICTED BY IDOCK:   -8.83 KCAL/MOL
REMARK 924 INTRA-LIGAND FREE ENERGY PREDICTED BY IDOCK:   -1.73 KCAL/MOL
REMARK 927      BINDING AFFINITY PREDICTED BY RF-SCORE:    0.00 PKD
ROOT
HETATM    1  C   UNL     1     -13.178  11.824  71.796  1.00  0.00    -0.434 C  
HETATM    2  C   UNL     1     -12.847  10.340  71.810  1.00  0.00    -0.565 C  
ENDROOT
BRANCH   2   3
HETATM    3  C   UNL     1     -11.855   9.970  70.712  1.00  0.00    -0.346 C  
BRANCH   3   4
HETATM    4  S   UNL     1     -10.987   8.453  71.118  1.00  0.00    -0.255 S  
HETATM    5  O   UNL     1     -11.205   8.131  72.511  1.00  0.00    -0.351 OA 
HETATM    6  O   UNL     1      -9.663   8.516  70.547  1.00  0.00    -0.170 OA 
BRANCH   4   7
HETATM    7  N   UNL     1     -11.809   7.342  70.143  1.00  0.00    -0.515 N  
HETATM    8  H   UNL     1     -12.794   7.471  69.912  1.00  0.00     0.000 HD 
BRANCH   7   9
HETATM    9  C   UNL     1     -11.074   6.217  69.656  1.00  0.00    -0.419 A  
HETATM   10  C   UNL     1     -10.873   6.042  68.281  1.00  0.00    -0.284 A  
HETATM   11  C   UNL     1      -9.950   5.103  67.814  1.00  0.00    -0.202 A  
HETATM   12  F   UNL     1     -11.528   6.849  67.430  1.00  0.00    -0.327 F  
HETATM   13  C   UNL     1     -10.517   5.317  70.561  1.00  0.00    -0.312 A  
HETATM   14  C   UNL     1      -9.401   4.204  68.730  1.00  0.00    -0.159 A  
HETATM   15  C   UNL     1      -9.702   4.288  70.091  1.00  0.00    -0.282 A  
HETATM   16  F   UNL     1      -8.535   3.256  68.344  1.00  0.00    -0.083 F  
BRANCH  11  17
HETATM   17  C   UNL     1      -9.502   5.066  66.401  1.00  0.00    -0.153 C  
HETATM   18  O   UNL     1     -10.061   4.292  65.627  1.00  0.00    -0.220 OA 
BRANCH  17  19
HETATM   19  C   UNL     1      -8.430   5.955  65.936  1.00  0.00    -0.141 A  
HETATM   20  C   UNL     1      -7.140   5.507  65.688  1.00  0.00    -0.067 A  
HETATM   21  N   UNL     1      -6.426   6.520  65.106  1.00  0.00    -0.038 NA 
HETATM   22  C   UNL     1      -7.210   7.634  65.007  1.00  0.00    -0.066 A  
HETATM   23  H   UNL     1      -5.457   6.454  64.795  1.00  0.00     0.000 HD 
HETATM   24  N   UNL     1      -6.834   8.780  64.413  1.00  0.00    -0.077 NA 
HETATM   25  C   UNL     1      -7.797   9.740  64.453  1.00  0.00    -0.137 A  
HETATM   26  C   UNL     1      -9.043   9.656  65.083  1.00  0.00    -0.279 A  
HETATM   27  C   UNL     1      -9.332   8.433  65.715  1.00  0.00    -0.141 A  
HETATM   28  C   UNL     1      -8.426   7.358  65.620  1.00  0.00    -0.137 A  
BRANCH  26  29
HETATM   29  C   UNL     1     -10.039  10.751  65.059  1.00  0.00    -0.377 A  
HETATM   30  C   UNL     1     -10.438  11.418  66.233  1.00  0.00    -0.301 A  
HETATM   31  C   UNL     1     -11.329  12.499  66.191  1.00  0.00    -0.388 A  
HETATM   32  C   UNL     1     -11.832  12.937  64.970  1.00  0.00    -0.372 A  
HETATM   33  C   UNL     1     -11.469  12.290  63.795  1.00  0.00    -0.545 A  
HETATM   34 CL   UNL     1     -12.897  14.285  64.910  1.00  0.00    -0.255 Cl 
HETATM   35  C   UNL     1     -10.590  11.203  63.844  1.00  0.00    -0.431 A  
ENDBRANCH  26  29
ENDBRANCH  17  19
ENDBRANCH  11  17
ENDBRANCH   7   9
ENDBRANCH   4   7
ENDBRANCH   3   4
ENDBRANCH   2   3
TORSDOF 7
ENDMDL
MODEL       62
REMARK 921   NORMALIZED FREE ENERGY PREDICTED BY IDOCK:   -6.24 KCAL/MOL
REMARK 922        TOTAL FREE ENERGY PREDICTED BY IDOCK:  -10.55 KCAL/MOL
REMARK 923 INTER-LIGAND FREE ENERGY PREDICTED BY IDOCK:   -9.58 KCAL/MOL
REMARK 924 INTRA-LIGAND FREE ENERGY PREDICTED BY IDOCK:   -0.97 KCAL/MOL
REMARK 927      BINDING AFFINITY PREDICTED BY RF-SCORE:    0.00 PKD
ROOT
HETATM    1  C   UNL     1      -9.439   4.893  73.582  1.00  0.00    -0.132 C  
HETATM    2  C   UNL     1     -10.147   5.184  72.269  1.00  0.00    -0.243 C  
ENDROOT
BRANCH   2   3
HETATM    3  C   UNL     1     -11.626   5.495  72.479  1.00  0.00    -0.211 C  
BRANCH   3   4
HETATM    4  S   UNL     1     -12.148   6.861  71.438  1.00  0.00    -0.377 S  
HETATM    5  O   UNL     1     -13.560   7.101  71.633  1.00  0.00    -0.377 OA 
HETATM    6  O   UNL     1     -11.579   6.679  70.124  1.00  0.00    -0.382 OA 
BRANCH   4   7
HETATM    7  N   UNL     1     -11.257   8.133  72.107  1.00  0.00    -0.303 N  
HETATM    8  H   UNL     1     -10.734   8.012  72.974  1.00  0.00     0.000 HD 
BRANCH   7   9
HETATM    9  C   UNL     1     -11.265   9.383  71.413  1.00  0.00    -0.381 A  
HETATM   10  C   UNL     1     -10.205   9.731  70.566  1.00  0.00    -0.255 A  
HETATM   11  C   UNL     1     -10.322  10.816  69.694  1.00  0.00    -0.142 A  
HETATM   12  F   UNL     1      -9.111   8.952  70.554  1.00  0.00    -0.149 F  
HETATM   13  C   UNL     1     -12.357  10.237  71.550  1.00  0.00    -0.488 A  
HETATM   14  C   UNL     1     -11.419  11.667  69.843  1.00  0.00    -0.228 A  
HETATM   15  C   UNL     1     -12.417  11.399  70.782  1.00  0.00    -0.460 A  
HETATM   16  F   UNL     1     -11.576  12.747  69.064  1.00  0.00    -0.274 F  
BRANCH  11  17
HETATM   17  C   UNL     1      -9.356  11.061  68.597  1.00  0.00    -0.194 C  
HETATM   18  O   UNL     1      -8.156  10.939  68.832  1.00  0.00    -0.136 OA 
BRANCH  17  19
HETATM   19  C   UNL     1      -9.830  11.417  67.254  1.00  0.00    -0.209 A  
HETATM   20  C   UNL     1     -10.377  10.485  66.382  1.00  0.00    -0.221 A  
HETATM   21  N   UNL     1     -10.879  11.144  65.292  1.00  0.00    -0.203 NA 
HETATM   22  C   UNL     1     -10.634  12.483  65.413  1.00  0.00    -0.281 A  
HETATM   23  H   UNL     1     -11.362  10.704  64.509  1.00  0.00     0.000 HD 
HETATM   24  N   UNL     1     -11.065  13.417  64.548  1.00  0.00    -0.363 NA 
HETATM   25  C   UNL     1     -10.682  14.677  64.893  1.00  0.00    -0.427 A  
HETATM   26  C   UNL     1      -9.871  15.043  65.971  1.00  0.00    -0.347 A  
HETATM   27  C   UNL     1      -9.432  13.994  66.798  1.00  0.00    -0.292 A  
HETATM   28  C   UNL     1      -9.880  12.678  66.563  1.00  0.00    -0.258 A  
BRANCH  26  29
HETATM   29  C   UNL     1      -9.519  16.448  66.281  1.00  0.00    -0.347 A  
HETATM   30  C   UNL     1      -8.183  16.860  66.446  1.00  0.00    -0.342 A  
HETATM   31  C   UNL     1      -7.858  18.205  66.669  1.00  0.00    -0.268 A  
HETATM   32  C   UNL     1      -8.865  19.164  66.724  1.00  0.00    -0.311 A  
HETATM   33  C   UNL     1     -10.194  18.786  66.579  1.00  0.00    -0.458 A  
HETATM   34 CL   UNL     1      -8.467  20.819  66.963  1.00  0.00    -0.251 Cl 
HETATM   35  C   UNL     1     -10.515  17.441  66.370  1.00  0.00    -0.267 A  
ENDBRANCH  26  29
ENDBRANCH  17  19
ENDBRANCH  11  17
ENDBRANCH   7   9
ENDBRANCH   4   7
ENDBRANCH   3   4
ENDBRANCH   2   3
TORSDOF 7
ENDMDL
MODEL       63
REMARK 921   NORMALIZED FREE ENERGY PREDICTED BY IDOCK:   -6.22 KCAL/MOL
REMARK 922        TOTAL FREE ENERGY PREDICTED BY IDOCK:  -10.51 KCAL/MOL
REMARK 923 INTER-LIGAND FREE ENERGY PREDICTED BY IDOCK:   -8.72 KCAL/MOL
REMARK 924 INTRA-LIGAND FREE ENERGY PREDICTED BY IDOCK:   -1.80 KCAL/MOL
REMARK 927      BINDING AFFINITY PREDICTED BY RF-SCORE:    0.00 PKD
ROOT
HETATM    1  C   UNL     1      -7.557  15.775  67.784  1.00  0.00    -0.157 C  
HETATM    2  C   UNL     1      -8.159  16.010  69.160  1.00  0.00    -0.238 C  
ENDROOT
BRANCH   2   3
HETATM    3  C   UNL     1      -9.373  15.120  69.407  1.00  0.00    -0.175 C  
BRANCH   3   4
HETATM    4  S   UNL     1     -10.764  16.085  70.002  1.00  0.00    -0.310 S  
HETATM    5  O   UNL     1     -10.496  17.491  69.801  1.00  0.00    -0.026 OA 
HETATM    6  O   UNL     1     -11.171  15.561  71.284  1.00  0.00    -0.352 OA 
BRANCH   4   7
HETATM    7  N   UNL     1     -11.981  15.582  68.940  1.00  0.00    -0.554 N  
HETATM    8  H   UNL     1     -12.950  15.498  69.249  1.00  0.00     0.000 HD 
BRANCH   7   9
HETATM    9  C   UNL     1     -11.603  15.279  67.595  1.00  0.00    -0.239 A  
HETATM   10  C   UNL     1     -11.778  13.987  67.083  1.00  0.00    -0.393 A  
HETATM   11  C   UNL     1     -11.657  13.746  65.712  1.00  0.00    -0.342 A  
HETATM   12  F   UNL     1     -12.142  13.007  67.926  1.00  0.00    -0.372 F  
HETATM   13  C   UNL     1     -11.100  16.289  66.780  1.00  0.00     0.081 A  
HETATM   14  C   UNL     1     -11.148  14.765  64.905  1.00  0.00    -0.407 A  
HETATM   15  C   UNL     1     -10.843  16.021  65.436  1.00  0.00    -0.340 A  
HETATM   16  F   UNL     1     -10.973  14.591  63.588  1.00  0.00     0.405 F  
BRANCH  11  17
HETATM   17  C   UNL     1     -12.094  12.475  65.088  1.00  0.00    -0.446 C  
HETATM   18  O   UNL     1     -13.276  12.349  64.774  1.00  0.00    -0.784 OA 
BRANCH  17  19
HETATM   19  C   UNL     1     -11.126  11.402  64.827  1.00  0.00    -0.258 A  
HETATM   20  C   UNL     1     -10.508  11.233  63.595  1.00  0.00    -0.405 A  
HETATM   21  N   UNL     1      -9.541  10.272  63.716  1.00  0.00    -0.298 NA 
HETATM   22  C   UNL     1      -9.542   9.779  64.990  1.00  0.00    -0.264 A  
HETATM   23  H   UNL     1      -8.916   9.969  62.969  1.00  0.00     0.000 HD 
HETATM   24  N   UNL     1      -8.663   8.875  65.457  1.00  0.00    -0.173 NA 
HETATM   25  C   UNL     1      -8.882   8.545  66.758  1.00  0.00    -0.139 A  
HETATM   26  C   UNL     1      -9.926   8.992  67.575  1.00  0.00    -0.262 A  
HETATM   27  C   UNL     1     -10.821   9.903  66.987  1.00  0.00    -0.186 A  
HETATM   28  C   UNL     1     -10.592  10.373  65.678  1.00  0.00    -0.096 A  
BRANCH  26  29
HETATM   29  C   UNL     1     -10.075   8.590  68.992  1.00  0.00    -0.207 A  
HETATM   30  C   UNL     1      -9.594   9.391  70.046  1.00  0.00    -0.256 A  
HETATM   31  C   UNL     1      -9.802   9.035  71.385  1.00  0.00    -0.381 A  
HETATM   32  C   UNL     1     -10.503   7.874  71.695  1.00  0.00    -0.209 A  
HETATM   33  C   UNL     1     -10.978   7.055  70.678  1.00  0.00    -0.292 A  
HETATM   34 CL   UNL     1     -10.792   7.453  73.336  1.00  0.00    -0.419 Cl 
HETATM   35  C   UNL     1     -10.756   7.407  69.342  1.00  0.00    -0.220 A  
ENDBRANCH  26  29
ENDBRANCH  17  19
ENDBRANCH  11  17
ENDBRANCH   7   9
ENDBRANCH   4   7
ENDBRANCH   3   4
ENDBRANCH   2   3
TORSDOF 7
ENDMDL
MODEL       64
REMARK 921   NORMALIZED FREE ENERGY PREDICTED BY IDOCK:   -6.22 KCAL/MOL
REMARK 922        TOTAL FREE ENERGY PREDICTED BY IDOCK:  -10.51 KCAL/MOL
REMARK 923 INTER-LIGAND FREE ENERGY PREDICTED BY IDOCK:   -8.84 KCAL/MOL
REMARK 924 INTRA-LIGAND FREE ENERGY PREDICTED BY IDOCK:   -1.68 KCAL/MOL
REMARK 927      BINDING AFFINITY PREDICTED BY RF-SCORE:    0.00 PKD
ROOT
HETATM    1  C   UNL     1      -9.273   3.079  69.902  1.00  0.00    -0.225 C  
HETATM    2  C   UNL     1     -10.029   4.266  70.478  1.00  0.00    -0.219 C  
ENDROOT
BRANCH   2   3
HETATM    3  C   UNL     1      -9.625   4.549  71.921  1.00  0.00    -0.153 C  
BRANCH   3   4
HETATM    4  S   UNL     1     -10.831   5.606  72.729  1.00  0.00    -0.279 S  
HETATM    5  O   UNL     1     -10.145   6.652  73.453  1.00  0.00    -0.186 OA 
HETATM    6  O   UNL     1     -11.826   4.769  73.355  1.00  0.00    -0.218 OA 
BRANCH   4   7
HETATM    7  N   UNL     1     -11.624   6.268  71.390  1.00  0.00    -0.299 N  
HETATM    8  H   UNL     1     -12.174   5.684  70.760  1.00  0.00     0.000 HD 
BRANCH   7   9
HETATM    9  C   UNL     1     -11.496   7.675  71.173  1.00  0.00    -0.275 A  
HETATM   10  C   UNL     1     -10.376   8.192  70.508  1.00  0.00    -0.202 A  
HETATM   11  C   UNL     1     -10.363   9.517  70.067  1.00  0.00    -0.284 A  
HETATM   12  F   UNL     1      -9.354   7.364  70.236  1.00  0.00    -0.159 F  
HETATM   13  C   UNL     1     -12.515   8.529  71.588  1.00  0.00    -0.370 A  
HETATM   14  C   UNL     1     -11.388  10.364  70.491  1.00  0.00    -0.341 A  
HETATM   15  C   UNL     1     -12.443   9.885  71.271  1.00  0.00    -0.479 A  
HETATM   16  F   UNL     1     -11.419  11.656  70.134  1.00  0.00    -0.338 F  
BRANCH  11  17
HETATM   17  C   UNL     1      -9.335  10.032  69.131  1.00  0.00    -0.193 C  
HETATM   18  O   UNL     1      -8.249  10.384  69.586  1.00  0.00    -0.155 OA 
BRANCH  17  19
HETATM   19  C   UNL     1      -9.605  10.094  67.689  1.00  0.00    -0.170 A  
HETATM   20  C   UNL     1      -9.675   8.960  66.891  1.00  0.00    -0.202 A  
HETATM   21  N   UNL     1     -10.109   9.324  65.645  1.00  0.00    -0.359 NA 
HETATM   22  C   UNL     1     -10.284  10.679  65.599  1.00  0.00    -0.253 A  
HETATM   23  H   UNL     1     -10.276   8.684  64.870  1.00  0.00     0.000 HD 
HETATM   24  N   UNL     1     -10.775  11.347  64.541  1.00  0.00    -0.326 NA 
HETATM   25  C   UNL     1     -10.844  12.690  64.749  1.00  0.00    -0.302 A  
HETATM   26  C   UNL     1     -10.409  13.391  65.878  1.00  0.00    -0.290 A  
HETATM   27  C   UNL     1      -9.870  12.611  66.917  1.00  0.00    -0.234 A  
HETATM   28  C   UNL     1      -9.868  11.205  66.815  1.00  0.00    -0.230 A  
BRANCH  26  29
HETATM   29  C   UNL     1     -10.541  14.858  66.023  1.00  0.00    -0.321 A  
HETATM   30  C   UNL     1     -10.313  15.507  67.252  1.00  0.00    -0.267 A  
HETATM   31  C   UNL     1     -10.374  16.903  67.361  1.00  0.00    -0.309 A  
HETATM   32  C   UNL     1     -10.656  17.676  66.240  1.00  0.00    -0.215 A  
HETATM   33  C   UNL     1     -10.899  17.065  65.017  1.00  0.00    -0.017 A  
HETATM   34 CL   UNL     1     -10.695  19.390  66.363  1.00  0.00    -0.526 Cl 
HETATM   35  C   UNL     1     -10.852  15.671  64.915  1.00  0.00    -0.438 A  
ENDBRANCH  26  29
ENDBRANCH  17  19
ENDBRANCH  11  17
ENDBRANCH   7   9
ENDBRANCH   4   7
ENDBRANCH   3   4
ENDBRANCH   2   3
TORSDOF 7
ENDMDL
MODEL       65
REMARK 921   NORMALIZED FREE ENERGY PREDICTED BY IDOCK:   -6.19 KCAL/MOL
REMARK 922        TOTAL FREE ENERGY PREDICTED BY IDOCK:  -10.48 KCAL/MOL
REMARK 923 INTER-LIGAND FREE ENERGY PREDICTED BY IDOCK:   -8.68 KCAL/MOL
REMARK 924 INTRA-LIGAND FREE ENERGY PREDICTED BY IDOCK:   -1.79 KCAL/MOL
REMARK 927      BINDING AFFINITY PREDICTED BY RF-SCORE:    0.00 PKD
ROOT
HETATM    1  C   UNL     1     -12.960  15.505  71.495  1.00  0.00    -0.545 C  
HETATM    2  C   UNL     1     -12.504  14.885  70.184  1.00  0.00    -0.353 C  
ENDROOT
BRANCH   2   3
HETATM    3  C   UNL     1     -11.477  15.759  69.470  1.00  0.00    -0.353 C  
BRANCH   3   4
HETATM    4  S   UNL     1     -10.182  14.757  68.735  1.00  0.00    -0.242 S  
HETATM    5  O   UNL     1     -10.541  13.360  68.834  1.00  0.00    -0.229 OA 
HETATM    6  O   UNL     1      -8.905  15.252  69.191  1.00  0.00    -0.209 OA 
BRANCH   4   7
HETATM    7  N   UNL     1     -10.271  15.253  67.121  1.00  0.00    -0.249 N  
HETATM    8  H   UNL     1      -9.858  16.134  66.816  1.00  0.00     0.000 HD 
BRANCH   7   9
HETATM    9  C   UNL     1     -10.945  14.392  66.199  1.00  0.00    -0.320 A  
HETATM   10  C   UNL     1     -10.224  13.465  65.436  1.00  0.00    -0.298 A  
HETATM   11  C   UNL     1     -10.888  12.456  64.735  1.00  0.00    -0.340 A  
HETATM   12  F   UNL     1      -8.882  13.520  65.460  1.00  0.00     0.421 F  
HETATM   13  C   UNL     1     -12.333  14.450  66.097  1.00  0.00    -0.335 A  
HETATM   14  C   UNL     1     -12.279  12.526  64.636  1.00  0.00    -0.453 A  
HETATM   15  C   UNL     1     -12.998  13.531  65.287  1.00  0.00    -0.290 A  
HETATM   16  F   UNL     1     -12.977  11.610  63.950  1.00  0.00    -0.468 F  
BRANCH  11  17
HETATM   17  C   UNL     1     -10.175  11.299  64.143  1.00  0.00    -0.335 C  
HETATM   18  O   UNL     1     -10.405  11.003  62.973  1.00  0.00    -0.278 OA 
BRANCH  17  19
HETATM   19  C   UNL     1      -9.195  10.544  64.934  1.00  0.00    -0.254 A  
HETATM   20  C   UNL     1      -7.916  10.263  64.473  1.00  0.00    -0.133 A  
HETATM   21  N   UNL     1      -7.193   9.706  65.493  1.00  0.00    -0.094 NA 
HETATM   22  C   UNL     1      -7.984   9.579  66.600  1.00  0.00    -0.108 A  
HETATM   23  H   UNL     1      -6.213   9.428  65.436  1.00  0.00     0.000 HD 
HETATM   24  N   UNL     1      -7.556   9.137  67.795  1.00  0.00    -0.085 NA 
HETATM   25  C   UNL     1      -8.542   9.100  68.731  1.00  0.00    -0.131 A  
HETATM   26  C   UNL     1      -9.895   9.401  68.540  1.00  0.00    -0.171 A  
HETATM   27  C   UNL     1     -10.258   9.813  67.246  1.00  0.00    -0.289 A  
HETATM   28  C   UNL     1      -9.269   9.980  66.255  1.00  0.00    -0.199 A  
BRANCH  26  29
HETATM   29  C   UNL     1     -10.898   9.349  69.628  1.00  0.00    -0.245 A  
HETATM   30  C   UNL     1     -11.624  10.488  70.024  1.00  0.00    -0.392 A  
HETATM   31  C   UNL     1     -12.620  10.413  71.007  1.00  0.00    -0.491 A  
HETATM   32  C   UNL     1     -12.914   9.192  71.606  1.00  0.00    -0.365 A  
HETATM   33  C   UNL     1     -12.206   8.052  71.247  1.00  0.00    -0.308 A  
HETATM   34 CL   UNL     1     -14.160   9.088  72.785  1.00  0.00    -0.356 Cl 
HETATM   35  C   UNL     1     -11.203   8.135  70.275  1.00  0.00    -0.182 A  
ENDBRANCH  26  29
ENDBRANCH  17  19
ENDBRANCH  11  17
ENDBRANCH   7   9
ENDBRANCH   4   7
ENDBRANCH   3   4
ENDBRANCH   2   3
TORSDOF 7
ENDMDL
MODEL       66
REMARK 921   NORMALIZED FREE ENERGY PREDICTED BY IDOCK:   -6.19 KCAL/MOL
REMARK 922        TOTAL FREE ENERGY PREDICTED BY IDOCK:  -10.47 KCAL/MOL
REMARK 923 INTER-LIGAND FREE ENERGY PREDICTED BY IDOCK:   -9.11 KCAL/MOL
REMARK 924 INTRA-LIGAND FREE ENERGY PREDICTED BY IDOCK:   -1.36 KCAL/MOL
REMARK 927      BINDING AFFINITY PREDICTED BY RF-SCORE:    0.00 PKD
ROOT
HETATM    1  C   UNL     1      -7.428   6.295  69.138  1.00  0.00    -0.094 C  
HETATM    2  C   UNL     1      -6.283   6.311  70.139  1.00  0.00    -0.031 C  
ENDROOT
BRANCH   2   3
HETATM    3  C   UNL     1      -6.604   5.485  71.380  1.00  0.00    -0.044 C  
BRANCH   3   4
HETATM    4  S   UNL     1      -6.657   6.522  72.844  1.00  0.00    -0.068 S  
HETATM    5  O   UNL     1      -6.500   7.907  72.458  1.00  0.00    -0.059 OA 
HETATM    6  O   UNL     1      -5.837   5.917  73.865  1.00  0.00    -0.056 OA 
BRANCH   4   7
HETATM    7  N   UNL     1      -8.243   6.255  73.369  1.00  0.00    -0.114 N  
HETATM    8  H   UNL     1      -8.452   6.093  74.354  1.00  0.00     0.000 HD 
BRANCH   7   9
HETATM    9  C   UNL     1      -9.277   6.265  72.382  1.00  0.00    -0.138 A  
HETATM   10  C   UNL     1      -9.856   7.472  71.972  1.00  0.00    -0.163 A  
HETATM   11  C   UNL     1     -10.672   7.518  70.839  1.00  0.00    -0.244 A  
HETATM   12  F   UNL     1      -9.545   8.593  72.644  1.00  0.00    -0.337 F  
HETATM   13  C   UNL     1      -9.677   5.066  71.796  1.00  0.00    -0.218 A  
HETATM   14  C   UNL     1     -11.069   6.310  70.262  1.00  0.00    -0.364 A  
HETATM   15  C   UNL     1     -10.600   5.089  70.751  1.00  0.00    -0.148 A  
HETATM   16  F   UNL     1     -11.879   6.280  69.194  1.00  0.00    -0.401 F  
BRANCH  11  17
HETATM   17  C   UNL     1     -11.083   8.794  70.208  1.00  0.00    -0.222 C  
HETATM   18  O   UNL     1     -10.648   9.066  69.091  1.00  0.00    -0.227 OA 
BRANCH  17  19
HETATM   19  C   UNL     1     -12.013   9.699  70.896  1.00  0.00    -0.391 A  
HETATM   20  C   UNL     1     -12.883   9.267  71.888  1.00  0.00    -0.404 A  
HETATM   21  N   UNL     1     -13.486  10.359  72.451  1.00  0.00    -0.548 NA 
HETATM   22  C   UNL     1     -13.060  11.494  71.820  1.00  0.00    -0.398 A  
HETATM   23  H   UNL     1     -14.151  10.331  73.223  1.00  0.00     0.000 HD 
HETATM   24  N   UNL     1     -13.405  12.742  72.183  1.00  0.00    -0.528 NA 
HETATM   25  C   UNL     1     -12.851  13.697  71.388  1.00  0.00    -0.360 A  
HETATM   26  C   UNL     1     -12.056  13.492  70.256  1.00  0.00    -0.425 A  
HETATM   27  C   UNL     1     -11.783  12.152  69.928  1.00  0.00    -0.361 A  
HETATM   28  C   UNL     1     -12.234  11.115  70.770  1.00  0.00    -0.484 A  
BRANCH  26  29
HETATM   29  C   UNL     1     -11.479  14.599  69.459  1.00  0.00    -0.334 A  
HETATM   30  C   UNL     1     -11.500  14.590  68.052  1.00  0.00    -0.345 A  
HETATM   31  C   UNL     1     -11.013  15.674  67.309  1.00  0.00    -0.275 A  
HETATM   32  C   UNL     1     -10.504  16.792  67.962  1.00  0.00    -0.333 A  
HETATM   33  C   UNL     1     -10.458  16.825  69.350  1.00  0.00    -0.312 A  
HETATM   34 CL   UNL     1      -9.940  18.139  67.055  1.00  0.00    -0.322 Cl 
HETATM   35  C   UNL     1     -10.931  15.735  70.087  1.00  0.00    -0.361 A  
ENDBRANCH  26  29
ENDBRANCH  17  19
ENDBRANCH  11  17
ENDBRANCH   7   9
ENDBRANCH   4   7
ENDBRANCH   3   4
ENDBRANCH   2   3
TORSDOF 7
ENDMDL
MODEL       67
REMARK 921   NORMALIZED FREE ENERGY PREDICTED BY IDOCK:   -6.16 KCAL/MOL
REMARK 922        TOTAL FREE ENERGY PREDICTED BY IDOCK:  -10.43 KCAL/MOL
REMARK 923 INTER-LIGAND FREE ENERGY PREDICTED BY IDOCK:   -8.93 KCAL/MOL
REMARK 924 INTRA-LIGAND FREE ENERGY PREDICTED BY IDOCK:   -1.50 KCAL/MOL
REMARK 927      BINDING AFFINITY PREDICTED BY RF-SCORE:    0.00 PKD
ROOT
HETATM    1  C   UNL     1     -11.147   4.845  73.165  1.00  0.00    -0.396 C  
HETATM    2  C   UNL     1     -10.294   5.565  72.132  1.00  0.00    -0.263 C  
ENDROOT
BRANCH   2   3
HETATM    3  C   UNL     1     -11.146   6.366  71.152  1.00  0.00    -0.291 C  
BRANCH   3   4
HETATM    4  S   UNL     1     -10.403   6.376  69.518  1.00  0.00    -0.229 S  
HETATM    5  O   UNL     1     -11.405   6.042  68.531  1.00  0.00    -0.230 OA 
HETATM    6  O   UNL     1      -9.138   5.684  69.585  1.00  0.00    -0.127 OA 
BRANCH   4   7
HETATM    7  N   UNL     1      -9.979   8.006  69.368  1.00  0.00    -0.186 N  
HETATM    8  H   UNL     1     -10.514   8.736  69.838  1.00  0.00     0.000 HD 
BRANCH   7   9
HETATM    9  C   UNL     1      -8.845   8.324  68.558  1.00  0.00    -0.137 A  
HETATM   10  C   UNL     1      -8.927   8.254  67.162  1.00  0.00    -0.138 A  
HETATM   11  C   UNL     1      -7.921   8.804  66.364  1.00  0.00    -0.103 A  
HETATM   12  F   UNL     1     -10.029   7.719  66.611  1.00  0.00    -0.262 F  
HETATM   13  C   UNL     1      -7.666   8.749  69.166  1.00  0.00    -0.093 A  
HETATM   14  C   UNL     1      -6.742   9.224  66.984  1.00  0.00    -0.076 A  
HETATM   15  C   UNL     1      -6.600   9.172  68.373  1.00  0.00    -0.059 A  
HETATM   16  F   UNL     1      -5.723   9.729  66.275  1.00  0.00    -0.048 F  
BRANCH  11  17
HETATM   17  C   UNL     1      -8.084   9.001  64.904  1.00  0.00    -0.137 C  
HETATM   18  O   UNL     1      -7.411   8.312  64.139  1.00  0.00    -0.096 OA 
BRANCH  17  19
HETATM   19  C   UNL     1      -9.049   9.979  64.388  1.00  0.00    -0.289 A  
HETATM   20  C   UNL     1      -9.251  10.188  63.030  1.00  0.00    -0.293 A  
HETATM   21  N   UNL     1     -10.323  11.023  62.867  1.00  0.00    -0.770 NA 
HETATM   22  C   UNL     1     -10.801  11.398  64.091  1.00  0.00    -0.365 A  
HETATM   23  H   UNL     1     -10.707  11.320  61.971  1.00  0.00     0.000 HD 
HETATM   24  N   UNL     1     -11.896  12.155  64.281  1.00  0.00    -0.377 NA 
HETATM   25  C   UNL     1     -12.155  12.391  65.596  1.00  0.00    -0.329 A  
HETATM   26  C   UNL     1     -11.383  11.990  66.691  1.00  0.00    -0.399 A  
HETATM   27  C   UNL     1     -10.233  11.239  66.392  1.00  0.00    -0.273 A  
HETATM   28  C   UNL     1      -9.962  10.864  65.060  1.00  0.00    -0.356 A  
BRANCH  26  29
HETATM   29  C   UNL     1     -11.755  12.279  68.095  1.00  0.00    -0.408 A  
HETATM   30  C   UNL     1     -11.968  13.594  68.551  1.00  0.00    -0.396 A  
HETATM   31  C   UNL     1     -12.388  13.851  69.863  1.00  0.00    -0.358 A  
HETATM   32  C   UNL     1     -12.610  12.795  70.741  1.00  0.00    -0.225 A  
HETATM   33  C   UNL     1     -12.395  11.487  70.325  1.00  0.00    -0.355 A  
HETATM   34 CL   UNL     1     -13.159  13.104  72.340  1.00  0.00    -0.476 Cl 
HETATM   35  C   UNL     1     -11.963  11.236  69.019  1.00  0.00    -0.393 A  
ENDBRANCH  26  29
ENDBRANCH  17  19
ENDBRANCH  11  17
ENDBRANCH   7   9
ENDBRANCH   4   7
ENDBRANCH   3   4
ENDBRANCH   2   3
TORSDOF 7
ENDMDL
MODEL       68
REMARK 921   NORMALIZED FREE ENERGY PREDICTED BY IDOCK:   -6.15 KCAL/MOL
REMARK 922        TOTAL FREE ENERGY PREDICTED BY IDOCK:  -10.42 KCAL/MOL
REMARK 923 INTER-LIGAND FREE ENERGY PREDICTED BY IDOCK:   -9.42 KCAL/MOL
REMARK 924 INTRA-LIGAND FREE ENERGY PREDICTED BY IDOCK:   -1.00 KCAL/MOL
REMARK 927      BINDING AFFINITY PREDICTED BY RF-SCORE:    0.00 PKD
ROOT
HETATM    1  C   UNL     1      -9.417  20.135  66.521  1.00  0.00    -0.497 C  
HETATM    2  C   UNL     1      -9.427  18.950  67.473  1.00  0.00    -0.340 C  
ENDROOT
BRANCH   2   3
HETATM    3  C   UNL     1     -10.617  18.030  67.220  1.00  0.00    -0.346 C  
BRANCH   3   4
HETATM    4  S   UNL     1     -10.295  16.933  65.836  1.00  0.00    -0.249 S  
HETATM    5  O   UNL     1      -8.878  16.658  65.759  1.00  0.00    -0.493 OA 
HETATM    6  O   UNL     1     -11.044  17.402  64.695  1.00  0.00    -1.029 OA 
BRANCH   4   7
HETATM    7  N   UNL     1     -11.118  15.541  66.331  1.00  0.00    -0.237 N  
HETATM    8  H   UNL     1     -11.557  15.486  67.250  1.00  0.00     0.000 HD 
BRANCH   7   9
HETATM    9  C   UNL     1     -11.175  14.444  65.416  1.00  0.00    -0.335 A  
HETATM   10  C   UNL     1     -10.289  13.367  65.543  1.00  0.00    -0.295 A  
HETATM   11  C   UNL     1     -10.501  12.187  64.827  1.00  0.00    -0.332 A  
HETATM   12  F   UNL     1      -9.282  13.466  66.426  1.00  0.00    -0.248 F  
HETATM   13  C   UNL     1     -12.149  14.431  64.421  1.00  0.00    -0.491 A  
HETATM   14  C   UNL     1     -11.479  12.186  63.829  1.00  0.00    -0.465 A  
HETATM   15  C   UNL     1     -12.280  13.308  63.605  1.00  0.00    -0.522 A  
HETATM   16  F   UNL     1     -11.711  11.099  63.080  1.00  0.00    -0.286 F  
BRANCH  11  17
HETATM   17  C   UNL     1      -9.766  10.934  65.123  1.00  0.00    -0.262 C  
HETATM   18  O   UNL     1      -8.854  10.596  64.370  1.00  0.00    -0.190 OA 
BRANCH  17  19
HETATM   19  C   UNL     1     -10.105  10.134  66.306  1.00  0.00    -0.303 A  
HETATM   20  C   UNL     1     -10.787  10.659  67.395  1.00  0.00    -0.296 A  
HETATM   21  N   UNL     1     -11.104   9.637  68.250  1.00  0.00    -0.496 NA 
HETATM   22  C   UNL     1     -10.609   8.461  67.762  1.00  0.00    -0.171 A  
HETATM   23  H   UNL     1     -11.630   9.738  69.117  1.00  0.00     0.000 HD 
HETATM   24  N   UNL     1     -10.812   7.258  68.325  1.00  0.00    -0.114 NA 
HETATM   25  C   UNL     1     -10.206   6.246  67.647  1.00  0.00    -0.169 A  
HETATM   26  C   UNL     1      -9.384   6.361  66.521  1.00  0.00    -0.181 A  
HETATM   27  C   UNL     1      -9.194   7.664  66.028  1.00  0.00    -0.118 A  
HETATM   28  C   UNL     1      -9.879   8.747  66.615  1.00  0.00    -0.335 A  
BRANCH  26  29
HETATM   29  C   UNL     1      -8.779   5.196  65.836  1.00  0.00    -0.135 A  
HETATM   30  C   UNL     1      -8.330   4.067  66.548  1.00  0.00    -0.104 A  
HETATM   31  C   UNL     1      -7.823   2.942  65.884  1.00  0.00    -0.081 A  
HETATM   32  C   UNL     1      -7.764   2.923  64.495  1.00  0.00    -0.077 A  
HETATM   33  C   UNL     1      -8.186   4.026  63.765  1.00  0.00    -0.092 A  
HETATM   34 CL   UNL     1      -7.176   1.530  63.676  1.00  0.00    -0.042 Cl 
HETATM   35  C   UNL     1      -8.679   5.153  64.431  1.00  0.00    -0.088 A  
ENDBRANCH  26  29
ENDBRANCH  17  19
ENDBRANCH  11  17
ENDBRANCH   7   9
ENDBRANCH   4   7
ENDBRANCH   3   4
ENDBRANCH   2   3
TORSDOF 7
ENDMDL
MODEL       69
REMARK 921   NORMALIZED FREE ENERGY PREDICTED BY IDOCK:   -6.15 KCAL/MOL
REMARK 922        TOTAL FREE ENERGY PREDICTED BY IDOCK:  -10.41 KCAL/MOL
REMARK 923 INTER-LIGAND FREE ENERGY PREDICTED BY IDOCK:   -8.95 KCAL/MOL
REMARK 924 INTRA-LIGAND FREE ENERGY PREDICTED BY IDOCK:   -1.47 KCAL/MOL
REMARK 927      BINDING AFFINITY PREDICTED BY RF-SCORE:    0.00 PKD
ROOT
HETATM    1  C   UNL     1      -8.946   3.756  69.677  1.00  0.00    -0.171 C  
HETATM    2  C   UNL     1      -9.297   3.975  68.215  1.00  0.00    -0.216 C  
ENDROOT
BRANCH   2   3
HETATM    3  C   UNL     1      -8.373   4.993  67.555  1.00  0.00    -0.105 C  
BRANCH   3   4
HETATM    4  S   UNL     1      -8.882   5.321  65.866  1.00  0.00    -0.148 S  
HETATM    5  O   UNL     1      -9.641   4.197  65.365  1.00  0.00    -0.161 OA 
HETATM    6  O   UNL     1      -7.755   5.862  65.144  1.00  0.00    -0.083 OA 
BRANCH   4   7
HETATM    7  N   UNL     1      -9.908   6.646  66.091  1.00  0.00    -0.405 N  
HETATM    8  H   UNL     1     -10.682   6.828  65.452  1.00  0.00     0.000 HD 
BRANCH   7   9
HETATM    9  C   UNL     1      -9.652   7.500  67.208  1.00  0.00    -0.156 A  
HETATM   10  C   UNL     1     -10.462   7.438  68.349  1.00  0.00    -0.185 A  
HETATM   11  C   UNL     1     -10.071   8.072  69.531  1.00  0.00    -0.196 A  
HETATM   12  F   UNL     1     -11.578   6.692  68.303  1.00  0.00    -0.233 F  
HETATM   13  C   UNL     1      -8.561   8.365  67.174  1.00  0.00    -0.123 A  
HETATM   14  C   UNL     1      -8.978   8.940  69.484  1.00  0.00    -0.145 A  
HETATM   15  C   UNL     1      -8.243   9.110  68.309  1.00  0.00    -0.116 A  
HETATM   16  F   UNL     1      -8.570   9.607  70.573  1.00  0.00    -0.210 F  
BRANCH  11  17
HETATM   17  C   UNL     1     -10.741   7.817  70.828  1.00  0.00    -0.226 C  
HETATM   18  O   UNL     1     -10.417   6.821  71.472  1.00  0.00    -0.212 OA 
BRANCH  17  19
HETATM   19  C   UNL     1     -11.751   8.752  71.341  1.00  0.00    -0.369 A  
HETATM   20  C   UNL     1     -12.612   8.428  72.381  1.00  0.00    -0.316 A  
HETATM   21  N   UNL     1     -13.306   9.551  72.743  1.00  0.00    -0.556 NA 
HETATM   22  C   UNL     1     -12.947  10.592  71.935  1.00  0.00    -0.437 A  
HETATM   23  H   UNL     1     -13.988   9.602  73.500  1.00  0.00     0.000 HD 
HETATM   24  N   UNL     1     -13.391  11.853  72.077  1.00  0.00    -0.441 NA 
HETATM   25  C   UNL     1     -12.886  12.701  71.139  1.00  0.00    -0.220 A  
HETATM   26  C   UNL     1     -12.051  12.369  70.068  1.00  0.00    -0.335 A  
HETATM   27  C   UNL     1     -11.673  11.018  69.976  1.00  0.00    -0.437 A  
HETATM   28  C   UNL     1     -12.070  10.105  70.974  1.00  0.00    -0.476 A  
BRANCH  26  29
HETATM   29  C   UNL     1     -11.534  13.367  69.103  1.00  0.00    -0.351 A  
HETATM   30  C   UNL     1     -10.917  12.984  67.898  1.00  0.00    -0.264 A  
HETATM   31  C   UNL     1     -10.495  13.936  66.960  1.00  0.00    -0.278 A  
HETATM   32  C   UNL     1     -10.690  15.291  67.210  1.00  0.00    -0.311 A  
HETATM   33  C   UNL     1     -11.284  15.702  68.396  1.00  0.00    -0.352 A  
HETATM   34 CL   UNL     1     -10.207  16.461  66.046  1.00  0.00    -0.353 Cl 
HETATM   35  C   UNL     1     -11.691  14.748  69.335  1.00  0.00    -0.358 A  
ENDBRANCH  26  29
ENDBRANCH  17  19
ENDBRANCH  11  17
ENDBRANCH   7   9
ENDBRANCH   4   7
ENDBRANCH   3   4
ENDBRANCH   2   3
TORSDOF 7
ENDMDL
MODEL       70
REMARK 921   NORMALIZED FREE ENERGY PREDICTED BY IDOCK:   -6.14 KCAL/MOL
REMARK 922        TOTAL FREE ENERGY PREDICTED BY IDOCK:  -10.40 KCAL/MOL
REMARK 923 INTER-LIGAND FREE ENERGY PREDICTED BY IDOCK:   -8.61 KCAL/MOL
REMARK 924 INTRA-LIGAND FREE ENERGY PREDICTED BY IDOCK:   -1.78 KCAL/MOL
REMARK 927      BINDING AFFINITY PREDICTED BY RF-SCORE:    0.00 PKD
ROOT
HETATM    1  C   UNL     1     -11.877  14.636  69.876  1.00  0.00    -0.372 C  
HETATM    2  C   UNL     1     -11.995  13.656  68.719  1.00  0.00    -0.394 C  
ENDROOT
BRANCH   2   3
HETATM    3  C   UNL     1     -11.824  14.349  67.371  1.00  0.00    -0.400 C  
BRANCH   3   4
HETATM    4  S   UNL     1     -12.137  13.208  66.021  1.00  0.00    -0.422 S  
HETATM    5  O   UNL     1     -13.127  13.773  65.132  1.00  0.00    -0.762 OA 
HETATM    6  O   UNL     1     -12.271  11.878  66.566  1.00  0.00    -0.483 OA 
BRANCH   4   7
HETATM    7  N   UNL     1     -10.628  13.195  65.256  1.00  0.00    -0.304 N  
HETATM    8  H   UNL     1     -10.405  13.863  64.518  1.00  0.00     0.000 HD 
BRANCH   7   9
HETATM    9  C   UNL     1      -9.678  12.215  65.681  1.00  0.00    -0.207 A  
HETATM   10  C   UNL     1      -9.603  10.973  65.037  1.00  0.00    -0.247 A  
HETATM   11  C   UNL     1      -8.522  10.119  65.269  1.00  0.00    -0.165 A  
HETATM   12  F   UNL     1     -10.548  10.660  64.136  1.00  0.00    -0.434 F  
HETATM   13  C   UNL     1      -8.795  12.519  66.714  1.00  0.00    -0.177 A  
HETATM   14  C   UNL     1      -7.644  10.432  66.309  1.00  0.00    -0.127 A  
HETATM   15  C   UNL     1      -7.793  11.608  67.048  1.00  0.00    -0.164 A  
HETATM   16  F   UNL     1      -6.606   9.639  66.608  1.00  0.00    -0.067 F  
BRANCH  11  17
HETATM   17  C   UNL     1      -8.252   8.933  64.423  1.00  0.00    -0.164 C  
HETATM   18  O   UNL     1      -7.923   9.107  63.252  1.00  0.00    -0.131 OA 
BRANCH  17  19
HETATM   19  C   UNL     1      -8.351   7.580  64.985  1.00  0.00    -0.068 A  
HETATM   20  C   UNL     1      -7.739   6.479  64.401  1.00  0.00    -0.109 A  
HETATM   21  N   UNL     1      -7.865   5.407  65.243  1.00  0.00    -0.093 NA 
HETATM   22  C   UNL     1      -8.582   5.773  66.346  1.00  0.00    -0.125 A  
HETATM   23  H   UNL     1      -7.482   4.477  65.072  1.00  0.00     0.000 HD 
HETATM   24  N   UNL     1      -8.819   4.972  67.400  1.00  0.00    -0.103 NA 
HETATM   25  C   UNL     1      -9.564   5.574  68.366  1.00  0.00    -0.124 A  
HETATM   26  C   UNL     1     -10.123   6.855  68.321  1.00  0.00    -0.182 A  
HETATM   27  C   UNL     1      -9.857   7.604  67.161  1.00  0.00    -0.265 A  
HETATM   28  C   UNL     1      -9.003   7.084  66.167  1.00  0.00    -0.162 A  
BRANCH  26  29
HETATM   29  C   UNL     1     -10.909   7.436  69.434  1.00  0.00    -0.184 A  
HETATM   30  C   UNL     1     -10.866   8.811  69.734  1.00  0.00    -0.196 A  
HETATM   31  C   UNL     1     -11.666   9.362  70.745  1.00  0.00    -0.349 A  
HETATM   32  C   UNL     1     -12.530   8.546  71.469  1.00  0.00    -0.317 A  
HETATM   33  C   UNL     1     -12.585   7.183  71.206  1.00  0.00    -0.421 A  
HETATM   34 CL   UNL     1     -13.539   9.224  72.684  1.00  0.00    -0.467 Cl 
HETATM   35  C   UNL     1     -11.774   6.636  70.206  1.00  0.00    -0.432 A  
ENDBRANCH  26  29
ENDBRANCH  17  19
ENDBRANCH  11  17
ENDBRANCH   7   9
ENDBRANCH   4   7
ENDBRANCH   3   4
ENDBRANCH   2   3
TORSDOF 7
ENDMDL
MODEL       71
REMARK 921   NORMALIZED FREE ENERGY PREDICTED BY IDOCK:   -6.09 KCAL/MOL
REMARK 922        TOTAL FREE ENERGY PREDICTED BY IDOCK:  -10.33 KCAL/MOL
REMARK 923 INTER-LIGAND FREE ENERGY PREDICTED BY IDOCK:   -8.90 KCAL/MOL
REMARK 924 INTRA-LIGAND FREE ENERGY PREDICTED BY IDOCK:   -1.43 KCAL/MOL
REMARK 927      BINDING AFFINITY PREDICTED BY RF-SCORE:    0.00 PKD
ROOT
HETATM    1  C   UNL     1     -12.987  10.159  71.485  1.00  0.00    -0.547 C  
HETATM    2  C   UNL     1     -12.071   9.282  72.323  1.00  0.00    -0.262 C  
ENDROOT
BRANCH   2   3
HETATM    3  C   UNL     1     -10.924   8.708  71.498  1.00  0.00    -0.290 C  
BRANCH   3   4
HETATM    4  S   UNL     1      -9.747   7.849  72.546  1.00  0.00    -0.255 S  
HETATM    5  O   UNL     1     -10.455   7.168  73.607  1.00  0.00    -0.358 OA 
HETATM    6  O   UNL     1      -8.639   8.734  72.813  1.00  0.00    -0.412 OA 
BRANCH   4   7
HETATM    7  N   UNL     1      -9.121   6.712  71.461  1.00  0.00    -0.143 N  
HETATM    8  H   UNL     1      -8.462   5.996  71.768  1.00  0.00     0.000 HD 
BRANCH   7   9
HETATM    9  C   UNL     1      -9.548   6.791  70.099  1.00  0.00    -0.161 A  
HETATM   10  C   UNL     1      -8.769   7.463  69.149  1.00  0.00    -0.136 A  
HETATM   11  C   UNL     1      -9.041   7.326  67.785  1.00  0.00    -0.124 A  
HETATM   12  F   UNL     1      -7.711   8.173  69.573  1.00  0.00    -0.091 F  
HETATM   13  C   UNL     1     -10.726   6.156  69.711  1.00  0.00    -0.376 A  
HETATM   14  C   UNL     1     -10.225   6.691  67.408  1.00  0.00    -0.190 A  
HETATM   15  C   UNL     1     -11.079   6.133  68.363  1.00  0.00    -0.343 A  
HETATM   16  F   UNL     1     -10.566   6.556  66.119  1.00  0.00    -0.101 F  
BRANCH  11  17
HETATM   17  C   UNL     1      -8.098   7.785  66.738  1.00  0.00    -0.115 C  
HETATM   18  O   UNL     1      -6.939   7.377  66.770  1.00  0.00    -0.073 OA 
BRANCH  17  19
HETATM   19  C   UNL     1      -8.551   8.687  65.671  1.00  0.00    -0.191 A  
HETATM   20  C   UNL     1      -8.364   8.407  64.324  1.00  0.00    -0.083 A  
HETATM   21  N   UNL     1      -9.042   9.337  63.583  1.00  0.00    -0.413 NA 
HETATM   22  C   UNL     1      -9.634  10.244  64.417  1.00  0.00    -0.316 A  
HETATM   23  H   UNL     1      -9.097   9.352  62.565  1.00  0.00     0.000 HD 
HETATM   24  N   UNL     1     -10.437  11.242  64.009  1.00  0.00    -0.351 NA 
HETATM   25  C   UNL     1     -10.894  12.008  65.036  1.00  0.00    -0.304 A  
HETATM   26  C   UNL     1     -10.560  11.888  66.389  1.00  0.00    -0.284 A  
HETATM   27  C   UNL     1      -9.680  10.841  66.716  1.00  0.00    -0.221 A  
HETATM   28  C   UNL     1      -9.253   9.941  65.718  1.00  0.00    -0.228 A  
BRANCH  26  29
HETATM   29  C   UNL     1     -11.123  12.761  67.444  1.00  0.00    -0.312 A  
HETATM   30  C   UNL     1     -11.423  12.272  68.730  1.00  0.00    -0.360 A  
HETATM   31  C   UNL     1     -11.890  13.122  69.741  1.00  0.00    -0.386 A  
HETATM   32  C   UNL     1     -12.059  14.479  69.486  1.00  0.00    -0.306 A  
HETATM   33  C   UNL     1     -11.785  14.989  68.223  1.00  0.00    -0.338 A  
HETATM   34 CL   UNL     1     -12.597  15.531  70.734  1.00  0.00    -0.481 Cl 
HETATM   35  C   UNL     1     -11.332  14.135  67.213  1.00  0.00    -0.349 A  
ENDBRANCH  26  29
ENDBRANCH  17  19
ENDBRANCH  11  17
ENDBRANCH   7   9
ENDBRANCH   4   7
ENDBRANCH   3   4
ENDBRANCH   2   3
TORSDOF 7
ENDMDL
MODEL       72
REMARK 921   NORMALIZED FREE ENERGY PREDICTED BY IDOCK:   -6.08 KCAL/MOL
REMARK 922        TOTAL FREE ENERGY PREDICTED BY IDOCK:  -10.32 KCAL/MOL
REMARK 923 INTER-LIGAND FREE ENERGY PREDICTED BY IDOCK:   -8.88 KCAL/MOL
REMARK 924 INTRA-LIGAND FREE ENERGY PREDICTED BY IDOCK:   -1.44 KCAL/MOL
REMARK 927      BINDING AFFINITY PREDICTED BY RF-SCORE:    0.00 PKD
ROOT
HETATM    1  C   UNL     1     -10.921  14.918  65.095  1.00  0.00    -0.410 C  
HETATM    2  C   UNL     1     -11.781  14.393  66.233  1.00  0.00    -0.394 C  
ENDROOT
BRANCH   2   3
HETATM    3  C   UNL     1     -10.936  13.930  67.415  1.00  0.00    -0.288 C  
BRANCH   3   4
HETATM    4  S   UNL     1     -10.797  12.141  67.443  1.00  0.00    -0.258 S  
HETATM    5  O   UNL     1      -9.698  11.730  66.599  1.00  0.00    -0.194 OA 
HETATM    6  O   UNL     1     -12.119  11.577  67.305  1.00  0.00    -0.548 OA 
BRANCH   4   7
HETATM    7  N   UNL     1     -10.398  11.875  69.065  1.00  0.00    -0.404 N  
HETATM    8  H   UNL     1      -9.455  12.052  69.412  1.00  0.00     0.000 HD 
BRANCH   7   9
HETATM    9  C   UNL     1     -11.429  11.394  69.931  1.00  0.00    -0.273 A  
HETATM   10  C   UNL     1     -11.657  10.019  70.067  1.00  0.00    -0.214 A  
HETATM   11  C   UNL     1     -12.475   9.535  71.091  1.00  0.00    -0.399 A  
HETATM   12  F   UNL     1     -11.011   9.177  69.244  1.00  0.00    -0.235 F  
HETATM   13  C   UNL     1     -12.178  12.302  70.675  1.00  0.00    -0.378 A  
HETATM   14  C   UNL     1     -13.224  10.453  71.829  1.00  0.00    -0.424 A  
HETATM   15  C   UNL     1     -13.101  11.827  71.607  1.00  0.00    -0.443 A  
HETATM   16  F   UNL     1     -14.054  10.055  72.803  1.00  0.00    -0.195 F  
BRANCH  11  17
HETATM   17  C   UNL     1     -12.533   8.097  71.448  1.00  0.00    -0.292 C  
HETATM   18  O   UNL     1     -13.609   7.511  71.354  1.00  0.00    -0.362 OA 
BRANCH  17  19
HETATM   19  C   UNL     1     -11.321   7.387  71.877  1.00  0.00    -0.294 A  
HETATM   20  C   UNL     1     -10.813   7.485  73.166  1.00  0.00    -0.395 A  
HETATM   21  N   UNL     1      -9.793   6.583  73.306  1.00  0.00    -0.165 NA 
HETATM   22  C   UNL     1      -9.596   5.926  72.124  1.00  0.00    -0.148 A  
HETATM   23  H   UNL     1      -9.261   6.425  74.162  1.00  0.00     0.000 HD 
HETATM   24  N   UNL     1      -8.719   4.923  71.948  1.00  0.00    -0.127 NA 
HETATM   25  C   UNL     1      -8.712   4.443  70.675  1.00  0.00    -0.090 A  
HETATM   26  C   UNL     1      -9.449   4.926  69.589  1.00  0.00    -0.216 A  
HETATM   27  C   UNL     1     -10.309   6.006  69.860  1.00  0.00    -0.288 A  
HETATM   28  C   UNL     1     -10.448   6.483  71.179  1.00  0.00    -0.257 A  
BRANCH  26  29
HETATM   29  C   UNL     1      -9.390   4.326  68.237  1.00  0.00    -0.207 A  
HETATM   30  C   UNL     1      -8.840   3.049  68.015  1.00  0.00    -0.162 A  
HETATM   31  C   UNL     1      -8.851   2.461  66.743  1.00  0.00    -0.144 A  
HETATM   32  C   UNL     1      -9.421   3.139  65.670  1.00  0.00    -0.063 A  
HETATM   33  C   UNL     1      -9.960   4.406  65.854  1.00  0.00    -0.255 A  
HETATM   34 CL   UNL     1      -9.470   2.407  64.115  1.00  0.00    -0.131 Cl 
HETATM   35  C   UNL     1      -9.934   4.995  67.122  1.00  0.00    -0.226 A  
ENDBRANCH  26  29
ENDBRANCH  17  19
ENDBRANCH  11  17
ENDBRANCH   7   9
ENDBRANCH   4   7
ENDBRANCH   3   4
ENDBRANCH   2   3
TORSDOF 7
ENDMDL
MODEL       73
REMARK 921   NORMALIZED FREE ENERGY PREDICTED BY IDOCK:   -6.05 KCAL/MOL
REMARK 922        TOTAL FREE ENERGY PREDICTED BY IDOCK:  -10.27 KCAL/MOL
REMARK 923 INTER-LIGAND FREE ENERGY PREDICTED BY IDOCK:   -8.49 KCAL/MOL
REMARK 924 INTRA-LIGAND FREE ENERGY PREDICTED BY IDOCK:   -1.78 KCAL/MOL
REMARK 927      BINDING AFFINITY PREDICTED BY RF-SCORE:    0.00 PKD
ROOT
HETATM    1  C   UNL     1     -10.295  16.669  66.079  1.00  0.00    -0.352 C  
HETATM    2  C   UNL     1      -9.806  15.264  65.769  1.00  0.00    -0.395 C  
ENDROOT
BRANCH   2   3
HETATM    3  C   UNL     1     -10.758  14.524  64.835  1.00  0.00    -0.429 C  
BRANCH   3   4
HETATM    4  S   UNL     1     -11.597  13.192  65.699  1.00  0.00    -0.356 S  
HETATM    5  O   UNL     1     -11.430  11.961  64.961  1.00  0.00    -0.309 OA 
HETATM    6  O   UNL     1     -12.896  13.662  66.115  1.00  0.00    -0.313 OA 
BRANCH   4   7
HETATM    7  N   UNL     1     -10.699  13.123  67.130  1.00  0.00    -0.254 N  
HETATM    8  H   UNL     1      -9.680  13.167  67.117  1.00  0.00     0.000 HD 
BRANCH   7   9
HETATM    9  C   UNL     1     -11.420  13.000  68.359  1.00  0.00    -0.310 A  
HETATM   10  C   UNL     1     -11.856  11.745  68.804  1.00  0.00    -0.320 A  
HETATM   11  C   UNL     1     -12.326  11.581  70.109  1.00  0.00    -0.323 A  
HETATM   12  F   UNL     1     -11.737  10.695  67.975  1.00  0.00    -0.370 F  
HETATM   13  C   UNL     1     -11.648  14.133  69.136  1.00  0.00    -0.349 A  
HETATM   14  C   UNL     1     -12.554  12.723  70.878  1.00  0.00    -0.255 A  
HETATM   15  C   UNL     1     -12.246  13.995  70.389  1.00  0.00    -0.433 A  
HETATM   16  F   UNL     1     -13.037  12.640  72.125  1.00  0.00    -0.500 F  
BRANCH  11  17
HETATM   17  C   UNL     1     -12.540  10.244  70.713  1.00  0.00    -0.352 C  
HETATM   18  O   UNL     1     -13.680   9.787  70.741  1.00  0.00    -0.182 OA 
BRANCH  17  19
HETATM   19  C   UNL     1     -11.405   9.475  71.240  1.00  0.00    -0.446 A  
HETATM   20  C   UNL     1     -11.460   8.790  72.446  1.00  0.00    -0.230 A  
HETATM   21  N   UNL     1     -10.324   8.037  72.576  1.00  0.00    -0.280 NA 
HETATM   22  C   UNL     1      -9.509   8.247  71.500  1.00  0.00    -0.186 A  
HETATM   23  H   UNL     1     -10.118   7.414  73.357  1.00  0.00     0.000 HD 
HETATM   24  N   UNL     1      -8.349   7.601  71.286  1.00  0.00    -0.106 NA 
HETATM   25  C   UNL     1      -7.725   7.998  70.144  1.00  0.00    -0.087 A  
HETATM   26  C   UNL     1      -8.134   9.009  69.269  1.00  0.00    -0.105 A  
HETATM   27  C   UNL     1      -9.337   9.659  69.597  1.00  0.00    -0.226 A  
HETATM   28  C   UNL     1     -10.093   9.225  70.706  1.00  0.00    -0.358 A  
BRANCH  26  29
HETATM   29  C   UNL     1      -7.396   9.361  68.035  1.00  0.00    -0.079 A  
HETATM   30  C   UNL     1      -6.984   8.382  67.111  1.00  0.00    -0.075 A  
HETATM   31  C   UNL     1      -6.347   8.732  65.913  1.00  0.00    -0.056 A  
HETATM   32  C   UNL     1      -6.117  10.071  65.614  1.00  0.00    -0.086 A  
HETATM   33  C   UNL     1      -6.499  11.060  66.511  1.00  0.00    -0.132 A  
HETATM   34 CL   UNL     1      -5.369  10.507  64.129  1.00  0.00    -0.153 Cl 
HETATM   35  C   UNL     1      -7.122  10.705  67.712  1.00  0.00    -0.083 A  
ENDBRANCH  26  29
ENDBRANCH  17  19
ENDBRANCH  11  17
ENDBRANCH   7   9
ENDBRANCH   4   7
ENDBRANCH   3   4
ENDBRANCH   2   3
TORSDOF 7
ENDMDL
MODEL       74
REMARK 921   NORMALIZED FREE ENERGY PREDICTED BY IDOCK:   -6.02 KCAL/MOL
REMARK 922        TOTAL FREE ENERGY PREDICTED BY IDOCK:  -10.24 KCAL/MOL
REMARK 923 INTER-LIGAND FREE ENERGY PREDICTED BY IDOCK:   -8.96 KCAL/MOL
REMARK 924 INTRA-LIGAND FREE ENERGY PREDICTED BY IDOCK:   -1.27 KCAL/MOL
REMARK 927      BINDING AFFINITY PREDICTED BY RF-SCORE:    0.00 PKD
ROOT
HETATM    1  C   UNL     1     -10.602  18.000  66.097  1.00  0.00    -0.269 C  
HETATM    2  C   UNL     1     -10.396  16.584  65.583  1.00  0.00    -0.342 C  
ENDROOT
BRANCH   2   3
HETATM    3  C   UNL     1     -11.472  16.184  64.578  1.00  0.00    -0.230 C  
BRANCH   3   4
HETATM    4  S   UNL     1     -11.791  14.419  64.650  1.00  0.00    -0.455 S  
HETATM    5  O   UNL     1     -12.422  13.994  63.421  1.00  0.00    -0.826 OA 
HETATM    6  O   UNL     1     -12.349  14.106  65.943  1.00  0.00    -0.448 OA 
BRANCH   4   7
HETATM    7  N   UNL     1     -10.214  13.811  64.718  1.00  0.00    -0.588 N  
HETATM    8  H   UNL     1      -9.413  14.390  64.466  1.00  0.00     0.000 HD 
BRANCH   7   9
HETATM    9  C   UNL     1     -10.045  12.456  65.142  1.00  0.00    -0.256 A  
HETATM   10  C   UNL     1      -9.937  12.146  66.504  1.00  0.00    -0.213 A  
HETATM   11  C   UNL     1     -10.031  10.822  66.938  1.00  0.00    -0.240 A  
HETATM   12  F   UNL     1      -9.821  13.154  67.383  1.00  0.00    -0.212 F  
HETATM   13  C   UNL     1     -10.033  11.437  64.193  1.00  0.00    -0.335 A  
HETATM   14  C   UNL     1     -10.016   9.808  65.978  1.00  0.00    -0.272 A  
HETATM   15  C   UNL     1      -9.988  10.108  64.614  1.00  0.00    -0.304 A  
HETATM   16  F   UNL     1     -10.068   8.515  66.327  1.00  0.00    -0.329 F  
BRANCH  11  17
HETATM   17  C   UNL     1     -10.197  10.465  68.368  1.00  0.00    -0.165 C  
HETATM   18  O   UNL     1     -11.334  10.391  68.828  1.00  0.00    -0.250 OA 
BRANCH  17  19
HETATM   19  C   UNL     1      -9.024  10.181  69.204  1.00  0.00    -0.181 A  
HETATM   20  C   UNL     1      -7.930  11.034  69.276  1.00  0.00    -0.027 A  
HETATM   21  N   UNL     1      -7.089  10.589  70.260  1.00  0.00    -0.419 NA 
HETATM   22  C   UNL     1      -7.589   9.441  70.806  1.00  0.00    -0.114 A  
HETATM   23  H   UNL     1      -6.222  11.045  70.543  1.00  0.00     0.000 HD 
HETATM   24  N   UNL     1      -7.041   8.791  71.847  1.00  0.00    -0.245 NA 
HETATM   25  C   UNL     1      -7.729   7.670  72.195  1.00  0.00    -0.089 A  
HETATM   26  C   UNL     1      -8.850   7.138  71.551  1.00  0.00    -0.127 A  
HETATM   27  C   UNL     1      -9.328   7.863  70.444  1.00  0.00    -0.159 A  
HETATM   28  C   UNL     1      -8.730   9.091  70.095  1.00  0.00    -0.184 A  
BRANCH  26  29
HETATM   29  C   UNL     1      -9.547   5.916  72.014  1.00  0.00    -0.167 A  
HETATM   30  C   UNL     1      -9.327   4.663  71.411  1.00  0.00    -0.206 A  
HETATM   31  C   UNL     1      -9.938   3.501  71.901  1.00  0.00    -0.212 A  
HETATM   32  C   UNL     1     -10.777   3.572  73.009  1.00  0.00    -0.137 A  
HETATM   33  C   UNL     1     -11.025   4.796  73.617  1.00  0.00    -0.391 A  
HETATM   34 CL   UNL     1     -11.500   2.144  73.636  1.00  0.00    -0.321 Cl 
HETATM   35  C   UNL     1     -10.423   5.955  73.116  1.00  0.00    -0.250 A  
ENDBRANCH  26  29
ENDBRANCH  17  19
ENDBRANCH  11  17
ENDBRANCH   7   9
ENDBRANCH   4   7
ENDBRANCH   3   4
ENDBRANCH   2   3
TORSDOF 7
ENDMDL
MODEL       75
REMARK 921   NORMALIZED FREE ENERGY PREDICTED BY IDOCK:   -6.01 KCAL/MOL
REMARK 922        TOTAL FREE ENERGY PREDICTED BY IDOCK:  -10.22 KCAL/MOL
REMARK 923 INTER-LIGAND FREE ENERGY PREDICTED BY IDOCK:   -8.57 KCAL/MOL
REMARK 924 INTRA-LIGAND FREE ENERGY PREDICTED BY IDOCK:   -1.65 KCAL/MOL
REMARK 927      BINDING AFFINITY PREDICTED BY RF-SCORE:    0.00 PKD
ROOT
HETATM    1  C   UNL     1     -10.560   5.274  71.228  1.00  0.00    -0.242 C  
HETATM    2  C   UNL     1     -11.230   6.366  70.409  1.00  0.00    -0.435 C  
ENDROOT
BRANCH   2   3
HETATM    3  C   UNL     1     -11.678   7.534  71.282  1.00  0.00    -0.287 C  
BRANCH   3   4
HETATM    4  S   UNL     1     -10.439   8.833  71.297  1.00  0.00    -0.284 S  
HETATM    5  O   UNL     1      -9.559   8.645  72.429  1.00  0.00    -0.288 OA 
HETATM    6  O   UNL     1     -11.093  10.094  71.041  1.00  0.00    -0.323 OA 
BRANCH   4   7
HETATM    7  N   UNL     1      -9.604   8.497  69.866  1.00  0.00    -0.170 N  
HETATM    8  H   UNL     1      -9.544   7.547  69.500  1.00  0.00     0.000 HD 
BRANCH   7   9
HETATM    9  C   UNL     1      -8.984   9.593  69.187  1.00  0.00    -0.154 A  
HETATM   10  C   UNL     1      -9.656  10.259  68.154  1.00  0.00    -0.140 A  
HETATM   11  C   UNL     1      -9.176  11.476  67.666  1.00  0.00    -0.171 A  
HETATM   12  F   UNL     1     -10.810   9.741  67.701  1.00  0.00    -0.294 F  
HETATM   13  C   UNL     1      -7.724  10.025  69.591  1.00  0.00    -0.158 A  
HETATM   14  C   UNL     1      -7.910  11.898  68.075  1.00  0.00    -0.140 A  
HETATM   15  C   UNL     1      -7.172  11.166  69.009  1.00  0.00    -0.118 A  
HETATM   16  F   UNL     1      -7.373  13.039  67.620  1.00  0.00    -0.096 F  
BRANCH  11  17
HETATM   17  C   UNL     1      -9.981  12.349  66.779  1.00  0.00    -0.225 C  
HETATM   18  O   UNL     1      -9.991  12.112  65.573  1.00  0.00    -0.246 OA 
BRANCH  17  19
HETATM   19  C   UNL     1     -10.769  13.455  67.337  1.00  0.00    -0.269 A  
HETATM   20  C   UNL     1     -11.983  13.260  67.981  1.00  0.00    -0.313 A  
HETATM   21  N   UNL     1     -12.382  14.445  68.537  1.00  0.00    -0.594 NA 
HETATM   22  C   UNL     1     -11.475  15.421  68.236  1.00  0.00    -0.353 A  
HETATM   23  H   UNL     1     -13.227  14.579  69.092  1.00  0.00     0.000 HD 
HETATM   24  N   UNL     1     -11.534  16.683  68.695  1.00  0.00    -0.169 NA 
HETATM   25  C   UNL     1     -10.512  17.460  68.243  1.00  0.00    -0.385 A  
HETATM   26  C   UNL     1      -9.510  17.090  67.341  1.00  0.00    -0.242 A  
HETATM   27  C   UNL     1      -9.553  15.762  66.881  1.00  0.00    -0.243 A  
HETATM   28  C   UNL     1     -10.519  14.870  67.392  1.00  0.00    -0.255 A  
BRANCH  26  29
HETATM   29  C   UNL     1      -8.423  18.003  66.918  1.00  0.00    -0.262 A  
HETATM   30  C   UNL     1      -7.292  17.537  66.221  1.00  0.00    -0.355 A  
HETATM   31  C   UNL     1      -6.303  18.419  65.765  1.00  0.00    -0.295 A  
HETATM   32  C   UNL     1      -6.433  19.786  65.990  1.00  0.00    -0.205 A  
HETATM   33  C   UNL     1      -7.531  20.275  66.686  1.00  0.00    -0.319 A  
HETATM   34 CL   UNL     1      -5.241  20.874  65.400  1.00  0.00    -0.226 Cl 
HETATM   35  C   UNL     1      -8.508  19.389  67.153  1.00  0.00    -0.317 A  
ENDBRANCH  26  29
ENDBRANCH  17  19
ENDBRANCH  11  17
ENDBRANCH   7   9
ENDBRANCH   4   7
ENDBRANCH   3   4
ENDBRANCH   2   3
TORSDOF 7
ENDMDL
MODEL       76
REMARK 921   NORMALIZED FREE ENERGY PREDICTED BY IDOCK:   -6.01 KCAL/MOL
REMARK 922        TOTAL FREE ENERGY PREDICTED BY IDOCK:  -10.22 KCAL/MOL
REMARK 923 INTER-LIGAND FREE ENERGY PREDICTED BY IDOCK:   -8.96 KCAL/MOL
REMARK 924 INTRA-LIGAND FREE ENERGY PREDICTED BY IDOCK:   -1.25 KCAL/MOL
REMARK 927      BINDING AFFINITY PREDICTED BY RF-SCORE:    0.00 PKD
ROOT
HETATM    1  C   UNL     1      -9.880   3.155  70.935  1.00  0.00    -0.065 C  
HETATM    2  C   UNL     1      -9.130   4.234  70.170  1.00  0.00    -0.174 C  
ENDROOT
BRANCH   2   3
HETATM    3  C   UNL     1      -8.335   5.142  71.102  1.00  0.00    -0.121 C  
BRANCH   3   4
HETATM    4  S   UNL     1      -8.550   6.867  70.654  1.00  0.00    -0.142 S  
HETATM    5  O   UNL     1      -9.460   6.963  69.535  1.00  0.00    -0.147 OA 
HETATM    6  O   UNL     1      -7.254   7.502  70.640  1.00  0.00    -0.065 OA 
BRANCH   4   7
HETATM    7  N   UNL     1      -9.295   7.470  72.047  1.00  0.00    -0.132 N  
HETATM    8  H   UNL     1      -8.826   7.440  72.952  1.00  0.00     0.000 HD 
BRANCH   7   9
HETATM    9  C   UNL     1     -10.607   8.023  71.909  1.00  0.00    -0.245 A  
HETATM   10  C   UNL     1     -10.779   9.335  71.451  1.00  0.00    -0.362 A  
HETATM   11  C   UNL     1     -12.043   9.792  71.070  1.00  0.00    -0.434 A  
HETATM   12  F   UNL     1      -9.693  10.113  71.311  1.00  0.00     0.222 F  
HETATM   13  C   UNL     1     -11.718   7.232  72.192  1.00  0.00    -0.323 A  
HETATM   14  C   UNL     1     -13.150   8.993  71.362  1.00  0.00    -0.284 A  
HETATM   15  C   UNL     1     -12.995   7.733  71.945  1.00  0.00    -0.309 A  
HETATM   16  F   UNL     1     -14.395   9.385  71.056  1.00  0.00    -0.292 F  
BRANCH  11  17
HETATM   17  C   UNL     1     -12.239  11.062  70.330  1.00  0.00    -0.373 C  
HETATM   18  O   UNL     1     -12.131  11.051  69.106  1.00  0.00    -0.366 OA 
BRANCH  17  19
HETATM   19  C   UNL     1     -12.581  12.296  71.047  1.00  0.00    -0.352 A  
HETATM   20  C   UNL     1     -13.396  12.308  72.172  1.00  0.00    -0.368 A  
HETATM   21  N   UNL     1     -13.385  13.567  72.710  1.00  0.00    -0.555 NA 
HETATM   22  C   UNL     1     -12.614  14.389  71.937  1.00  0.00    -0.337 A  
HETATM   23  H   UNL     1     -13.877  13.849  73.557  1.00  0.00     0.000 HD 
HETATM   24  N   UNL     1     -12.336  15.671  72.232  1.00  0.00    -0.385 NA 
HETATM   25  C   UNL     1     -11.551  16.271  71.297  1.00  0.00    -0.346 A  
HETATM   26  C   UNL     1     -11.096  15.715  70.097  1.00  0.00    -0.347 A  
HETATM   27  C   UNL     1     -11.472  14.382  69.854  1.00  0.00    -0.314 A  
HETATM   28  C   UNL     1     -12.193  13.664  70.830  1.00  0.00    -0.424 A  
BRANCH  26  29
HETATM   29  C   UNL     1     -10.227  16.443  69.145  1.00  0.00    -0.280 A  
HETATM   30  C   UNL     1     -10.752  17.339  68.195  1.00  0.00    -0.363 A  
HETATM   31  C   UNL     1      -9.915  18.075  67.346  1.00  0.00    -0.328 A  
HETATM   32  C   UNL     1      -8.534  17.931  67.436  1.00  0.00    -0.235 A  
HETATM   33  C   UNL     1      -7.985  17.044  68.353  1.00  0.00    -0.239 A  
HETATM   34 CL   UNL     1      -7.503  18.858  66.420  1.00  0.00    -0.260 Cl 
HETATM   35  C   UNL     1      -8.825  16.302  69.190  1.00  0.00    -0.217 A  
ENDBRANCH  26  29
ENDBRANCH  17  19
ENDBRANCH  11  17
ENDBRANCH   7   9
ENDBRANCH   4   7
ENDBRANCH   3   4
ENDBRANCH   2   3
TORSDOF 7
ENDMDL
MODEL       77
REMARK 921   NORMALIZED FREE ENERGY PREDICTED BY IDOCK:   -5.99 KCAL/MOL
REMARK 922        TOTAL FREE ENERGY PREDICTED BY IDOCK:  -10.19 KCAL/MOL
REMARK 923 INTER-LIGAND FREE ENERGY PREDICTED BY IDOCK:  -10.32 KCAL/MOL
REMARK 924 INTRA-LIGAND FREE ENERGY PREDICTED BY IDOCK:    0.13 KCAL/MOL
REMARK 927      BINDING AFFINITY PREDICTED BY RF-SCORE:    0.00 PKD
ROOT
HETATM    1  C   UNL     1      -9.325   3.501  70.064  1.00  0.00    -0.246 C  
HETATM    2  C   UNL     1      -9.504   4.110  68.683  1.00  0.00    -0.221 C  
ENDROOT
BRANCH   2   3
HETATM    3  C   UNL     1      -9.733   5.617  68.753  1.00  0.00    -0.137 C  
BRANCH   3   4
HETATM    4  S   UNL     1      -9.853   6.323  67.108  1.00  0.00    -0.154 S  
HETATM    5  O   UNL     1     -11.246   6.482  66.753  1.00  0.00    -0.334 OA 
HETATM    6  O   UNL     1      -8.919   5.640  66.246  1.00  0.00    -0.131 OA 
BRANCH   4   7
HETATM    7  N   UNL     1      -9.155   7.843  67.359  1.00  0.00    -0.132 N  
HETATM    8  H   UNL     1      -8.550   8.020  68.161  1.00  0.00     0.000 HD 
BRANCH   7   9
HETATM    9  C   UNL     1      -9.443   8.870  66.408  1.00  0.00    -0.220 A  
HETATM   10  C   UNL     1     -10.451   9.810  66.661  1.00  0.00    -0.163 A  
HETATM   11  C   UNL     1     -10.566  10.956  65.871  1.00  0.00    -0.244 A  
HETATM   12  F   UNL     1     -11.250   9.622  67.724  1.00  0.00    -0.313 F  
HETATM   13  C   UNL     1      -8.684   8.960  65.244  1.00  0.00    -0.220 A  
HETATM   14  C   UNL     1      -9.802  11.034  64.705  1.00  0.00    -0.285 A  
HETATM   15  C   UNL     1      -8.887  10.031  64.375  1.00  0.00    -0.239 A  
HETATM   16  F   UNL     1      -9.888  12.089  63.883  1.00  0.00    -0.290 F  
BRANCH  11  17
HETATM   17  C   UNL     1     -11.425  12.101  66.254  1.00  0.00    -0.374 C  
HETATM   18  O   UNL     1     -11.967  12.087  67.357  1.00  0.00    -0.583 OA 
BRANCH  17  19
HETATM   19  C   UNL     1     -11.600  13.239  65.341  1.00  0.00    -0.346 A  
HETATM   20  C   UNL     1     -12.408  13.178  64.214  1.00  0.00    -0.351 A  
HETATM   21  N   UNL     1     -12.504  14.431  63.673  1.00  0.00    -1.086 NA 
HETATM   22  C   UNL     1     -11.742  15.303  64.398  1.00  0.00    -0.285 A  
HETATM   23  H   UNL     1     -13.059  14.677  62.854  1.00  0.00     0.000 HD 
HETATM   24  N   UNL     1     -11.678  16.627  64.174  1.00  0.00    -1.007 NA 
HETATM   25  C   UNL     1     -10.842  17.271  65.033  1.00  0.00     0.167 A  
HETATM   26  C   UNL     1     -10.043  16.690  66.022  1.00  0.00    -0.359 A  
HETATM   27  C   UNL     1     -10.143  15.293  66.155  1.00  0.00    -0.315 A  
HETATM   28  C   UNL     1     -11.071  14.576  65.373  1.00  0.00    -0.345 A  
BRANCH  26  29
HETATM   29  C   UNL     1      -9.172  17.476  66.926  1.00  0.00    -0.273 A  
HETATM   30  C   UNL     1      -9.583  18.710  67.464  1.00  0.00    -0.317 A  
HETATM   31  C   UNL     1      -8.780  19.412  68.373  1.00  0.00    -0.397 A  
HETATM   32  C   UNL     1      -7.553  18.887  68.766  1.00  0.00    -0.333 A  
HETATM   33  C   UNL     1      -7.113  17.678  68.242  1.00  0.00    -0.223 A  
HETATM   34 CL   UNL     1      -6.581  19.727  69.908  1.00  0.00    -0.363 Cl 
HETATM   35  C   UNL     1      -7.912  16.988  67.324  1.00  0.00    -0.197 A  
ENDBRANCH  26  29
ENDBRANCH  17  19
ENDBRANCH  11  17
ENDBRANCH   7   9
ENDBRANCH   4   7
ENDBRANCH   3   4
ENDBRANCH   2   3
TORSDOF 7
ENDMDL
MODEL       78
REMARK 921   NORMALIZED FREE ENERGY PREDICTED BY IDOCK:   -5.98 KCAL/MOL
REMARK 922        TOTAL FREE ENERGY PREDICTED BY IDOCK:  -10.18 KCAL/MOL
REMARK 923 INTER-LIGAND FREE ENERGY PREDICTED BY IDOCK:   -9.70 KCAL/MOL
REMARK 924 INTRA-LIGAND FREE ENERGY PREDICTED BY IDOCK:   -0.48 KCAL/MOL
REMARK 927      BINDING AFFINITY PREDICTED BY RF-SCORE:    0.00 PKD
ROOT
HETATM    1  C   UNL     1      -7.686   8.239  73.906  1.00  0.00    -0.228 C  
HETATM    2  C   UNL     1      -8.993   7.501  73.666  1.00  0.00    -0.287 C  
ENDROOT
BRANCH   2   3
HETATM    3  C   UNL     1      -9.828   8.165  72.577  1.00  0.00    -0.293 C  
BRANCH   3   4
HETATM    4  S   UNL     1     -10.466   6.945  71.425  1.00  0.00    -0.210 S  
HETATM    5  O   UNL     1     -11.462   6.133  72.087  1.00  0.00    -0.285 OA 
HETATM    6  O   UNL     1      -9.354   6.360  70.714  1.00  0.00    -0.157 OA 
BRANCH   4   7
HETATM    7  N   UNL     1     -11.214   7.943  70.282  1.00  0.00    -0.380 N  
HETATM    8  H   UNL     1     -11.264   7.674  69.299  1.00  0.00     0.000 HD 
BRANCH   7   9
HETATM    9  C   UNL     1     -11.772   9.176  70.744  1.00  0.00    -0.256 A  
HETATM   10  C   UNL     1     -11.276  10.399  70.276  1.00  0.00    -0.320 A  
HETATM   11  C   UNL     1     -11.974  11.585  70.515  1.00  0.00    -0.439 A  
HETATM   12  F   UNL     1     -10.162  10.394  69.526  1.00  0.00    -0.215 F  
HETATM   13  C   UNL     1     -12.846   9.153  71.630  1.00  0.00    -0.431 A  
HETATM   14  C   UNL     1     -13.047  11.551  71.408  1.00  0.00    -0.258 A  
HETATM   15  C   UNL     1     -13.466  10.350  71.986  1.00  0.00    -0.360 A  
HETATM   16  F   UNL     1     -13.739  12.658  71.711  1.00  0.00    -0.418 F  
BRANCH  11  17
HETATM   17  C   UNL     1     -11.647  12.853  69.822  1.00  0.00    -0.218 C  
HETATM   18  O   UNL     1     -11.452  13.860  70.498  1.00  0.00    -0.130 OA 
BRANCH  17  19
HETATM   19  C   UNL     1     -11.532  12.893  68.358  1.00  0.00    -0.347 A  
HETATM   20  C   UNL     1     -12.100  11.929  67.536  1.00  0.00     0.190 A  
HETATM   21  N   UNL     1     -11.973  12.331  66.234  1.00  0.00    -0.626 NA 
HETATM   22  C   UNL     1     -11.297  13.517  66.184  1.00  0.00    -0.308 A  
HETATM   23  H   UNL     1     -12.327  11.823  65.424  1.00  0.00     0.000 HD 
HETATM   24  N   UNL     1     -11.072  14.219  65.060  1.00  0.00    -0.353 NA 
HETATM   25  C   UNL     1     -10.371  15.364  65.281  1.00  0.00    -0.390 A  
HETATM   26  C   UNL     1      -9.842  15.805  66.498  1.00  0.00    -0.286 A  
HETATM   27  C   UNL     1     -10.091  14.984  67.612  1.00  0.00    -0.231 A  
HETATM   28  C   UNL     1     -10.903  13.839  67.477  1.00  0.00    -0.274 A  
BRANCH  26  29
HETATM   29  C   UNL     1      -9.104  17.080  66.647  1.00  0.00    -0.278 A  
HETATM   30  C   UNL     1      -7.713  17.161  66.445  1.00  0.00    -0.345 A  
HETATM   31  C   UNL     1      -7.036  18.386  66.520  1.00  0.00    -0.251 A  
HETATM   32  C   UNL     1      -7.741  19.554  66.792  1.00  0.00    -0.258 A  
HETATM   33  C   UNL     1      -9.112  19.505  67.010  1.00  0.00    -0.378 A  
HETATM   34 CL   UNL     1      -6.920  21.063  66.850  1.00  0.00    -0.366 Cl 
HETATM   35  C   UNL     1      -9.782  18.279  66.948  1.00  0.00    -0.317 A  
ENDBRANCH  26  29
ENDBRANCH  17  19
ENDBRANCH  11  17
ENDBRANCH   7   9
ENDBRANCH   4   7
ENDBRANCH   3   4
ENDBRANCH   2   3
TORSDOF 7
ENDMDL
MODEL       79
REMARK 921   NORMALIZED FREE ENERGY PREDICTED BY IDOCK:   -5.95 KCAL/MOL
REMARK 922        TOTAL FREE ENERGY PREDICTED BY IDOCK:  -10.14 KCAL/MOL
REMARK 923 INTER-LIGAND FREE ENERGY PREDICTED BY IDOCK:   -8.44 KCAL/MOL
REMARK 924 INTRA-LIGAND FREE ENERGY PREDICTED BY IDOCK:   -1.70 KCAL/MOL
REMARK 927      BINDING AFFINITY PREDICTED BY RF-SCORE:    0.00 PKD
ROOT
HETATM    1  C   UNL     1     -11.310   6.314  69.103  1.00  0.00    -0.358 C  
HETATM    2  C   UNL     1     -11.748   6.619  70.527  1.00  0.00    -0.453 C  
ENDROOT
BRANCH   2   3
HETATM    3  C   UNL     1     -10.623   6.377  71.529  1.00  0.00    -0.231 C  
BRANCH   3   4
HETATM    4  S   UNL     1     -10.361   7.824  72.558  1.00  0.00    -0.296 S  
HETATM    5  O   UNL     1     -10.388   7.436  73.950  1.00  0.00    -0.317 OA 
HETATM    6  O   UNL     1     -11.176   8.902  72.050  1.00  0.00    -0.353 OA 
BRANCH   4   7
HETATM    7  N   UNL     1      -8.784   8.250  72.118  1.00  0.00    -0.178 N  
HETATM    8  H   UNL     1      -8.139   8.657  72.795  1.00  0.00     0.000 HD 
BRANCH   7   9
HETATM    9  C   UNL     1      -8.390   8.019  70.763  1.00  0.00    -0.115 A  
HETATM   10  C   UNL     1      -8.472   9.047  69.815  1.00  0.00    -0.132 A  
HETATM   11  C   UNL     1      -7.854   8.912  68.569  1.00  0.00    -0.103 A  
HETATM   12  F   UNL     1      -9.086  10.190  70.161  1.00  0.00    -0.223 F  
HETATM   13  C   UNL     1      -7.879   6.775  70.400  1.00  0.00    -0.109 A  
HETATM   14  C   UNL     1      -7.349   7.660  68.215  1.00  0.00    -0.099 A  
HETATM   15  C   UNL     1      -7.385   6.588  69.110  1.00  0.00    -0.093 A  
HETATM   16  F   UNL     1      -6.775   7.451  67.022  1.00  0.00    -0.059 F  
BRANCH  11  17
HETATM   17  C   UNL     1      -7.676  10.056  67.644  1.00  0.00    -0.091 C  
HETATM   18  O   UNL     1      -6.552  10.536  67.511  1.00  0.00    -0.064 OA 
BRANCH  17  19
HETATM   19  C   UNL     1      -8.817  10.583  66.883  1.00  0.00    -0.143 A  
HETATM   20  C   UNL     1      -9.162  10.108  65.625  1.00  0.00    -0.187 A  
HETATM   21  N   UNL     1     -10.356  10.666  65.257  1.00  0.00    -0.279 NA 
HETATM   22  C   UNL     1     -10.779  11.526  66.230  1.00  0.00    -0.272 A  
HETATM   23  H   UNL     1     -10.854  10.469  64.389  1.00  0.00     0.000 HD 
HETATM   24  N   UNL     1     -11.955  12.179  66.210  1.00  0.00    -0.613 NA 
HETATM   25  C   UNL     1     -12.134  12.981  67.295  1.00  0.00    -0.245 A  
HETATM   26  C   UNL     1     -11.221  13.215  68.328  1.00  0.00    -0.307 A  
HETATM   27  C   UNL     1     -10.001  12.521  68.242  1.00  0.00    -0.229 A  
HETATM   28  C   UNL     1      -9.791  11.591  67.203  1.00  0.00    -0.210 A  
BRANCH  26  29
HETATM   29  C   UNL     1     -11.512  14.094  69.483  1.00  0.00    -0.334 A  
HETATM   30  C   UNL     1     -12.283  13.654  70.576  1.00  0.00    -0.438 A  
HETATM   31  C   UNL     1     -12.494  14.470  71.695  1.00  0.00    -0.422 A  
HETATM   32  C   UNL     1     -11.931  15.741  71.744  1.00  0.00    -0.467 A  
HETATM   33  C   UNL     1     -11.177  16.210  70.676  1.00  0.00    -0.371 A  
HETATM   34 CL   UNL     1     -12.157  16.732  73.131  1.00  0.00    -0.376 Cl 
HETATM   35  C   UNL     1     -10.980  15.397  69.555  1.00  0.00    -0.276 A  
ENDBRANCH  26  29
ENDBRANCH  17  19
ENDBRANCH  11  17
ENDBRANCH   7   9
ENDBRANCH   4   7
ENDBRANCH   3   4
ENDBRANCH   2   3
TORSDOF 7
ENDMDL
MODEL       80
REMARK 921   NORMALIZED FREE ENERGY PREDICTED BY IDOCK:   -5.95 KCAL/MOL
REMARK 922        TOTAL FREE ENERGY PREDICTED BY IDOCK:  -10.14 KCAL/MOL
REMARK 923 INTER-LIGAND FREE ENERGY PREDICTED BY IDOCK:   -8.79 KCAL/MOL
REMARK 924 INTRA-LIGAND FREE ENERGY PREDICTED BY IDOCK:   -1.35 KCAL/MOL
REMARK 927      BINDING AFFINITY PREDICTED BY RF-SCORE:    0.00 PKD
ROOT
HETATM    1  C   UNL     1     -11.095   6.383  68.835  1.00  0.00    -0.420 C  
HETATM    2  C   UNL     1     -11.660   6.497  70.242  1.00  0.00    -0.473 C  
ENDROOT
BRANCH   2   3
HETATM    3  C   UNL     1     -10.646   6.064  71.296  1.00  0.00    -0.246 C  
BRANCH   3   4
HETATM    4  S   UNL     1     -10.733   7.124  72.742  1.00  0.00    -0.317 S  
HETATM    5  O   UNL     1     -10.695   6.312  73.938  1.00  0.00    -0.249 OA 
HETATM    6  O   UNL     1     -11.761   8.113  72.525  1.00  0.00    -0.378 OA 
BRANCH   4   7
HETATM    7  N   UNL     1      -9.286   7.987  72.595  1.00  0.00    -0.220 N  
HETATM    8  H   UNL     1      -8.826   8.390  73.412  1.00  0.00     0.000 HD 
BRANCH   7   9
HETATM    9  C   UNL     1      -8.731   8.131  71.286  1.00  0.00    -0.145 A  
HETATM   10  C   UNL     1      -9.059   9.239  70.494  1.00  0.00    -0.259 A  
HETATM   11  C   UNL     1      -8.333   9.521  69.334  1.00  0.00    -0.140 A  
HETATM   12  F   UNL     1     -10.031  10.064  70.917  1.00  0.00    -0.268 F  
HETATM   13  C   UNL     1      -7.823   7.185  70.817  1.00  0.00    -0.095 A  
HETATM   14  C   UNL     1      -7.429   8.563  68.872  1.00  0.00    -0.091 A  
HETATM   15  C   UNL     1      -7.193   7.388  69.590  1.00  0.00    -0.078 A  
HETATM   16  F   UNL     1      -6.724   8.753  67.747  1.00  0.00    -0.061 F  
BRANCH  11  17
HETATM   17  C   UNL     1      -8.455  10.811  68.615  1.00  0.00    -0.143 C  
HETATM   18  O   UNL     1      -7.555  11.639  68.736  1.00  0.00    -0.128 OA 
BRANCH  17  19
HETATM   19  C   UNL     1      -9.616  11.079  67.757  1.00  0.00    -0.180 A  
HETATM   20  C   UNL     1     -10.423  10.068  67.252  1.00  0.00    -0.254 A  
HETATM   21  N   UNL     1     -11.509  10.635  66.642  1.00  0.00     0.005 NA 
HETATM   22  C   UNL     1     -11.409  11.996  66.701  1.00  0.00    -0.340 A  
HETATM   23  H   UNL     1     -12.276  10.121  66.210  1.00  0.00     0.000 HD 
HETATM   24  N   UNL     1     -12.350  12.849  66.260  1.00  0.00    -0.476 NA 
HETATM   25  C   UNL     1     -12.004  14.154  66.429  1.00  0.00    -0.436 A  
HETATM   26  C   UNL     1     -10.795  14.646  66.930  1.00  0.00    -0.305 A  
HETATM   27  C   UNL     1      -9.853  13.679  67.327  1.00  0.00    -0.241 A  
HETATM   28  C   UNL     1     -10.187  12.310  67.282  1.00  0.00    -0.222 A  
BRANCH  26  29
HETATM   29  C   UNL     1     -10.513  16.090  67.095  1.00  0.00    -0.308 A  
HETATM   30  C   UNL     1     -10.367  16.949  65.989  1.00  0.00    -0.335 A  
HETATM   31  C   UNL     1     -10.170  18.326  66.157  1.00  0.00    -0.393 A  
HETATM   32  C   UNL     1     -10.122  18.870  67.437  1.00  0.00    -0.361 A  
HETATM   33  C   UNL     1     -10.248  18.047  68.548  1.00  0.00    -0.392 A  
HETATM   34 CL   UNL     1      -9.916  20.564  67.646  1.00  0.00    -0.521 Cl 
HETATM   35  C   UNL     1     -10.431  16.671  68.376  1.00  0.00    -0.323 A  
ENDBRANCH  26  29
ENDBRANCH  17  19
ENDBRANCH  11  17
ENDBRANCH   7   9
ENDBRANCH   4   7
ENDBRANCH   3   4
ENDBRANCH   2   3
TORSDOF 7
ENDMDL
MODEL       81
REMARK 921   NORMALIZED FREE ENERGY PREDICTED BY IDOCK:   -5.92 KCAL/MOL
REMARK 922        TOTAL FREE ENERGY PREDICTED BY IDOCK:  -10.09 KCAL/MOL
REMARK 923 INTER-LIGAND FREE ENERGY PREDICTED BY IDOCK:   -8.37 KCAL/MOL
REMARK 924 INTRA-LIGAND FREE ENERGY PREDICTED BY IDOCK:   -1.72 KCAL/MOL
REMARK 927      BINDING AFFINITY PREDICTED BY RF-SCORE:    0.00 PKD
ROOT
HETATM    1  C   UNL     1     -10.753  16.179  65.081  1.00  0.00    -0.391 C  
HETATM    2  C   UNL     1     -11.023  14.777  65.602  1.00  0.00    -0.345 C  
ENDROOT
BRANCH   2   3
HETATM    3  C   UNL     1     -12.110  14.072  64.797  1.00  0.00    -0.437 C  
BRANCH   3   4
HETATM    4  S   UNL     1     -11.741  12.325  64.615  1.00  0.00    -0.346 S  
HETATM    5  O   UNL     1     -12.306  11.840  63.376  1.00  0.00    -0.532 OA 
HETATM    6  O   UNL     1     -11.992  11.669  65.876  1.00  0.00    -0.312 OA 
BRANCH   4   7
HETATM    7  N   UNL     1     -10.055  12.364  64.493  1.00  0.00    -0.446 N  
HETATM    8  H   UNL     1      -9.534  13.227  64.649  1.00  0.00     0.000 HD 
BRANCH   7   9
HETATM    9  C   UNL     1      -9.386  11.144  64.164  1.00  0.00    -0.165 A  
HETATM   10  C   UNL     1      -8.581  10.498  65.111  1.00  0.00    -0.180 A  
HETATM   11  C   UNL     1      -8.138   9.192  64.891  1.00  0.00    -0.133 A  
HETATM   12  F   UNL     1      -8.313  11.132  66.264  1.00  0.00    -0.156 F  
HETATM   13  C   UNL     1      -9.575  10.575  62.907  1.00  0.00    -0.355 A  
HETATM   14  C   UNL     1      -8.331   8.633  63.626  1.00  0.00    -0.112 A  
HETATM   15  C   UNL     1      -9.019   9.328  62.629  1.00  0.00    -0.161 A  
HETATM   16  F   UNL     1      -7.900   7.397  63.336  1.00  0.00    -0.109 F  
BRANCH  11  17
HETATM   17  C   UNL     1      -7.523   8.371  65.962  1.00  0.00    -0.084 C  
HETATM   18  O   UNL     1      -6.337   8.549  66.231  1.00  0.00    -0.055 OA 
BRANCH  17  19
HETATM   19  C   UNL     1      -8.325   7.388  66.700  1.00  0.00    -0.124 A  
HETATM   20  C   UNL     1      -8.136   6.018  66.570  1.00  0.00    -0.109 A  
HETATM   21  N   UNL     1      -8.905   5.378  67.505  1.00  0.00    -0.106 NA 
HETATM   22  C   UNL     1      -9.624   6.297  68.215  1.00  0.00    -0.119 A  
HETATM   23  H   UNL     1      -8.936   4.369  67.649  1.00  0.00     0.000 HD 
HETATM   24  N   UNL     1     -10.420   6.001  69.257  1.00  0.00    -0.233 NA 
HETATM   25  C   UNL     1     -11.028   7.096  69.787  1.00  0.00    -0.231 A  
HETATM   26  C   UNL     1     -10.949   8.412  69.320  1.00  0.00     0.028 A  
HETATM   27  C   UNL     1     -10.126   8.619  68.198  1.00  0.00    -0.236 A  
HETATM   28  C   UNL     1      -9.380   7.549  67.664  1.00  0.00    -0.151 A  
BRANCH  26  29
HETATM   29  C   UNL     1     -11.636   9.548  69.976  1.00  0.00    -0.091 A  
HETATM   30  C   UNL     1     -12.349   9.390  71.179  1.00  0.00    -0.386 A  
HETATM   31  C   UNL     1     -12.937  10.485  71.827  1.00  0.00    -0.582 A  
HETATM   32  C   UNL     1     -12.814  11.760  71.286  1.00  0.00    -0.308 A  
HETATM   33  C   UNL     1     -12.128  11.947  70.093  1.00  0.00    -0.382 A  
HETATM   34 CL   UNL     1     -13.502  13.111  72.097  1.00  0.00    -0.630 Cl 
HETATM   35  C   UNL     1     -11.555  10.850  69.442  1.00  0.00    -0.387 A  
ENDBRANCH  26  29
ENDBRANCH  17  19
ENDBRANCH  11  17
ENDBRANCH   7   9
ENDBRANCH   4   7
ENDBRANCH   3   4
ENDBRANCH   2   3
TORSDOF 7
ENDMDL
MODEL       82
REMARK 921   NORMALIZED FREE ENERGY PREDICTED BY IDOCK:   -5.91 KCAL/MOL
REMARK 922        TOTAL FREE ENERGY PREDICTED BY IDOCK:  -10.08 KCAL/MOL
REMARK 923 INTER-LIGAND FREE ENERGY PREDICTED BY IDOCK:   -7.89 KCAL/MOL
REMARK 924 INTRA-LIGAND FREE ENERGY PREDICTED BY IDOCK:   -2.19 KCAL/MOL
REMARK 927      BINDING AFFINITY PREDICTED BY RF-SCORE:    0.00 PKD
ROOT
HETATM    1  C   UNL     1      -8.256   9.555  70.083  1.00  0.00    -0.192 C  
HETATM    2  C   UNL     1      -9.533   8.742  70.226  1.00  0.00    -0.194 C  
ENDROOT
BRANCH   2   3
HETATM    3  C   UNL     1     -10.337   9.161  71.452  1.00  0.00    -0.338 C  
BRANCH   3   4
HETATM    4  S   UNL     1     -11.937   8.349  71.477  1.00  0.00    -0.313 S  
HETATM    5  O   UNL     1     -12.454   8.345  72.827  1.00  0.00    -0.297 OA 
HETATM    6  O   UNL     1     -11.851   7.142  70.690  1.00  0.00    -0.321 OA 
BRANCH   4   7
HETATM    7  N   UNL     1     -12.849   9.406  70.523  1.00  0.00    -0.430 N  
HETATM    8  H   UNL     1     -13.515   9.055  69.835  1.00  0.00     0.000 HD 
BRANCH   7   9
HETATM    9  C   UNL     1     -12.652  10.809  70.716  1.00  0.00    -0.383 A  
HETATM   10  C   UNL     1     -11.949  11.564  69.768  1.00  0.00    -0.346 A  
HETATM   11  C   UNL     1     -11.973  12.959  69.814  1.00  0.00    -0.365 A  
HETATM   12  F   UNL     1     -11.320  10.917  68.772  1.00  0.00    -0.247 F  
HETATM   13  C   UNL     1     -13.203  11.432  71.832  1.00  0.00    -0.485 A  
HETATM   14  C   UNL     1     -12.526  13.573  70.939  1.00  0.00    -0.369 A  
HETATM   15  C   UNL     1     -13.112  12.818  71.958  1.00  0.00    -0.474 A  
HETATM   16  F   UNL     1     -12.551  14.908  71.065  1.00  0.00    -0.310 F  
BRANCH  11  17
HETATM   17  C   UNL     1     -11.483  13.799  68.695  1.00  0.00    -0.301 C  
HETATM   18  O   UNL     1     -12.283  14.160  67.835  1.00  0.00    -0.319 OA 
BRANCH  17  19
HETATM   19  C   UNL     1     -10.075  14.212  68.636  1.00  0.00    -0.229 A  
HETATM   20  C   UNL     1      -9.614  15.390  69.210  1.00  0.00    -0.268 A  
HETATM   21  N   UNL     1      -8.247  15.408  69.142  1.00  0.00    -0.226 NA 
HETATM   22  C   UNL     1      -7.806  14.286  68.498  1.00  0.00    -0.143 A  
HETATM   23  H   UNL     1      -7.650  16.145  69.514  1.00  0.00     0.000 HD 
HETATM   24  N   UNL     1      -6.512  13.963  68.333  1.00  0.00    -0.093 NA 
HETATM   25  C   UNL     1      -6.339  12.797  67.652  1.00  0.00    -0.153 A  
HETATM   26  C   UNL     1      -7.337  11.996  67.089  1.00  0.00    -0.134 A  
HETATM   27  C   UNL     1      -8.660  12.436  67.277  1.00  0.00    -0.185 A  
HETATM   28  C   UNL     1      -8.918  13.576  68.064  1.00  0.00    -0.189 A  
BRANCH  26  29
HETATM   29  C   UNL     1      -7.054  10.729  66.378  1.00  0.00    -0.134 A  
HETATM   30  C   UNL     1      -5.974  10.604  65.483  1.00  0.00    -0.117 A  
HETATM   31  C   UNL     1      -5.674   9.381  64.869  1.00  0.00    -0.063 A  
HETATM   32  C   UNL     1      -6.446   8.257  65.146  1.00  0.00    -0.052 A  
HETATM   33  C   UNL     1      -7.526   8.351  66.013  1.00  0.00    -0.084 A  
HETATM   34 CL   UNL     1      -6.059   6.746  64.422  1.00  0.00    -0.035 Cl 
HETATM   35  C   UNL     1      -7.831   9.577  66.613  1.00  0.00    -0.101 A  
ENDBRANCH  26  29
ENDBRANCH  17  19
ENDBRANCH  11  17
ENDBRANCH   7   9
ENDBRANCH   4   7
ENDBRANCH   3   4
ENDBRANCH   2   3
TORSDOF 7
ENDMDL
MODEL       83
REMARK 921   NORMALIZED FREE ENERGY PREDICTED BY IDOCK:   -5.91 KCAL/MOL
REMARK 922        TOTAL FREE ENERGY PREDICTED BY IDOCK:  -10.08 KCAL/MOL
REMARK 923 INTER-LIGAND FREE ENERGY PREDICTED BY IDOCK:   -9.53 KCAL/MOL
REMARK 924 INTRA-LIGAND FREE ENERGY PREDICTED BY IDOCK:   -0.55 KCAL/MOL
REMARK 927      BINDING AFFINITY PREDICTED BY RF-SCORE:    0.00 PKD
ROOT
HETATM    1  C   UNL     1      -6.768  19.300  68.819  1.00  0.00    -0.338 C  
HETATM    2  C   UNL     1      -8.269  19.502  68.952  1.00  0.00    -0.309 C  
ENDROOT
BRANCH   2   3
HETATM    3  C   UNL     1      -8.929  19.756  67.600  1.00  0.00    -0.329 C  
BRANCH   3   4
HETATM    4  S   UNL     1      -9.077  18.233  66.662  1.00  0.00    -0.286 S  
HETATM    5  O   UNL     1      -8.009  18.159  65.691  1.00  0.00    -0.502 OA 
HETATM    6  O   UNL     1     -10.460  18.056  66.291  1.00  0.00    -0.375 OA 
BRANCH   4   7
HETATM    7  N   UNL     1      -8.821  17.083  67.876  1.00  0.00    -0.220 N  
HETATM    8  H   UNL     1      -7.883  16.880  68.222  1.00  0.00     0.000 HD 
BRANCH   7   9
HETATM    9  C   UNL     1      -9.966  16.406  68.400  1.00  0.00    -0.238 A  
HETATM   10  C   UNL     1     -10.480  15.276  67.752  1.00  0.00    -0.253 A  
HETATM   11  C   UNL     1     -11.424  14.464  68.385  1.00  0.00    -0.329 A  
HETATM   12  F   UNL     1      -9.987  14.948  66.546  1.00  0.00    -0.237 F  
HETATM   13  C   UNL     1     -10.543  16.851  69.586  1.00  0.00    -0.172 A  
HETATM   14  C   UNL     1     -11.998  14.922  69.573  1.00  0.00    -0.310 A  
HETATM   15  C   UNL     1     -11.584  16.121  70.158  1.00  0.00    -0.254 A  
HETATM   16  F   UNL     1     -12.936  14.211  70.215  1.00  0.00    -0.371 F  
BRANCH  11  17
HETATM   17  C   UNL     1     -11.795  13.125  67.869  1.00  0.00    -0.348 C  
HETATM   18  O   UNL     1     -12.013  12.224  68.675  1.00  0.00    -0.309 OA 
BRANCH  17  19
HETATM   19  C   UNL     1     -11.922  12.893  66.424  1.00  0.00    -0.462 A  
HETATM   20  C   UNL     1     -12.783  13.628  65.621  1.00  0.00    -0.454 A  
HETATM   21  N   UNL     1     -12.550  13.302  64.312  1.00  0.00    -0.653 NA 
HETATM   22  C   UNL     1     -11.583  12.339  64.245  1.00  0.00    -0.371 A  
HETATM   23  H   UNL     1     -13.025  13.715  63.509  1.00  0.00     0.000 HD 
HETATM   24  N   UNL     1     -11.070  11.854  63.101  1.00  0.00    -0.264 NA 
HETATM   25  C   UNL     1     -10.124  10.898  63.308  1.00  0.00    -0.312 A  
HETATM   26  C   UNL     1      -9.720  10.366  64.537  1.00  0.00    -0.393 A  
HETATM   27  C   UNL     1     -10.344  10.905  65.677  1.00  0.00    -0.305 A  
HETATM   28  C   UNL     1     -11.252  11.974  65.544  1.00  0.00    -0.372 A  
BRANCH  26  29
HETATM   29  C   UNL     1      -8.666   9.335  64.667  1.00  0.00    -0.223 A  
HETATM   30  C   UNL     1      -8.607   8.468  65.774  1.00  0.00    -0.190 A  
HETATM   31  C   UNL     1      -7.647   7.450  65.854  1.00  0.00    -0.089 A  
HETATM   32  C   UNL     1      -6.731   7.277  64.821  1.00  0.00    -0.050 A  
HETATM   33  C   UNL     1      -6.754   8.125  63.721  1.00  0.00    -0.075 A  
HETATM   34 CL   UNL     1      -5.575   6.008  64.897  1.00  0.00    -0.017 Cl 
HETATM   35  C   UNL     1      -7.705   9.148  63.652  1.00  0.00    -0.118 A  
ENDBRANCH  26  29
ENDBRANCH  17  19
ENDBRANCH  11  17
ENDBRANCH   7   9
ENDBRANCH   4   7
ENDBRANCH   3   4
ENDBRANCH   2   3
TORSDOF 7
ENDMDL
MODEL       84
REMARK 921   NORMALIZED FREE ENERGY PREDICTED BY IDOCK:   -5.87 KCAL/MOL
REMARK 922        TOTAL FREE ENERGY PREDICTED BY IDOCK:  -10.02 KCAL/MOL
REMARK 923 INTER-LIGAND FREE ENERGY PREDICTED BY IDOCK:   -8.49 KCAL/MOL
REMARK 924 INTRA-LIGAND FREE ENERGY PREDICTED BY IDOCK:   -1.53 KCAL/MOL
REMARK 927      BINDING AFFINITY PREDICTED BY RF-SCORE:    0.00 PKD
ROOT
HETATM    1  C   UNL     1     -14.263  14.067  71.997  1.00  0.00    -0.585 C  
HETATM    2  C   UNL     1     -13.536  12.752  72.225  1.00  0.00    -0.591 C  
ENDROOT
BRANCH   2   3
HETATM    3  C   UNL     1     -12.537  12.455  71.111  1.00  0.00    -0.251 C  
BRANCH   3   4
HETATM    4  S   UNL     1     -12.419  10.690  70.810  1.00  0.00    -0.414 S  
HETATM    5  O   UNL     1     -13.220  10.343  69.657  1.00  0.00     0.118 OA 
HETATM    6  O   UNL     1     -12.557   9.999  72.070  1.00  0.00    -0.372 OA 
BRANCH   4   7
HETATM    7  N   UNL     1     -10.778  10.538  70.428  1.00  0.00    -0.436 N  
HETATM    8  H   UNL     1     -10.232  11.342  70.120  1.00  0.00     0.000 HD 
BRANCH   7   9
HETATM    9  C   UNL     1     -10.186   9.243  70.552  1.00  0.00    -0.251 A  
HETATM   10  C   UNL     1     -10.384   8.274  69.559  1.00  0.00    -0.219 A  
HETATM   11  C   UNL     1      -9.611   7.111  69.541  1.00  0.00    -0.154 A  
HETATM   12  F   UNL     1     -11.274   8.526  68.586  1.00  0.00     0.003 F  
HETATM   13  C   UNL     1      -9.372   8.963  71.646  1.00  0.00    -0.328 A  
HETATM   14  C   UNL     1      -8.800   6.839  70.645  1.00  0.00    -0.151 A  
HETATM   15  C   UNL     1      -8.701   7.742  71.706  1.00  0.00    -0.147 A  
HETATM   16  F   UNL     1      -8.059   5.724  70.709  1.00  0.00    -0.106 F  
BRANCH  11  17
HETATM   17  C   UNL     1      -9.585   6.193  68.377  1.00  0.00    -0.118 C  
HETATM   18  O   UNL     1     -10.281   5.180  68.412  1.00  0.00    -0.159 OA 
BRANCH  17  19
HETATM   19  C   UNL     1      -8.765   6.506  67.200  1.00  0.00    -0.111 A  
HETATM   20  C   UNL     1      -7.772   5.656  66.732  1.00  0.00    -0.100 A  
HETATM   21  N   UNL     1      -7.312   6.134  65.535  1.00  0.00    -0.077 NA 
HETATM   22  C   UNL     1      -7.953   7.301  65.231  1.00  0.00    -0.127 A  
HETATM   23  H   UNL     1      -6.599   5.688  64.958  1.00  0.00     0.000 HD 
HETATM   24  N   UNL     1      -7.785   7.987  64.086  1.00  0.00    -0.123 NA 
HETATM   25  C   UNL     1      -8.537   9.120  64.032  1.00  0.00    -0.166 A  
HETATM   26  C   UNL     1      -9.364   9.629  65.037  1.00  0.00    -0.319 A  
HETATM   27  C   UNL     1      -9.445   8.866  66.215  1.00  0.00    -0.304 A  
HETATM   28  C   UNL     1      -8.779   7.627  66.299  1.00  0.00    -0.170 A  
BRANCH  26  29
HETATM   29  C   UNL     1     -10.162  10.867  64.880  1.00  0.00    -0.381 A  
HETATM   30  C   UNL     1     -10.732  11.528  65.985  1.00  0.00    -0.332 A  
HETATM   31  C   UNL     1     -11.426  12.736  65.833  1.00  0.00    -0.399 A  
HETATM   32  C   UNL     1     -11.555  13.309  64.573  1.00  0.00    -0.369 A  
HETATM   33  C   UNL     1     -11.016  12.675  63.461  1.00  0.00    -0.413 A  
HETATM   34 CL   UNL     1     -12.374  14.809  64.387  1.00  0.00    -0.478 Cl 
HETATM   35  C   UNL     1     -10.336  11.462  63.615  1.00  0.00    -0.463 A  
ENDBRANCH  26  29
ENDBRANCH  17  19
ENDBRANCH  11  17
ENDBRANCH   7   9
ENDBRANCH   4   7
ENDBRANCH   3   4
ENDBRANCH   2   3
TORSDOF 7
ENDMDL
MODEL       85
REMARK 921   NORMALIZED FREE ENERGY PREDICTED BY IDOCK:   -5.84 KCAL/MOL
REMARK 922        TOTAL FREE ENERGY PREDICTED BY IDOCK:   -9.98 KCAL/MOL
REMARK 923 INTER-LIGAND FREE ENERGY PREDICTED BY IDOCK:   -8.25 KCAL/MOL
REMARK 924 INTRA-LIGAND FREE ENERGY PREDICTED BY IDOCK:   -1.73 KCAL/MOL
REMARK 927      BINDING AFFINITY PREDICTED BY RF-SCORE:    0.00 PKD
ROOT
HETATM    1  C   UNL     1      -9.296   4.150  63.597  1.00  0.00    -0.143 C  
HETATM    2  C   UNL     1      -8.782   4.758  64.892  1.00  0.00    -0.148 C  
ENDROOT
BRANCH   2   3
HETATM    3  C   UNL     1      -8.258   3.693  65.850  1.00  0.00    -0.101 C  
BRANCH   3   4
HETATM    4  S   UNL     1      -9.166   3.722  67.399  1.00  0.00    -0.197 S  
HETATM    5  O   UNL     1      -9.506   2.370  67.782  1.00  0.00    -0.194 OA 
HETATM    6  O   UNL     1     -10.157   4.768  67.329  1.00  0.00    -0.185 OA 
BRANCH   4   7
HETATM    7  N   UNL     1      -7.989   4.331  68.449  1.00  0.00    -0.077 N  
HETATM    8  H   UNL     1      -7.280   3.723  68.858  1.00  0.00     0.000 HD 
BRANCH   7   9
HETATM    9  C   UNL     1      -8.023   5.730  68.742  1.00  0.00    -0.101 A  
HETATM   10  C   UNL     1      -8.674   6.199  69.891  1.00  0.00    -0.136 A  
HETATM   11  C   UNL     1      -8.495   7.516  70.319  1.00  0.00    -0.138 A  
HETATM   12  F   UNL     1      -9.407   5.333  70.611  1.00  0.00    -0.162 F  
HETATM   13  C   UNL     1      -7.365   6.624  67.901  1.00  0.00    -0.096 A  
HETATM   14  C   UNL     1      -7.837   8.404  69.466  1.00  0.00    -0.102 A  
HETATM   15  C   UNL     1      -7.299   7.972  68.252  1.00  0.00    -0.095 A  
HETATM   16  F   UNL     1      -7.660   9.691  69.799  1.00  0.00    -0.072 F  
BRANCH  11  17
HETATM   17  C   UNL     1      -8.932   7.983  71.657  1.00  0.00    -0.150 C  
HETATM   18  O   UNL     1      -8.098   8.052  72.557  1.00  0.00    -0.112 OA 
BRANCH  17  19
HETATM   19  C   UNL     1     -10.327   8.379  71.888  1.00  0.00    -0.353 A  
HETATM   20  C   UNL     1     -11.132   7.765  72.837  1.00  0.00    -0.398 A  
HETATM   21  N   UNL     1     -12.306   8.462  72.937  1.00  0.00    -0.598 NA 
HETATM   22  C   UNL     1     -12.302   9.495  72.042  1.00  0.00    -0.329 A  
HETATM   23  H   UNL     1     -13.067   8.244  73.579  1.00  0.00     0.000 HD 
HETATM   24  N   UNL     1     -13.276  10.416  71.939  1.00  0.00    -0.451 NA 
HETATM   25  C   UNL     1     -13.034  11.336  70.966  1.00  0.00    -0.211 A  
HETATM   26  C   UNL     1     -11.955  11.356  70.076  1.00  0.00    -0.442 A  
HETATM   27  C   UNL     1     -11.008  10.328  70.232  1.00  0.00    -0.375 A  
HETATM   28  C   UNL     1     -11.138   9.405  71.290  1.00  0.00    -0.446 A  
BRANCH  26  29
HETATM   29  C   UNL     1     -11.765  12.413  69.056  1.00  0.00    -0.372 A  
HETATM   30  C   UNL     1     -11.608  13.766  69.409  1.00  0.00    -0.365 A  
HETATM   31  C   UNL     1     -11.359  14.748  68.441  1.00  0.00    -0.317 A  
HETATM   32  C   UNL     1     -11.255  14.391  67.100  1.00  0.00    -0.328 A  
HETATM   33  C   UNL     1     -11.419  13.065  66.718  1.00  0.00    -0.392 A  
HETATM   34 CL   UNL     1     -10.914  15.587  65.913  1.00  0.00    -0.300 Cl 
HETATM   35  C   UNL     1     -11.681  12.091  67.687  1.00  0.00    -0.365 A  
ENDBRANCH  26  29
ENDBRANCH  17  19
ENDBRANCH  11  17
ENDBRANCH   7   9
ENDBRANCH   4   7
ENDBRANCH   3   4
ENDBRANCH   2   3
TORSDOF 7
ENDMDL
MODEL       86
REMARK 921   NORMALIZED FREE ENERGY PREDICTED BY IDOCK:   -5.79 KCAL/MOL
REMARK 922        TOTAL FREE ENERGY PREDICTED BY IDOCK:   -9.92 KCAL/MOL
REMARK 923 INTER-LIGAND FREE ENERGY PREDICTED BY IDOCK:   -8.72 KCAL/MOL
REMARK 924 INTRA-LIGAND FREE ENERGY PREDICTED BY IDOCK:   -1.19 KCAL/MOL
REMARK 927      BINDING AFFINITY PREDICTED BY RF-SCORE:    0.00 PKD
ROOT
HETATM    1  C   UNL     1      -8.774  15.378  66.586  1.00  0.00    -0.332 C  
HETATM    2  C   UNL     1      -8.704  13.860  66.611  1.00  0.00    -0.038 C  
ENDROOT
BRANCH   2   3
HETATM    3  C   UNL     1     -10.062  13.235  66.917  1.00  0.00    -0.250 C  
BRANCH   3   4
HETATM    4  S   UNL     1     -10.649  12.264  65.526  1.00  0.00    -0.279 S  
HETATM    5  O   UNL     1     -10.063  12.769  64.305  1.00  0.00    -0.335 OA 
HETATM    6  O   UNL     1     -12.073  12.074  65.668  1.00  0.00    -0.508 OA 
BRANCH   4   7
HETATM    7  N   UNL     1      -9.988  10.750  65.890  1.00  0.00    -0.239 N  
HETATM    8  H   UNL     1      -9.885  10.033  65.173  1.00  0.00     0.000 HD 
BRANCH   7   9
HETATM    9  C   UNL     1      -9.580  10.513  67.240  1.00  0.00    -0.163 A  
HETATM   10  C   UNL     1     -10.503  10.061  68.192  1.00  0.00    -0.211 A  
HETATM   11  C   UNL     1     -10.068   9.584  69.430  1.00  0.00    -0.206 A  
HETATM   12  F   UNL     1     -11.803  10.024  67.856  1.00  0.00    -0.073 F  
HETATM   13  C   UNL     1      -8.245  10.690  67.594  1.00  0.00    -0.107 A  
HETATM   14  C   UNL     1      -8.728   9.770  69.776  1.00  0.00    -0.212 A  
HETATM   15  C   UNL     1      -7.825  10.345  68.878  1.00  0.00    -0.115 A  
HETATM   16  F   UNL     1      -8.250   9.368  70.962  1.00  0.00    -0.195 F  
BRANCH  11  17
HETATM   17  C   UNL     1     -10.961   8.849  70.357  1.00  0.00    -0.244 C  
HETATM   18  O   UNL     1     -10.794   7.640  70.500  1.00  0.00    -0.232 OA 
BRANCH  17  19
HETATM   19  C   UNL     1     -12.005   9.561  71.105  1.00  0.00    -0.429 A  
HETATM   20  C   UNL     1     -12.860   8.921  71.992  1.00  0.00    -0.397 A  
HETATM   21  N   UNL     1     -13.594   9.867  72.656  1.00  0.00    -0.592 NA 
HETATM   22  C   UNL     1     -13.267  11.109  72.193  1.00  0.00    -0.192 A  
HETATM   23  H   UNL     1     -14.280   9.673  73.385  1.00  0.00     0.000 HD 
HETATM   24  N   UNL     1     -13.754  12.260  72.690  1.00  0.00    -0.040 NA 
HETATM   25  C   UNL     1     -13.274  13.360  72.048  1.00  0.00    -0.438 A  
HETATM   26  C   UNL     1     -12.422  13.382  70.939  1.00  0.00    -0.439 A  
HETATM   27  C   UNL     1     -11.998  12.129  70.462  1.00  0.00    -0.308 A  
HETATM   28  C   UNL     1     -12.368  10.952  71.145  1.00  0.00    -0.479 A  
BRANCH  26  29
HETATM   29  C   UNL     1     -11.936  14.634  70.315  1.00  0.00    -0.370 A  
HETATM   30  C   UNL     1     -11.259  15.619  71.058  1.00  0.00    -0.411 A  
HETATM   31  C   UNL     1     -10.742  16.768  70.444  1.00  0.00     0.220 A  
HETATM   32  C   UNL     1     -10.888  16.948  69.073  1.00  0.00    -0.255 A  
HETATM   33  C   UNL     1     -11.563  16.001  68.314  1.00  0.00    -0.232 A  
HETATM   34 CL   UNL     1     -10.224  18.338  68.310  1.00  0.00    -0.390 Cl 
HETATM   35  C   UNL     1     -12.089  14.862  68.933  1.00  0.00    -0.229 A  
ENDBRANCH  26  29
ENDBRANCH  17  19
ENDBRANCH  11  17
ENDBRANCH   7   9
ENDBRANCH   4   7
ENDBRANCH   3   4
ENDBRANCH   2   3
TORSDOF 7
ENDMDL
MODEL       87
REMARK 921   NORMALIZED FREE ENERGY PREDICTED BY IDOCK:   -5.76 KCAL/MOL
REMARK 922        TOTAL FREE ENERGY PREDICTED BY IDOCK:   -9.86 KCAL/MOL
REMARK 923 INTER-LIGAND FREE ENERGY PREDICTED BY IDOCK:   -8.59 KCAL/MOL
REMARK 924 INTRA-LIGAND FREE ENERGY PREDICTED BY IDOCK:   -1.27 KCAL/MOL
REMARK 927      BINDING AFFINITY PREDICTED BY RF-SCORE:    0.00 PKD
ROOT
HETATM    1  C   UNL     1     -14.188   8.369  71.711  1.00  0.00    -0.536 C  
HETATM    2  C   UNL     1     -13.254   7.214  71.386  1.00  0.00    -0.391 C  
ENDROOT
BRANCH   2   3
HETATM    3  C   UNL     1     -11.800   7.668  71.299  1.00  0.00    -0.292 C  
BRANCH   3   4
HETATM    4  S   UNL     1     -10.868   6.620  70.178  1.00  0.00    -0.306 S  
HETATM    5  O   UNL     1     -11.436   6.708  68.852  1.00  0.00    -0.192 OA 
HETATM    6  O   UNL     1     -10.634   5.351  70.825  1.00  0.00    -0.256 OA 
BRANCH   4   7
HETATM    7  N   UNL     1      -9.360   7.385  70.203  1.00  0.00    -0.158 N  
HETATM    8  H   UNL     1      -8.753   7.329  71.020  1.00  0.00     0.000 HD 
BRANCH   7   9
HETATM    9  C   UNL     1      -8.969   8.114  69.036  1.00  0.00    -0.144 A  
HETATM   10  C   UNL     1      -9.388   9.437  68.852  1.00  0.00    -0.154 A  
HETATM   11  C   UNL     1      -8.808  10.233  67.861  1.00  0.00    -0.122 A  
HETATM   12  F   UNL     1     -10.299   9.945  69.698  1.00  0.00    -0.193 F  
HETATM   13  C   UNL     1      -8.127   7.513  68.103  1.00  0.00    -0.124 A  
HETATM   14  C   UNL     1      -7.969   9.619  66.929  1.00  0.00    -0.105 A  
HETATM   15  C   UNL     1      -7.651   8.263  67.028  1.00  0.00    -0.092 A  
HETATM   16  F   UNL     1      -7.406  10.316  65.932  1.00  0.00    -0.105 F  
BRANCH  11  17
HETATM   17  C   UNL     1      -9.013  11.699  67.799  1.00  0.00    -0.170 C  
HETATM   18  O   UNL     1      -8.418  12.411  68.606  1.00  0.00    -0.102 OA 
BRANCH  17  19
HETATM   19  C   UNL     1      -9.887  12.286  66.776  1.00  0.00    -0.218 A  
HETATM   20  C   UNL     1     -10.874  11.558  66.126  1.00  0.00    -0.278 A  
HETATM   21  N   UNL     1     -11.625  12.413  65.367  1.00  0.00    -0.366 NA 
HETATM   22  C   UNL     1     -11.126  13.680  65.475  1.00  0.00    -0.295 A  
HETATM   23  H   UNL     1     -12.435  12.147  64.807  1.00  0.00     0.000 HD 
HETATM   24  N   UNL     1     -11.681  14.768  64.913  1.00  0.00    -0.389 NA 
HETATM   25  C   UNL     1     -10.985  15.910  65.166  1.00  0.00    -0.377 A  
HETATM   26  C   UNL     1      -9.778  16.022  65.864  1.00  0.00    -0.378 A  
HETATM   27  C   UNL     1      -9.250  14.825  66.379  1.00  0.00    -0.301 A  
HETATM   28  C   UNL     1      -9.973  13.622  66.248  1.00  0.00    -0.305 A  
BRANCH  26  29
HETATM   29  C   UNL     1      -9.100  17.315  66.107  1.00  0.00    -0.193 A  
HETATM   30  C   UNL     1      -9.819  18.519  66.234  1.00  0.00    -0.352 A  
HETATM   31  C   UNL     1      -9.173  19.726  66.533  1.00  0.00    -0.466 A  
HETATM   32  C   UNL     1      -7.794  19.749  66.718  1.00  0.00    -0.291 A  
HETATM   33  C   UNL     1      -7.055  18.581  66.585  1.00  0.00    -0.233 A  
HETATM   34 CL   UNL     1      -7.003  21.221  67.120  1.00  0.00    -0.364 Cl 
HETATM   35  C   UNL     1      -7.702  17.381  66.273  1.00  0.00    -0.340 A  
ENDBRANCH  26  29
ENDBRANCH  17  19
ENDBRANCH  11  17
ENDBRANCH   7   9
ENDBRANCH   4   7
ENDBRANCH   3   4
ENDBRANCH   2   3
TORSDOF 7
ENDMDL
MODEL       88
REMARK 921   NORMALIZED FREE ENERGY PREDICTED BY IDOCK:   -5.75 KCAL/MOL
REMARK 922        TOTAL FREE ENERGY PREDICTED BY IDOCK:   -9.86 KCAL/MOL
REMARK 923 INTER-LIGAND FREE ENERGY PREDICTED BY IDOCK:   -8.18 KCAL/MOL
REMARK 924 INTRA-LIGAND FREE ENERGY PREDICTED BY IDOCK:   -1.67 KCAL/MOL
REMARK 927      BINDING AFFINITY PREDICTED BY RF-SCORE:    0.00 PKD
ROOT
HETATM    1  C   UNL     1      -6.031  12.188  66.858  1.00  0.00    -0.009 C  
HETATM    2  C   UNL     1      -6.280  10.690  66.777  1.00  0.00    -0.076 C  
ENDROOT
BRANCH   2   3
HETATM    3  C   UNL     1      -7.767  10.357  66.865  1.00  0.00    -0.111 C  
BRANCH   3   4
HETATM    4  S   UNL     1      -8.233   9.167  65.605  1.00  0.00    -0.126 S  
HETATM    5  O   UNL     1      -7.188   9.087  64.609  1.00  0.00    -0.094 OA 
HETATM    6  O   UNL     1      -9.613   9.395  65.248  1.00  0.00    -0.269 OA 
BRANCH   4   7
HETATM    7  N   UNL     1      -8.266   7.739  66.510  1.00  0.00    -0.120 N  
HETATM    8  H   UNL     1      -8.183   6.827  66.060  1.00  0.00     0.000 HD 
BRANCH   7   9
HETATM    9  C   UNL     1      -8.416   7.855  67.927  1.00  0.00    -0.126 A  
HETATM   10  C   UNL     1      -9.690   7.860  68.508  1.00  0.00    -0.161 A  
HETATM   11  C   UNL     1      -9.839   7.713  69.889  1.00  0.00    -0.184 A  
HETATM   12  F   UNL     1     -10.762   7.928  67.702  1.00  0.00    -0.295 F  
HETATM   13  C   UNL     1      -7.282   7.919  68.733  1.00  0.00    -0.081 A  
HETATM   14  C   UNL     1      -8.696   7.782  70.688  1.00  0.00    -0.139 A  
HETATM   15  C   UNL     1      -7.426   7.913  70.120  1.00  0.00    -0.078 A  
HETATM   16  F   UNL     1      -8.769   7.684  72.023  1.00  0.00    -0.117 F  
BRANCH  11  17
HETATM   17  C   UNL     1     -11.151   7.439  70.522  1.00  0.00    -0.261 C  
HETATM   18  O   UNL     1     -11.572   6.285  70.527  1.00  0.00    -0.363 OA 
BRANCH  17  19
HETATM   19  C   UNL     1     -11.915   8.524  71.151  1.00  0.00    -0.306 A  
HETATM   20  C   UNL     1     -12.569   8.373  72.367  1.00  0.00    -0.316 A  
HETATM   21  N   UNL     1     -13.036   9.595  72.770  1.00  0.00    -0.388 NA 
HETATM   22  C   UNL     1     -12.739  10.534  71.824  1.00  0.00    -0.402 A  
HETATM   23  H   UNL     1     -13.532   9.776  73.643  1.00  0.00     0.000 HD 
HETATM   24  N   UNL     1     -12.994  11.848  71.949  1.00  0.00    -0.384 NA 
HETATM   25  C   UNL     1     -12.604  12.570  70.863  1.00  0.00    -0.241 A  
HETATM   26  C   UNL     1     -12.058  12.074  69.676  1.00  0.00    -0.295 A  
HETATM   27  C   UNL     1     -11.867  10.682  69.619  1.00  0.00    -0.358 A  
HETATM   28  C   UNL     1     -12.146   9.885  70.748  1.00  0.00    -0.396 A  
BRANCH  26  29
HETATM   29  C   UNL     1     -11.646  12.941  68.548  1.00  0.00    -0.358 A  
HETATM   30  C   UNL     1     -11.610  12.469  67.223  1.00  0.00    -0.434 A  
HETATM   31  C   UNL     1     -11.285  13.317  66.155  1.00  0.00    -0.317 A  
HETATM   32  C   UNL     1     -10.999  14.657  66.395  1.00  0.00    -0.325 A  
HETATM   33  C   UNL     1     -11.013  15.150  67.693  1.00  0.00    -0.308 A  
HETATM   34 CL   UNL     1     -10.636  15.709  65.085  1.00  0.00    -0.443 Cl 
HETATM   35  C   UNL     1     -11.323  14.297  68.757  1.00  0.00    -0.303 A  
ENDBRANCH  26  29
ENDBRANCH  17  19
ENDBRANCH  11  17
ENDBRANCH   7   9
ENDBRANCH   4   7
ENDBRANCH   3   4
ENDBRANCH   2   3
TORSDOF 7
ENDMDL
MODEL       89
REMARK 921   NORMALIZED FREE ENERGY PREDICTED BY IDOCK:   -5.74 KCAL/MOL
REMARK 922        TOTAL FREE ENERGY PREDICTED BY IDOCK:   -9.83 KCAL/MOL
REMARK 923 INTER-LIGAND FREE ENERGY PREDICTED BY IDOCK:   -7.63 KCAL/MOL
REMARK 924 INTRA-LIGAND FREE ENERGY PREDICTED BY IDOCK:   -2.21 KCAL/MOL
REMARK 927      BINDING AFFINITY PREDICTED BY RF-SCORE:    0.00 PKD
ROOT
HETATM    1  C   UNL     1     -12.437  10.929  69.784  1.00  0.00    -0.250 C  
HETATM    2  C   UNL     1     -12.714  11.076  71.271  1.00  0.00    -0.537 C  
ENDROOT
BRANCH   2   3
HETATM    3  C   UNL     1     -12.993   9.730  71.932  1.00  0.00    -0.440 C  
BRANCH   3   4
HETATM    4  S   UNL     1     -11.610   8.608  71.709  1.00  0.00    -0.360 S  
HETATM    5  O   UNL     1     -10.383   9.366  71.627  1.00  0.00    -0.309 OA 
HETATM    6  O   UNL     1     -11.971   7.629  70.711  1.00  0.00    -0.264 OA 
BRANCH   4   7
HETATM    7  N   UNL     1     -11.653   7.752  73.167  1.00  0.00    -0.562 N  
HETATM    8  H   UNL     1     -12.389   7.916  73.854  1.00  0.00     0.000 HD 
BRANCH   7   9
HETATM    9  C   UNL     1     -10.622   6.790  73.401  1.00  0.00    -0.325 A  
HETATM   10  C   UNL     1     -10.844   5.432  73.138  1.00  0.00    -0.285 A  
HETATM   11  C   UNL     1      -9.777   4.531  73.116  1.00  0.00    -0.160 A  
HETATM   12  F   UNL     1     -12.089   5.034  72.831  1.00  0.00    -0.338 F  
HETATM   13  C   UNL     1      -9.375   7.217  73.851  1.00  0.00    -0.304 A  
HETATM   14  C   UNL     1      -8.532   4.970  73.572  1.00  0.00    -0.106 A  
HETATM   15  C   UNL     1      -8.335   6.296  73.965  1.00  0.00    -0.113 A  
HETATM   16  F   UNL     1      -7.473   4.149  73.610  1.00  0.00    -0.068 F  
BRANCH  11  17
HETATM   17  C   UNL     1      -9.910   3.155  72.582  1.00  0.00    -0.144 C  
HETATM   18  O   UNL     1     -10.286   2.264  73.340  1.00  0.00    -0.101 OA 
BRANCH  17  19
HETATM   19  C   UNL     1      -9.625   2.874  71.169  1.00  0.00    -0.226 A  
HETATM   20  C   UNL     1      -9.473   1.584  70.678  1.00  0.00    -0.101 A  
HETATM   21  N   UNL     1      -9.392   1.639  69.313  1.00  0.00    -0.116 NA 
HETATM   22  C   UNL     1      -9.446   2.942  68.903  1.00  0.00    -0.104 A  
HETATM   23  H   UNL     1      -9.304   0.833  68.695  1.00  0.00     0.000 HD 
HETATM   24  N   UNL     1      -9.467   3.335  67.618  1.00  0.00    -0.202 NA 
HETATM   25  C   UNL     1      -9.518   4.688  67.478  1.00  0.00    -0.153 A  
HETATM   26  C   UNL     1      -9.482   5.641  68.501  1.00  0.00    -0.149 A  
HETATM   27  C   UNL     1      -9.417   5.136  69.812  1.00  0.00    -0.210 A  
HETATM   28  C   UNL     1      -9.472   3.746  70.036  1.00  0.00    -0.264 A  
BRANCH  26  29
HETATM   29  C   UNL     1      -9.560   7.099  68.254  1.00  0.00    -0.136 A  
HETATM   30  C   UNL     1      -8.703   8.009  68.901  1.00  0.00    -0.131 A  
HETATM   31  C   UNL     1      -8.738   9.378  68.608  1.00  0.00    -0.131 A  
HETATM   32  C   UNL     1      -9.629   9.862  67.654  1.00  0.00    -0.148 A  
HETATM   33  C   UNL     1     -10.498   8.992  67.009  1.00  0.00    -0.316 A  
HETATM   34 CL   UNL     1      -9.650  11.536  67.266  1.00  0.00    -0.179 Cl 
HETATM   35  C   UNL     1     -10.468   7.627  67.314  1.00  0.00    -0.396 A  
ENDBRANCH  26  29
ENDBRANCH  17  19
ENDBRANCH  11  17
ENDBRANCH   7   9
ENDBRANCH   4   7
ENDBRANCH   3   4
ENDBRANCH   2   3
TORSDOF 7
ENDMDL
MODEL       90
REMARK 921   NORMALIZED FREE ENERGY PREDICTED BY IDOCK:   -5.73 KCAL/MOL
REMARK 922        TOTAL FREE ENERGY PREDICTED BY IDOCK:   -9.83 KCAL/MOL
REMARK 923 INTER-LIGAND FREE ENERGY PREDICTED BY IDOCK:   -8.45 KCAL/MOL
REMARK 924 INTRA-LIGAND FREE ENERGY PREDICTED BY IDOCK:   -1.38 KCAL/MOL
REMARK 927      BINDING AFFINITY PREDICTED BY RF-SCORE:    0.00 PKD
ROOT
HETATM    1  C   UNL     1     -10.750   7.551  73.223  1.00  0.00    -0.437 C  
HETATM    2  C   UNL     1     -10.352   6.257  72.532  1.00  0.00    -0.214 C  
ENDROOT
BRANCH   2   3
HETATM    3  C   UNL     1     -11.108   6.058  71.221  1.00  0.00    -0.274 C  
BRANCH   3   4
HETATM    4  S   UNL     1     -10.024   6.306  69.813  1.00  0.00    -0.173 S  
HETATM    5  O   UNL     1      -9.840   5.051  69.120  1.00  0.00    -0.161 OA 
HETATM    6  O   UNL     1      -8.907   7.118  70.231  1.00  0.00    -0.146 OA 
BRANCH   4   7
HETATM    7  N   UNL     1     -10.963   7.345  68.864  1.00  0.00    -0.421 N  
HETATM    8  H   UNL     1     -11.536   6.989  68.100  1.00  0.00     0.000 HD 
BRANCH   7   9
HETATM    9  C   UNL     1     -10.923   8.741  69.173  1.00  0.00     0.043 A  
HETATM   10  C   UNL     1     -10.030   9.590  68.507  1.00  0.00    -0.167 A  
HETATM   11  C   UNL     1     -10.160  10.977  68.611  1.00  0.00    -0.207 A  
HETATM   12  F   UNL     1      -9.102   9.043  67.706  1.00  0.00    -0.132 F  
HETATM   13  C   UNL     1     -11.811   9.262  70.111  1.00  0.00     0.076 A  
HETATM   14  C   UNL     1     -11.051  11.488  69.557  1.00  0.00    -0.191 A  
HETATM   15  C   UNL     1     -11.852  10.639  70.324  1.00  0.00    -0.430 A  
HETATM   16  F   UNL     1     -11.201  12.808  69.734  1.00  0.00    -0.246 F  
BRANCH  11  17
HETATM   17  C   UNL     1      -9.428  11.912  67.724  1.00  0.00    -0.184 C  
HETATM   18  O   UNL     1      -8.216  12.044  67.881  1.00  0.00    -0.135 OA 
BRANCH  17  19
HETATM   19  C   UNL     1     -10.136  12.642  66.664  1.00  0.00    -0.248 A  
HETATM   20  C   UNL     1     -11.127  12.058  65.887  1.00  0.00    -0.324 A  
HETATM   21  N   UNL     1     -11.711  13.028  65.117  1.00  0.00    -0.327 NA 
HETATM   22  C   UNL     1     -11.095  14.226  65.345  1.00  0.00    -0.327 A  
HETATM   23  H   UNL     1     -12.487  12.880  64.472  1.00  0.00     0.000 HD 
HETATM   24  N   UNL     1     -11.479  15.395  64.803  1.00  0.00    -0.379 NA 
HETATM   25  C   UNL     1     -10.696  16.440  65.186  1.00  0.00    -0.291 A  
HETATM   26  C   UNL     1      -9.555  16.384  65.993  1.00  0.00    -0.352 A  
HETATM   27  C   UNL     1      -9.205  15.112  66.479  1.00  0.00    -0.318 A  
HETATM   28  C   UNL     1     -10.033  14.003  66.213  1.00  0.00    -0.317 A  
BRANCH  26  29
HETATM   29  C   UNL     1      -8.772  17.583  66.373  1.00  0.00    -0.273 A  
HETATM   30  C   UNL     1      -9.394  18.795  66.727  1.00  0.00    -0.330 A  
HETATM   31  C   UNL     1      -8.646  19.901  67.152  1.00  0.00    -0.384 A  
HETATM   32  C   UNL     1      -7.261  19.811  67.237  1.00  0.00    -0.230 A  
HETATM   33  C   UNL     1      -6.616  18.634  66.881  1.00  0.00    -0.204 A  
HETATM   34 CL   UNL     1      -6.342  21.155  67.792  1.00  0.00    -0.415 Cl 
HETATM   35  C   UNL     1      -7.365  17.537  66.444  1.00  0.00    -0.334 A  
ENDBRANCH  26  29
ENDBRANCH  17  19
ENDBRANCH  11  17
ENDBRANCH   7   9
ENDBRANCH   4   7
ENDBRANCH   3   4
ENDBRANCH   2   3
TORSDOF 7
ENDMDL
MODEL       91
REMARK 921   NORMALIZED FREE ENERGY PREDICTED BY IDOCK:   -5.73 KCAL/MOL
REMARK 922        TOTAL FREE ENERGY PREDICTED BY IDOCK:   -9.83 KCAL/MOL
REMARK 923 INTER-LIGAND FREE ENERGY PREDICTED BY IDOCK:   -8.48 KCAL/MOL
REMARK 924 INTRA-LIGAND FREE ENERGY PREDICTED BY IDOCK:   -1.35 KCAL/MOL
REMARK 927      BINDING AFFINITY PREDICTED BY RF-SCORE:    0.00 PKD
ROOT
HETATM    1  C   UNL     1     -13.635  14.442  72.073  1.00  0.00    -0.514 C  
HETATM    2  C   UNL     1     -13.088  13.264  71.284  1.00  0.00    -0.299 C  
ENDROOT
BRANCH   2   3
HETATM    3  C   UNL     1     -12.981  12.007  72.142  1.00  0.00    -0.151 C  
BRANCH   3   4
HETATM    4  S   UNL     1     -12.652  10.564  71.126  1.00  0.00    -0.453 S  
HETATM    5  O   UNL     1     -13.603  10.515  70.039  1.00  0.00     0.232 OA 
HETATM    6  O   UNL     1     -12.427   9.434  71.995  1.00  0.00    -0.369 OA 
BRANCH   4   7
HETATM    7  N   UNL     1     -11.118  10.939  70.523  1.00  0.00    -0.402 N  
HETATM    8  H   UNL     1     -10.474  11.531  71.048  1.00  0.00     0.000 HD 
BRANCH   7   9
HETATM    9  C   UNL     1     -10.756  10.396  69.251  1.00  0.00    -0.237 A  
HETATM   10  C   UNL     1     -10.410  11.243  68.190  1.00  0.00    -0.186 A  
HETATM   11  C   UNL     1      -9.812  10.727  67.038  1.00  0.00    -0.221 A  
HETATM   12  F   UNL     1     -10.592  12.565  68.340  1.00  0.00    -0.212 F  
HETATM   13  C   UNL     1     -10.704   9.014  69.084  1.00  0.00    -0.176 A  
HETATM   14  C   UNL     1      -9.769   9.340  66.880  1.00  0.00    -0.190 A  
HETATM   15  C   UNL     1     -10.238   8.486  67.881  1.00  0.00    -0.273 A  
HETATM   16  F   UNL     1      -9.241   8.779  65.783  1.00  0.00    -0.222 F  
BRANCH  11  17
HETATM   17  C   UNL     1      -9.183  11.594  66.013  1.00  0.00    -0.208 C  
HETATM   18  O   UNL     1      -8.029  11.354  65.666  1.00  0.00     0.119 OA 
BRANCH  17  19
HETATM   19  C   UNL     1      -9.938  12.700  65.409  1.00  0.00    -0.230 A  
HETATM   20  C   UNL     1     -10.957  12.496  64.488  1.00  0.00    -0.323 A  
HETATM   21  N   UNL     1     -11.577  13.691  64.245  1.00  0.00    -0.453 NA 
HETATM   22  C   UNL     1     -10.959  14.681  64.957  1.00  0.00    -0.405 A  
HETATM   23  H   UNL     1     -12.378  13.824  63.628  1.00  0.00     0.000 HD 
HETATM   24  N   UNL     1     -11.372  15.960  64.999  1.00  0.00    -0.246 NA 
HETATM   25  C   UNL     1     -10.579  16.747  65.777  1.00  0.00    -0.250 A  
HETATM   26  C   UNL     1      -9.406  16.368  66.437  1.00  0.00    -0.322 A  
HETATM   27  C   UNL     1      -9.030  15.020  66.301  1.00  0.00    -0.233 A  
HETATM   28  C   UNL     1      -9.862  14.123  65.601  1.00  0.00    -0.278 A  
BRANCH  26  29
HETATM   29  C   UNL     1      -8.615  17.294  67.280  1.00  0.00    -0.214 A  
HETATM   30  C   UNL     1      -7.311  16.979  67.705  1.00  0.00    -0.172 A  
HETATM   31  C   UNL     1      -6.545  17.892  68.444  1.00  0.00    -0.205 A  
HETATM   32  C   UNL     1      -7.070  19.140  68.764  1.00  0.00    -0.331 A  
HETATM   33  C   UNL     1      -8.359  19.475  68.370  1.00  0.00    -0.384 A  
HETATM   34 CL   UNL     1      -6.121  20.276  69.638  1.00  0.00    -0.379 Cl 
HETATM   35  C   UNL     1      -9.125  18.556  67.645  1.00  0.00    -0.293 A  
ENDBRANCH  26  29
ENDBRANCH  17  19
ENDBRANCH  11  17
ENDBRANCH   7   9
ENDBRANCH   4   7
ENDBRANCH   3   4
ENDBRANCH   2   3
TORSDOF 7
ENDMDL
MODEL       92
REMARK 921   NORMALIZED FREE ENERGY PREDICTED BY IDOCK:   -5.71 KCAL/MOL
REMARK 922        TOTAL FREE ENERGY PREDICTED BY IDOCK:   -9.79 KCAL/MOL
REMARK 923 INTER-LIGAND FREE ENERGY PREDICTED BY IDOCK:   -8.73 KCAL/MOL
REMARK 924 INTRA-LIGAND FREE ENERGY PREDICTED BY IDOCK:   -1.06 KCAL/MOL
REMARK 927      BINDING AFFINITY PREDICTED BY RF-SCORE:    0.00 PKD
ROOT
HETATM    1  C   UNL     1      -8.500   3.675  67.421  1.00  0.00    -0.103 C  
HETATM    2  C   UNL     1      -7.723   3.829  68.719  1.00  0.00    -0.053 C  
ENDROOT
BRANCH   2   3
HETATM    3  C   UNL     1      -8.549   3.401  69.928  1.00  0.00    -0.063 C  
BRANCH   3   4
HETATM    4  S   UNL     1      -8.970   4.817  70.949  1.00  0.00    -0.125 S  
HETATM    5  O   UNL     1      -8.087   5.917  70.633  1.00  0.00    -0.113 OA 
HETATM    6  O   UNL     1      -9.169   4.361  72.304  1.00  0.00    -0.119 OA 
BRANCH   4   7
HETATM    7  N   UNL     1     -10.529   5.162  70.391  1.00  0.00    -0.252 N  
HETATM    8  H   UNL     1     -11.332   4.609  70.693  1.00  0.00     0.000 HD 
BRANCH   7   9
HETATM    9  C   UNL     1     -10.681   6.255  69.483  1.00  0.00    -0.303 A  
HETATM   10  C   UNL     1     -10.679   7.575  69.954  1.00  0.00    -0.246 A  
HETATM   11  C   UNL     1     -10.566   8.644  69.063  1.00  0.00    -0.179 A  
HETATM   12  F   UNL     1     -10.706   7.782  71.280  1.00  0.00    -0.224 F  
HETATM   13  C   UNL     1     -10.787   6.003  68.117  1.00  0.00    -0.365 A  
HETATM   14  C   UNL     1     -10.677   8.380  67.696  1.00  0.00    -0.121 A  
HETATM   15  C   UNL     1     -10.815   7.073  67.224  1.00  0.00    -0.403 A  
HETATM   16  F   UNL     1     -10.613   9.363  66.787  1.00  0.00    -0.312 F  
BRANCH  11  17
HETATM   17  C   UNL     1     -10.286  10.028  69.514  1.00  0.00    -0.235 C  
HETATM   18  O   UNL     1      -9.150  10.475  69.370  1.00  0.00    -0.181 OA 
BRANCH  17  19
HETATM   19  C   UNL     1     -11.354  10.851  70.096  1.00  0.00    -0.367 A  
HETATM   20  C   UNL     1     -12.263  10.355  71.021  1.00  0.00    -0.393 A  
HETATM   21  N   UNL     1     -13.013  11.395  71.502  1.00  0.00    -0.440 NA 
HETATM   22  C   UNL     1     -12.642  12.553  70.881  1.00  0.00    -0.241 A  
HETATM   23  H   UNL     1     -13.738  11.316  72.215  1.00  0.00     0.000 HD 
HETATM   24  N   UNL     1     -13.133  13.769  71.180  1.00  0.00    -0.288 NA 
HETATM   25  C   UNL     1     -12.603  14.759  70.411  1.00  0.00    -0.346 A  
HETATM   26  C   UNL     1     -11.696  14.611  69.357  1.00  0.00    -0.355 A  
HETATM   27  C   UNL     1     -11.271  13.298  69.089  1.00  0.00    -0.305 A  
HETATM   28  C   UNL     1     -11.695  12.237  69.915  1.00  0.00    -0.346 A  
BRANCH  26  29
HETATM   29  C   UNL     1     -11.158  15.754  68.584  1.00  0.00    -0.327 A  
HETATM   30  C   UNL     1     -10.748  16.946  69.211  1.00  0.00    -0.288 A  
HETATM   31  C   UNL     1     -10.176  17.995  68.478  1.00  0.00    -0.392 A  
HETATM   32  C   UNL     1      -9.997  17.866  67.105  1.00  0.00    -0.327 A  
HETATM   33  C   UNL     1     -10.404  16.707  66.455  1.00  0.00    -0.300 A  
HETATM   34 CL   UNL     1      -9.262  19.135  66.208  1.00  0.00    -0.353 Cl 
HETATM   35  C   UNL     1     -10.987  15.669  67.188  1.00  0.00    -0.270 A  
ENDBRANCH  26  29
ENDBRANCH  17  19
ENDBRANCH  11  17
ENDBRANCH   7   9
ENDBRANCH   4   7
ENDBRANCH   3   4
ENDBRANCH   2   3
TORSDOF 7
ENDMDL
MODEL       93
REMARK 921   NORMALIZED FREE ENERGY PREDICTED BY IDOCK:   -5.70 KCAL/MOL
REMARK 922        TOTAL FREE ENERGY PREDICTED BY IDOCK:   -9.79 KCAL/MOL
REMARK 923 INTER-LIGAND FREE ENERGY PREDICTED BY IDOCK:   -8.07 KCAL/MOL
REMARK 924 INTRA-LIGAND FREE ENERGY PREDICTED BY IDOCK:   -1.72 KCAL/MOL
REMARK 927      BINDING AFFINITY PREDICTED BY RF-SCORE:    0.00 PKD
ROOT
HETATM    1  C   UNL     1     -10.386   4.478  65.689  1.00  0.00    -0.274 C  
HETATM    2  C   UNL     1      -9.577   4.672  66.962  1.00  0.00    -0.198 C  
ENDROOT
BRANCH   2   3
HETATM    3  C   UNL     1      -8.082   4.769  66.674  1.00  0.00    -0.107 C  
BRANCH   3   4
HETATM    4  S   UNL     1      -7.127   3.979  67.972  1.00  0.00    -0.059 S  
HETATM    5  O   UNL     1      -6.007   4.821  68.326  1.00  0.00    -0.024 OA 
HETATM    6  O   UNL     1      -6.957   2.586  67.633  1.00  0.00    -0.046 OA 
BRANCH   4   7
HETATM    7  N   UNL     1      -8.251   3.967  69.235  1.00  0.00    -0.061 N  
HETATM    8  H   UNL     1      -9.143   3.481  69.144  1.00  0.00     0.000 HD 
BRANCH   7   9
HETATM    9  C   UNL     1      -7.906   4.664  70.435  1.00  0.00    -0.054 A  
HETATM   10  C   UNL     1      -8.228   6.019  70.586  1.00  0.00    -0.120 A  
HETATM   11  C   UNL     1      -8.131   6.635  71.836  1.00  0.00    -0.103 A  
HETATM   12  F   UNL     1      -8.705   6.687  69.524  1.00  0.00    -0.130 F  
HETATM   13  C   UNL     1      -7.287   3.975  71.475  1.00  0.00    -0.054 A  
HETATM   14  C   UNL     1      -7.505   5.936  72.871  1.00  0.00    -0.095 A  
HETATM   15  C   UNL     1      -7.059   4.625  72.687  1.00  0.00    -0.076 A  
HETATM   16  F   UNL     1      -7.348   6.480  74.086  1.00  0.00    -0.088 F  
BRANCH  11  17
HETATM   17  C   UNL     1      -8.710   7.972  72.110  1.00  0.00    -0.157 C  
HETATM   18  O   UNL     1      -7.946   8.922  72.269  1.00  0.00    -0.371 OA 
BRANCH  17  19
HETATM   19  C   UNL     1     -10.165   8.156  72.162  1.00  0.00    -0.330 A  
HETATM   20  C   UNL     1     -10.975   7.479  73.065  1.00  0.00    -0.390 A  
HETATM   21  N   UNL     1     -12.243   7.988  72.987  1.00  0.00    -0.645 NA 
HETATM   22  C   UNL     1     -12.290   8.955  72.024  1.00  0.00    -0.390 A  
HETATM   23  H   UNL     1     -13.032   7.690  73.560  1.00  0.00     0.000 HD 
HETATM   24  N   UNL     1     -13.372   9.704  71.750  1.00  0.00    -0.405 NA 
HETATM   25  C   UNL     1     -13.160  10.593  70.741  1.00  0.00    -0.219 A  
HETATM   26  C   UNL     1     -12.000  10.732  69.972  1.00  0.00    -0.427 A  
HETATM   27  C   UNL     1     -10.935   9.876  70.303  1.00  0.00    -0.366 A  
HETATM   28  C   UNL     1     -11.046   9.006  71.407  1.00  0.00    -0.399 A  
BRANCH  26  29
HETATM   29  C   UNL     1     -11.854  11.745  68.902  1.00  0.00    -0.381 A  
HETATM   30  C   UNL     1     -11.933  13.124  69.169  1.00  0.00    -0.329 A  
HETATM   31  C   UNL     1     -11.724  14.075  68.162  1.00  0.00    -0.387 A  
HETATM   32  C   UNL     1     -11.424  13.662  66.868  1.00  0.00    -0.345 A  
HETATM   33  C   UNL     1     -11.352  12.307  66.569  1.00  0.00    -0.403 A  
HETATM   34 CL   UNL     1     -11.131  14.826  65.637  1.00  0.00    -0.332 Cl 
HETATM   35  C   UNL     1     -11.575  11.362  67.575  1.00  0.00    -0.298 A  
ENDBRANCH  26  29
ENDBRANCH  17  19
ENDBRANCH  11  17
ENDBRANCH   7   9
ENDBRANCH   4   7
ENDBRANCH   3   4
ENDBRANCH   2   3
TORSDOF 7
ENDMDL
MODEL       94
REMARK 921   NORMALIZED FREE ENERGY PREDICTED BY IDOCK:   -5.69 KCAL/MOL
REMARK 922        TOTAL FREE ENERGY PREDICTED BY IDOCK:   -9.78 KCAL/MOL
REMARK 923 INTER-LIGAND FREE ENERGY PREDICTED BY IDOCK:   -8.57 KCAL/MOL
REMARK 924 INTRA-LIGAND FREE ENERGY PREDICTED BY IDOCK:   -1.20 KCAL/MOL
REMARK 927      BINDING AFFINITY PREDICTED BY RF-SCORE:    0.00 PKD
ROOT
HETATM    1  C   UNL     1     -10.030   4.471  69.431  1.00  0.00    -0.212 C  
HETATM    2  C   UNL     1     -10.153   5.695  70.325  1.00  0.00    -0.287 C  
ENDROOT
BRANCH   2   3
HETATM    3  C   UNL     1     -11.529   6.342  70.214  1.00  0.00    -0.402 C  
BRANCH   3   4
HETATM    4  S   UNL     1     -12.175   6.757  71.836  1.00  0.00    -0.308 S  
HETATM    5  O   UNL     1     -11.858   5.696  72.766  1.00  0.00    -0.258 OA 
HETATM    6  O   UNL     1     -13.520   7.258  71.680  1.00  0.00    -0.375 OA 
BRANCH   4   7
HETATM    7  N   UNL     1     -11.259   8.129  72.206  1.00  0.00    -0.332 N  
HETATM    8  H   UNL     1     -10.645   8.151  73.020  1.00  0.00     0.000 HD 
BRANCH   7   9
HETATM    9  C   UNL     1     -11.375   9.258  71.335  1.00  0.00    -0.364 A  
HETATM   10  C   UNL     1     -10.427   9.478  70.328  1.00  0.00    -0.268 A  
HETATM   11  C   UNL     1     -10.668  10.415  69.321  1.00  0.00    -0.270 A  
HETATM   12  F   UNL     1      -9.323   8.714  70.309  1.00  0.00    -0.150 F  
HETATM   13  C   UNL     1     -12.465  10.114  71.465  1.00  0.00    -0.526 A  
HETATM   14  C   UNL     1     -11.762  11.271  69.463  1.00  0.00    -0.345 A  
HETATM   15  C   UNL     1     -12.641  11.144  70.542  1.00  0.00    -0.360 A  
HETATM   16  F   UNL     1     -12.033  12.216  68.552  1.00  0.00    -0.339 F  
BRANCH  11  17
HETATM   17  C   UNL     1      -9.839  10.495  68.095  1.00  0.00    -0.153 C  
HETATM   18  O   UNL     1     -10.301  10.059  67.043  1.00  0.00    -0.223 OA 
BRANCH  17  19
HETATM   19  C   UNL     1      -8.505  11.107  68.138  1.00  0.00    -0.138 A  
HETATM   20  C   UNL     1      -7.341  10.360  68.261  1.00  0.00    -0.088 A  
HETATM   21  N   UNL     1      -6.266  11.190  68.095  1.00  0.00    -0.049 NA 
HETATM   22  C   UNL     1      -6.700  12.472  67.908  1.00  0.00    -0.103 A  
HETATM   23  H   UNL     1      -5.289  10.898  68.110  1.00  0.00     0.000 HD 
HETATM   24  N   UNL     1      -5.898  13.517  67.641  1.00  0.00    -0.297 NA 
HETATM   25  C   UNL     1      -6.579  14.687  67.503  1.00  0.00    -0.087 A  
HETATM   26  C   UNL     1      -7.952  14.886  67.674  1.00  0.00    -0.184 A  
HETATM   27  C   UNL     1      -8.706  13.743  67.994  1.00  0.00    -0.181 A  
HETATM   28  C   UNL     1      -8.083  12.479  68.046  1.00  0.00    -0.164 A  
BRANCH  26  29
HETATM   29  C   UNL     1      -8.611  16.199  67.485  1.00  0.00    -0.189 A  
HETATM   30  C   UNL     1      -8.452  17.249  68.409  1.00  0.00    -0.254 A  
HETATM   31  C   UNL     1      -9.023  18.509  68.185  1.00  0.00    -0.326 A  
HETATM   32  C   UNL     1      -9.758  18.743  67.027  1.00  0.00    -0.311 A  
HETATM   33  C   UNL     1      -9.945  17.723  66.103  1.00  0.00    -0.283 A  
HETATM   34 CL   UNL     1     -10.430  20.297  66.732  1.00  0.00    -0.425 Cl 
HETATM   35  C   UNL     1      -9.385  16.463  66.337  1.00  0.00    -0.322 A  
ENDBRANCH  26  29
ENDBRANCH  17  19
ENDBRANCH  11  17
ENDBRANCH   7   9
ENDBRANCH   4   7
ENDBRANCH   3   4
ENDBRANCH   2   3
TORSDOF 7
ENDMDL
MODEL       95
REMARK 921   NORMALIZED FREE ENERGY PREDICTED BY IDOCK:   -5.63 KCAL/MOL
REMARK 922        TOTAL FREE ENERGY PREDICTED BY IDOCK:   -9.69 KCAL/MOL
REMARK 923 INTER-LIGAND FREE ENERGY PREDICTED BY IDOCK:   -8.35 KCAL/MOL
REMARK 924 INTRA-LIGAND FREE ENERGY PREDICTED BY IDOCK:   -1.34 KCAL/MOL
REMARK 927      BINDING AFFINITY PREDICTED BY RF-SCORE:    0.00 PKD
ROOT
HETATM    1  C   UNL     1     -13.352  10.123  71.486  1.00  0.00    -0.434 C  
HETATM    2  C   UNL     1     -13.259   8.890  72.369  1.00  0.00    -0.482 C  
ENDROOT
BRANCH   2   3
HETATM    3  C   UNL     1     -11.825   8.382  72.484  1.00  0.00    -0.358 C  
BRANCH   3   4
HETATM    4  S   UNL     1     -11.603   6.870  71.542  1.00  0.00    -0.309 S  
HETATM    5  O   UNL     1     -12.704   6.713  70.618  1.00  0.00    -0.148 OA 
HETATM    6  O   UNL     1     -11.212   5.818  72.449  1.00  0.00    -0.264 OA 
BRANCH   4   7
HETATM    7  N   UNL     1     -10.190   7.231  70.686  1.00  0.00    -0.195 N  
HETATM    8  H   UNL     1      -9.270   7.078  71.098  1.00  0.00     0.000 HD 
BRANCH   7   9
HETATM    9  C   UNL     1     -10.333   7.757  69.364  1.00  0.00    -0.219 A  
HETATM   10  C   UNL     1     -10.327   9.140  69.146  1.00  0.00    -0.212 A  
HETATM   11  C   UNL     1     -10.206   9.653  67.852  1.00  0.00    -0.242 A  
HETATM   12  F   UNL     1     -10.361   9.957  70.211  1.00  0.00    -0.266 F  
HETATM   13  C   UNL     1     -10.431   6.882  68.285  1.00  0.00    -0.240 A  
HETATM   14  C   UNL     1     -10.310   8.767  66.778  1.00  0.00    -0.258 A  
HETATM   15  C   UNL     1     -10.451   7.393  66.988  1.00  0.00    -0.404 A  
HETATM   16  F   UNL     1     -10.237   9.196  65.510  1.00  0.00    -0.294 F  
BRANCH  11  17
HETATM   17  C   UNL     1      -9.922  11.084  67.589  1.00  0.00    -0.173 C  
HETATM   18  O   UNL     1     -10.857  11.822  67.285  1.00  0.00    -0.228 OA 
BRANCH  17  19
HETATM   19  C   UNL     1      -8.556  11.608  67.716  1.00  0.00    -0.144 A  
HETATM   20  C   UNL     1      -7.438  10.785  67.750  1.00  0.00    -0.094 A  
HETATM   21  N   UNL     1      -6.316  11.566  67.696  1.00  0.00    -0.060 NA 
HETATM   22  C   UNL     1      -6.675  12.884  67.670  1.00  0.00    -0.153 A  
HETATM   23  H   UNL     1      -5.357  11.218  67.679  1.00  0.00     0.000 HD 
HETATM   24  N   UNL     1      -5.811  13.906  67.542  1.00  0.00    -0.353 NA 
HETATM   25  C   UNL     1      -6.423  15.122  67.550  1.00  0.00    -0.109 A  
HETATM   26  C   UNL     1      -7.785  15.376  67.738  1.00  0.00    -0.160 A  
HETATM   27  C   UNL     1      -8.606  14.247  67.907  1.00  0.00    -0.171 A  
HETATM   28  C   UNL     1      -8.056  12.954  67.800  1.00  0.00    -0.166 A  
BRANCH  26  29
HETATM   29  C   UNL     1      -8.366  16.738  67.713  1.00  0.00    -0.193 A  
HETATM   30  C   UNL     1      -7.793  17.803  68.435  1.00  0.00    -0.284 A  
HETATM   31  C   UNL     1      -8.310  19.103  68.349  1.00  0.00    -0.384 A  
HETATM   32  C   UNL     1      -9.406  19.362  67.533  1.00  0.00    -0.311 A  
HETATM   33  C   UNL     1     -10.002  18.330  66.819  1.00  0.00    -0.359 A  
HETATM   34 CL   UNL     1     -10.021  20.962  67.397  1.00  0.00    -0.417 Cl 
HETATM   35  C   UNL     1      -9.492  17.032  66.918  1.00  0.00    -0.266 A  
ENDBRANCH  26  29
ENDBRANCH  17  19
ENDBRANCH  11  17
ENDBRANCH   7   9
ENDBRANCH   4   7
ENDBRANCH   3   4
ENDBRANCH   2   3
TORSDOF 7
ENDMDL
MODEL       96
REMARK 921   NORMALIZED FREE ENERGY PREDICTED BY IDOCK:   -5.62 KCAL/MOL
REMARK 922        TOTAL FREE ENERGY PREDICTED BY IDOCK:   -9.67 KCAL/MOL
REMARK 923 INTER-LIGAND FREE ENERGY PREDICTED BY IDOCK:   -7.98 KCAL/MOL
REMARK 924 INTRA-LIGAND FREE ENERGY PREDICTED BY IDOCK:   -1.70 KCAL/MOL
REMARK 927      BINDING AFFINITY PREDICTED BY RF-SCORE:    0.00 PKD
ROOT
HETATM    1  C   UNL     1      -7.661  15.559  68.160  1.00  0.00    -0.124 C  
HETATM    2  C   UNL     1      -8.260  14.205  68.506  1.00  0.00    -0.146 C  
ENDROOT
BRANCH   2   3
HETATM    3  C   UNL     1      -7.809  13.120  67.534  1.00  0.00    -0.172 C  
BRANCH   3   4
HETATM    4  S   UNL     1      -6.141  12.575  67.911  1.00  0.00    -0.117 S  
HETATM    5  O   UNL     1      -5.978  12.478  69.344  1.00  0.00    -0.084 OA 
HETATM    6  O   UNL     1      -5.219  13.320  67.087  1.00  0.00    -0.330 OA 
BRANCH   4   7
HETATM    7  N   UNL     1      -6.148  11.026  67.234  1.00  0.00    -0.061 N  
HETATM    8  H   UNL     1      -5.310  10.632  66.805  1.00  0.00     0.000 HD 
BRANCH   7   9
HETATM    9  C   UNL     1      -7.372  10.287  67.283  1.00  0.00    -0.090 A  
HETATM   10  C   UNL     1      -7.665   9.472  68.384  1.00  0.00    -0.085 A  
HETATM   11  C   UNL     1      -8.952   8.958  68.562  1.00  0.00    -0.134 A  
HETATM   12  F   UNL     1      -6.707   9.265  69.302  1.00  0.00    -0.046 F  
HETATM   13  C   UNL     1      -8.294  10.418  66.248  1.00  0.00    -0.146 A  
HETATM   14  C   UNL     1      -9.867   9.092  67.516  1.00  0.00    -0.177 A  
HETATM   15  C   UNL     1      -9.535   9.791  66.353  1.00  0.00    -0.237 A  
HETATM   16  F   UNL     1     -11.107   8.592  67.605  1.00  0.00    -0.219 F  
BRANCH  11  17
HETATM   17  C   UNL     1      -9.386   8.327  69.830  1.00  0.00    -0.159 C  
HETATM   18  O   UNL     1      -8.679   7.451  70.324  1.00  0.00    -0.143 OA 
BRANCH  17  19
HETATM   19  C   UNL     1     -10.622   8.762  70.493  1.00  0.00    -0.252 A  
HETATM   20  C   UNL     1     -11.353   7.934  71.335  1.00  0.00    -0.252 A  
HETATM   21  N   UNL     1     -12.341   8.671  71.929  1.00  0.00    -0.330 NA 
HETATM   22  C   UNL     1     -12.298   9.955  71.463  1.00  0.00    -0.412 A  
HETATM   23  H   UNL     1     -13.007   8.317  72.615  1.00  0.00     0.000 HD 
HETATM   24  N   UNL     1     -13.086  10.951  71.903  1.00  0.00    -0.487 NA 
HETATM   25  C   UNL     1     -12.848  12.133  71.273  1.00  0.00    -0.250 A  
HETATM   26  C   UNL     1     -11.953  12.361  70.223  1.00  0.00    -0.371 A  
HETATM   27  C   UNL     1     -11.202  11.250  69.800  1.00  0.00    -0.294 A  
HETATM   28  C   UNL     1     -11.318  10.021  70.481  1.00  0.00    -0.409 A  
BRANCH  26  29
HETATM   29  C   UNL     1     -11.747  13.692  69.607  1.00  0.00    -0.383 A  
HETATM   30  C   UNL     1     -11.446  14.829  70.381  1.00  0.00    -0.303 A  
HETATM   31  C   UNL     1     -11.185  16.070  69.783  1.00  0.00    -0.344 A  
HETATM   32  C   UNL     1     -11.213  16.192  68.397  1.00  0.00    -0.358 A  
HETATM   33  C   UNL     1     -11.520  15.092  67.607  1.00  0.00    -0.344 A  
HETATM   34 CL   UNL     1     -10.858  17.703  67.658  1.00  0.00    -0.306 Cl 
HETATM   35  C   UNL     1     -11.794  13.859  68.209  1.00  0.00    -0.412 A  
ENDBRANCH  26  29
ENDBRANCH  17  19
ENDBRANCH  11  17
ENDBRANCH   7   9
ENDBRANCH   4   7
ENDBRANCH   3   4
ENDBRANCH   2   3
TORSDOF 7
ENDMDL
MODEL       97
REMARK 921   NORMALIZED FREE ENERGY PREDICTED BY IDOCK:   -5.61 KCAL/MOL
REMARK 922        TOTAL FREE ENERGY PREDICTED BY IDOCK:   -9.65 KCAL/MOL
REMARK 923 INTER-LIGAND FREE ENERGY PREDICTED BY IDOCK:   -7.44 KCAL/MOL
REMARK 924 INTRA-LIGAND FREE ENERGY PREDICTED BY IDOCK:   -2.21 KCAL/MOL
REMARK 927      BINDING AFFINITY PREDICTED BY RF-SCORE:    0.00 PKD
ROOT
HETATM    1  C   UNL     1      -8.976   7.199  71.718  1.00  0.00    -0.134 C  
HETATM    2  C   UNL     1      -9.914   8.248  72.294  1.00  0.00    -0.366 C  
ENDROOT
BRANCH   2   3
HETATM    3  C   UNL     1     -10.850   8.816  71.233  1.00  0.00    -0.277 C  
BRANCH   3   4
HETATM    4  S   UNL     1     -12.566   8.531  71.674  1.00  0.00    -0.343 S  
HETATM    5  O   UNL     1     -12.787   8.948  73.041  1.00  0.00    -0.271 OA 
HETATM    6  O   UNL     1     -12.950   7.222  71.204  1.00  0.00    -0.346 OA 
BRANCH   4   7
HETATM    7  N   UNL     1     -13.350   9.598  70.621  1.00  0.00    -0.586 N  
HETATM    8  H   UNL     1     -14.172   9.309  70.092  1.00  0.00     0.000 HD 
BRANCH   7   9
HETATM    9  C   UNL     1     -12.817  10.920  70.501  1.00  0.00    -0.220 A  
HETATM   10  C   UNL     1     -12.136  11.307  69.339  1.00  0.00    -0.315 A  
HETATM   11  C   UNL     1     -11.843  12.653  69.106  1.00  0.00    -0.349 A  
HETATM   12  F   UNL     1     -11.845  10.369  68.424  1.00  0.00    -0.298 F  
HETATM   13  C   UNL     1     -13.019  11.837  71.529  1.00  0.00    -0.446 A  
HETATM   14  C   UNL     1     -12.047  13.563  70.145  1.00  0.00    -0.354 A  
HETATM   15  C   UNL     1     -12.603  13.157  71.360  1.00  0.00    -0.352 A  
HETATM   16  F   UNL     1     -11.754  14.863  70.001  1.00  0.00    -0.253 F  
BRANCH  11  17
HETATM   17  C   UNL     1     -11.377  13.147  67.789  1.00  0.00    -0.290 C  
HETATM   18  O   UNL     1     -12.211  13.366  66.913  1.00  0.00    -0.365 OA 
BRANCH  17  19
HETATM   19  C   UNL     1      -9.949  13.394  67.549  1.00  0.00    -0.230 A  
HETATM   20  C   UNL     1      -9.457  14.634  67.165  1.00  0.00    -0.229 A  
HETATM   21  N   UNL     1      -8.089  14.593  67.192  1.00  0.00    -0.280 NA 
HETATM   22  C   UNL     1      -7.676  13.340  67.546  1.00  0.00    -0.171 A  
HETATM   23  H   UNL     1      -7.473  15.377  66.980  1.00  0.00     0.000 HD 
HETATM   24  N   UNL     1      -6.392  12.987  67.737  1.00  0.00    -0.134 NA 
HETATM   25  C   UNL     1      -6.248  11.678  68.079  1.00  0.00    -0.047 A  
HETATM   26  C   UNL     1      -7.258  10.717  68.173  1.00  0.00    -0.086 A  
HETATM   27  C   UNL     1      -8.565  11.168  67.914  1.00  0.00    -0.135 A  
HETATM   28  C   UNL     1      -8.802  12.534  67.661  1.00  0.00    -0.179 A  
BRANCH  26  29
HETATM   29  C   UNL     1      -7.007   9.313  68.571  1.00  0.00    -0.067 A  
HETATM   30  C   UNL     1      -7.678   8.236  67.961  1.00  0.00    -0.107 A  
HETATM   31  C   UNL     1      -7.382   6.908  68.296  1.00  0.00    -0.097 A  
HETATM   32  C   UNL     1      -6.403   6.633  69.245  1.00  0.00    -0.035 A  
HETATM   33  C   UNL     1      -5.732   7.673  69.875  1.00  0.00    -0.023 A  
HETATM   34 CL   UNL     1      -6.011   5.005  69.633  1.00  0.00    -0.020 Cl 
HETATM   35  C   UNL     1      -6.040   8.998  69.547  1.00  0.00    -0.036 A  
ENDBRANCH  26  29
ENDBRANCH  17  19
ENDBRANCH  11  17
ENDBRANCH   7   9
ENDBRANCH   4   7
ENDBRANCH   3   4
ENDBRANCH   2   3
TORSDOF 7
ENDMDL
MODEL       98
REMARK 921   NORMALIZED FREE ENERGY PREDICTED BY IDOCK:   -5.58 KCAL/MOL
REMARK 922        TOTAL FREE ENERGY PREDICTED BY IDOCK:   -9.62 KCAL/MOL
REMARK 923 INTER-LIGAND FREE ENERGY PREDICTED BY IDOCK:   -7.96 KCAL/MOL
REMARK 924 INTRA-LIGAND FREE ENERGY PREDICTED BY IDOCK:   -1.66 KCAL/MOL
REMARK 927      BINDING AFFINITY PREDICTED BY RF-SCORE:    0.00 PKD
ROOT
HETATM    1  C   UNL     1     -10.689   6.737  73.253  1.00  0.00    -0.330 C  
HETATM    2  C   UNL     1     -10.690   7.372  71.872  1.00  0.00    -0.247 C  
ENDROOT
BRANCH   2   3
HETATM    3  C   UNL     1      -9.688   6.699  70.939  1.00  0.00    -0.179 C  
BRANCH   3   4
HETATM    4  S   UNL     1      -8.469   7.878  70.351  1.00  0.00    -0.132 S  
HETATM    5  O   UNL     1      -7.141   7.365  70.606  1.00  0.00    -0.058 OA 
HETATM    6  O   UNL     1      -8.870   9.200  70.769  1.00  0.00    -0.208 OA 
BRANCH   4   7
HETATM    7  N   UNL     1      -8.777   7.855  68.688  1.00  0.00    -0.128 N  
HETATM    8  H   UNL     1      -8.962   6.981  68.197  1.00  0.00     0.000 HD 
BRANCH   7   9
HETATM    9  C   UNL     1      -8.768   9.106  67.996  1.00  0.00    -0.129 A  
HETATM   10  C   UNL     1      -9.969   9.764  67.703  1.00  0.00    -0.174 A  
HETATM   11  C   UNL     1      -9.962  11.091  67.266  1.00  0.00    -0.210 A  
HETATM   12  F   UNL     1     -11.125   9.118  67.929  1.00  0.00    -0.240 F  
HETATM   13  C   UNL     1      -7.552   9.692  67.652  1.00  0.00    -0.091 A  
HETATM   14  C   UNL     1      -8.738  11.666  66.921  1.00  0.00    -0.185 A  
HETATM   15  C   UNL     1      -7.541  10.965  67.084  1.00  0.00    -0.109 A  
HETATM   16  F   UNL     1      -8.662  12.923  66.462  1.00  0.00    -0.185 F  
BRANCH  11  17
HETATM   17  C   UNL     1     -11.194  11.913  67.205  1.00  0.00    -0.319 C  
HETATM   18  O   UNL     1     -11.865  11.893  66.175  1.00  0.00    -0.528 OA 
BRANCH  17  19
HETATM   19  C   UNL     1     -11.613  12.713  68.363  1.00  0.00    -0.370 A  
HETATM   20  C   UNL     1     -12.398  12.196  69.385  1.00  0.00     0.070 A  
HETATM   21  N   UNL     1     -12.472  13.120  70.393  1.00  0.00    -0.256 NA 
HETATM   22  C   UNL     1     -11.786  14.246  70.034  1.00  0.00    -0.314 A  
HETATM   23  H   UNL     1     -12.963  12.988  71.277  1.00  0.00     0.000 HD 
HETATM   24  N   UNL     1     -11.602  15.312  70.832  1.00  0.00    -0.312 NA 
HETATM   25  C   UNL     1     -10.889  16.305  70.233  1.00  0.00    -0.254 A  
HETATM   26  C   UNL     1     -10.422  16.328  68.915  1.00  0.00    -0.273 A  
HETATM   27  C   UNL     1     -10.700  15.187  68.142  1.00  0.00    -0.254 A  
HETATM   28  C   UNL     1     -11.338  14.076  68.730  1.00  0.00    -0.309 A  
BRANCH  26  29
HETATM   29  C   UNL     1      -9.636  17.451  68.354  1.00  0.00    -0.292 A  
HETATM   30  C   UNL     1     -10.081  18.784  68.436  1.00  0.00    -0.443 A  
HETATM   31  C   UNL     1      -9.297  19.844  67.963  1.00  0.00    -0.431 A  
HETATM   32  C   UNL     1      -8.047  19.590  67.406  1.00  0.00    -0.280 A  
HETATM   33  C   UNL     1      -7.586  18.285  67.299  1.00  0.00    -0.226 A  
HETATM   34 CL   UNL     1      -7.067  20.891  66.859  1.00  0.00    -0.354 Cl 
HETATM   35  C   UNL     1      -8.378  17.228  67.759  1.00  0.00    -0.212 A  
ENDBRANCH  26  29
ENDBRANCH  17  19
ENDBRANCH  11  17
ENDBRANCH   7   9
ENDBRANCH   4   7
ENDBRANCH   3   4
ENDBRANCH   2   3
TORSDOF 7
ENDMDL
MODEL       99
REMARK 921   NORMALIZED FREE ENERGY PREDICTED BY IDOCK:   -5.54 KCAL/MOL
REMARK 922        TOTAL FREE ENERGY PREDICTED BY IDOCK:   -9.55 KCAL/MOL
REMARK 923 INTER-LIGAND FREE ENERGY PREDICTED BY IDOCK:   -7.53 KCAL/MOL
REMARK 924 INTRA-LIGAND FREE ENERGY PREDICTED BY IDOCK:   -2.02 KCAL/MOL
REMARK 927      BINDING AFFINITY PREDICTED BY RF-SCORE:    0.00 PKD
ROOT
HETATM    1  C   UNL     1     -11.012   9.632  67.750  1.00  0.00    -0.203 C  
HETATM    2  C   UNL     1      -9.668   9.059  68.168  1.00  0.00    -0.172 C  
ENDROOT
BRANCH   2   3
HETATM    3  C   UNL     1      -8.883  10.034  69.040  1.00  0.00    -0.159 C  
BRANCH   3   4
HETATM    4  S   UNL     1      -7.188  10.184  68.467  1.00  0.00    -0.082 S  
HETATM    5  O   UNL     1      -6.771  11.565  68.555  1.00  0.00    -0.060 OA 
HETATM    6  O   UNL     1      -7.046   9.420  67.251  1.00  0.00    -0.084 OA 
BRANCH   4   7
HETATM    7  N   UNL     1      -6.373   9.268  69.632  1.00  0.00    -0.039 N  
HETATM    8  H   UNL     1      -5.500   9.595  70.045  1.00  0.00     0.000 HD 
BRANCH   7   9
HETATM    9  C   UNL     1      -6.954   8.020  70.018  1.00  0.00    -0.048 A  
HETATM   10  C   UNL     1      -7.645   7.903  71.231  1.00  0.00    -0.081 A  
HETATM   11  C   UNL     1      -8.427   6.776  71.495  1.00  0.00    -0.119 A  
HETATM   12  F   UNL     1      -7.602   8.930  72.095  1.00  0.00    -0.123 F  
HETATM   13  C   UNL     1      -6.867   6.928  69.158  1.00  0.00    -0.068 A  
HETATM   14  C   UNL     1      -8.329   5.686  70.628  1.00  0.00    -0.118 A  
HETATM   15  C   UNL     1      -7.533   5.747  69.481  1.00  0.00    -0.075 A  
HETATM   16  F   UNL     1      -9.026   4.561  70.840  1.00  0.00    -0.124 F  
BRANCH  11  17
HETATM   17  C   UNL     1      -9.385   6.721  72.625  1.00  0.00    -0.139 C  
HETATM   18  O   UNL     1      -8.941   6.685  73.771  1.00  0.00    -0.130 OA 
BRANCH  17  19
HETATM   19  C   UNL     1     -10.832   6.737  72.376  1.00  0.00    -0.270 A  
HETATM   20  C   UNL     1     -11.629   5.609  72.516  1.00  0.00    -0.246 A  
HETATM   21  N   UNL     1     -12.941   5.978  72.388  1.00  0.00    -0.312 NA 
HETATM   22  C   UNL     1     -13.017   7.316  72.125  1.00  0.00    -0.041 A  
HETATM   23  H   UNL     1     -13.740   5.350  72.475  1.00  0.00     0.000 HD 
HETATM   24  N   UNL     1     -14.165   8.008  72.019  1.00  0.00    -0.382 NA 
HETATM   25  C   UNL     1     -13.967   9.326  71.747  1.00  0.00    -0.260 A  
HETATM   26  C   UNL     1     -12.744   9.963  71.517  1.00  0.00    -0.515 A  
HETATM   27  C   UNL     1     -11.599   9.151  71.608  1.00  0.00    -0.449 A  
HETATM   28  C   UNL     1     -11.721   7.801  71.993  1.00  0.00    -0.349 A  
BRANCH  26  29
HETATM   29  C   UNL     1     -12.624  11.414  71.245  1.00  0.00    -0.480 A  
HETATM   30  C   UNL     1     -11.901  11.905  70.141  1.00  0.00    -0.390 A  
HETATM   31  C   UNL     1     -11.852  13.275  69.853  1.00  0.00    -0.380 A  
HETATM   32  C   UNL     1     -12.532  14.180  70.662  1.00  0.00    -0.362 A  
HETATM   33  C   UNL     1     -13.242  13.728  71.767  1.00  0.00    -0.467 A  
HETATM   34 CL   UNL     1     -12.504  15.858  70.292  1.00  0.00    -0.290 Cl 
HETATM   35  C   UNL     1     -13.277  12.361  72.059  1.00  0.00    -0.514 A  
ENDBRANCH  26  29
ENDBRANCH  17  19
ENDBRANCH  11  17
ENDBRANCH   7   9
ENDBRANCH   4   7
ENDBRANCH   3   4
ENDBRANCH   2   3
TORSDOF 7
ENDMDL
MODEL      100
REMARK 921   NORMALIZED FREE ENERGY PREDICTED BY IDOCK:   -5.53 KCAL/MOL
REMARK 922        TOTAL FREE ENERGY PREDICTED BY IDOCK:   -9.54 KCAL/MOL
REMARK 923 INTER-LIGAND FREE ENERGY PREDICTED BY IDOCK:   -7.36 KCAL/MOL
REMARK 924 INTRA-LIGAND FREE ENERGY PREDICTED BY IDOCK:   -2.19 KCAL/MOL
REMARK 927      BINDING AFFINITY PREDICTED BY RF-SCORE:    0.00 PKD
ROOT
HETATM    1  C   UNL     1     -11.004   8.220  67.360  1.00  0.00     0.082 C  
HETATM    2  C   UNL     1     -10.130   7.323  68.223  1.00  0.00    -0.193 C  
ENDROOT
BRANCH   2   3
HETATM    3  C   UNL     1      -8.703   7.852  68.324  1.00  0.00    -0.130 C  
BRANCH   3   4
HETATM    4  S   UNL     1      -7.642   7.070  67.105  1.00  0.00    -0.109 S  
HETATM    5  O   UNL     1      -8.149   5.752  66.800  1.00  0.00    -0.102 OA 
HETATM    6  O   UNL     1      -6.267   7.290  67.486  1.00  0.00    -0.043 OA 
BRANCH   4   7
HETATM    7  N   UNL     1      -7.875   8.091  65.777  1.00  0.00    -0.093 N  
HETATM    8  H   UNL     1      -8.053   7.713  64.846  1.00  0.00     0.000 HD 
BRANCH   7   9
HETATM    9  C   UNL     1      -7.812   9.501  66.005  1.00  0.00    -0.100 A  
HETATM   10  C   UNL     1      -8.880  10.328  65.635  1.00  0.00    -0.168 A  
HETATM   11  C   UNL     1      -8.940  11.650  66.082  1.00  0.00    -0.180 A  
HETATM   12  F   UNL     1      -9.879   9.799  64.910  1.00  0.00    -0.356 F  
HETATM   13  C   UNL     1      -6.699  10.043  66.642  1.00  0.00    -0.081 A  
HETATM   14  C   UNL     1      -7.817  12.184  66.715  1.00  0.00     0.004 A  
HETATM   15  C   UNL     1      -6.690  11.399  66.970  1.00  0.00    -0.131 A  
HETATM   16  F   UNL     1      -7.793  13.456  67.139  1.00  0.00    -0.161 F  
BRANCH  11  17
HETATM   17  C   UNL     1     -10.163  12.477  65.951  1.00  0.00    -0.261 C  
HETATM   18  O   UNL     1     -10.667  12.610  64.838  1.00  0.00    -0.280 OA 
BRANCH  17  19
HETATM   19  C   UNL     1     -10.770  13.101  67.134  1.00  0.00    -0.263 A  
HETATM   20  C   UNL     1     -11.144  14.437  67.168  1.00  0.00    -0.312 A  
HETATM   21  N   UNL     1     -11.832  14.673  68.328  1.00  0.00    -0.455 NA 
HETATM   22  C   UNL     1     -11.878  13.528  69.073  1.00  0.00    -0.343 A  
HETATM   23  H   UNL     1     -12.245  15.565  68.596  1.00  0.00     0.000 HD 
HETATM   24  N   UNL     1     -12.545  13.403  70.234  1.00  0.00    -0.180 NA 
HETATM   25  C   UNL     1     -12.429  12.162  70.780  1.00  0.00    -0.271 A  
HETATM   26  C   UNL     1     -11.664  11.097  70.294  1.00  0.00    -0.431 A  
HETATM   27  C   UNL     1     -10.966  11.335  69.096  1.00  0.00    -0.292 A  
HETATM   28  C   UNL     1     -11.127  12.560  68.418  1.00  0.00    -0.293 A  
BRANCH  26  29
HETATM   29  C   UNL     1     -11.612   9.770  70.949  1.00  0.00    -0.441 A  
HETATM   30  C   UNL     1     -12.734   8.920  70.995  1.00  0.00    -0.102 A  
HETATM   31  C   UNL     1     -12.654   7.639  71.557  1.00  0.00    -0.369 A  
HETATM   32  C   UNL     1     -11.448   7.181  72.076  1.00  0.00    -0.274 A  
HETATM   33  C   UNL     1     -10.327   8.001  72.059  1.00  0.00    -0.298 A  
HETATM   34 CL   UNL     1     -11.338   5.597  72.733  1.00  0.00    -0.348 Cl 
HETATM   35  C   UNL     1     -10.414   9.285  71.510  1.00  0.00    -0.385 A  
ENDBRANCH  26  29
ENDBRANCH  17  19
ENDBRANCH  11  17
ENDBRANCH   7   9
ENDBRANCH   4   7
ENDBRANCH   3   4
ENDBRANCH   2   3
TORSDOF 7
ENDMDL
MODEL      101
REMARK 921   NORMALIZED FREE ENERGY PREDICTED BY IDOCK:   -5.52 KCAL/MOL
REMARK 922        TOTAL FREE ENERGY PREDICTED BY IDOCK:   -9.54 KCAL/MOL
REMARK 923 INTER-LIGAND FREE ENERGY PREDICTED BY IDOCK:   -8.24 KCAL/MOL
REMARK 924 INTRA-LIGAND FREE ENERGY PREDICTED BY IDOCK:   -1.30 KCAL/MOL
REMARK 927      BINDING AFFINITY PREDICTED BY RF-SCORE:    0.00 PKD
ROOT
HETATM    1  C   UNL     1      -6.540  19.694  69.032  1.00  0.00    -0.358 C  
HETATM    2  C   UNL     1      -7.982  19.312  68.741  1.00  0.00    -0.392 C  
ENDROOT
BRANCH   2   3
HETATM    3  C   UNL     1      -8.107  18.517  67.445  1.00  0.00    -0.240 C  
BRANCH   3   4
HETATM    4  S   UNL     1      -9.789  17.937  67.208  1.00  0.00    -0.322 S  
HETATM    5  O   UNL     1      -9.849  17.098  66.032  1.00  0.00    -0.420 OA 
HETATM    6  O   UNL     1     -10.688  19.051  67.397  1.00  0.00    -0.461 OA 
BRANCH   4   7
HETATM    7  N   UNL     1     -10.000  16.990  68.593  1.00  0.00    -0.278 N  
HETATM    8  H   UNL     1     -10.380  17.388  69.452  1.00  0.00     0.000 HD 
BRANCH   7   9
HETATM    9  C   UNL     1      -9.627  15.612  68.517  1.00  0.00    -0.199 A  
HETATM   10  C   UNL     1     -10.588  14.606  68.683  1.00  0.00    -0.252 A  
HETATM   11  C   UNL     1     -10.289  13.281  68.357  1.00  0.00    -0.254 A  
HETATM   12  F   UNL     1     -11.820  14.957  69.084  1.00  0.00    -0.292 F  
HETATM   13  C   UNL     1      -8.307  15.274  68.230  1.00  0.00    -0.148 A  
HETATM   14  C   UNL     1      -8.962  12.953  68.074  1.00  0.00    -0.196 A  
HETATM   15  C   UNL     1      -7.969  13.935  68.039  1.00  0.00    -0.154 A  
HETATM   16  F   UNL     1      -8.599  11.695  67.788  1.00  0.00    -0.128 F  
BRANCH  11  17
HETATM   17  C   UNL     1     -11.334  12.235  68.252  1.00  0.00    -0.289 C  
HETATM   18  O   UNL     1     -11.936  12.109  67.189  1.00  0.00    -0.580 OA 
BRANCH  17  19
HETATM   19  C   UNL     1     -11.619  11.352  69.391  1.00  0.00    -0.391 A  
HETATM   20  C   UNL     1     -12.468  11.717  70.427  1.00  0.00    -0.197 A  
HETATM   21  N   UNL     1     -12.668  10.631  71.236  1.00  0.00    -0.397 NA 
HETATM   22  C   UNL     1     -11.934   9.575  70.775  1.00  0.00    -0.252 A  
HETATM   23  H   UNL     1     -13.271  10.613  72.058  1.00  0.00     0.000 HD 
HETATM   24  N   UNL     1     -11.965   8.338  71.301  1.00  0.00    -0.287 NA 
HETATM   25  C   UNL     1     -11.137   7.469  70.661  1.00  0.00    -0.265 A  
HETATM   26  C   UNL     1     -10.261   7.760  69.610  1.00  0.00    -0.206 A  
HETATM   27  C   UNL     1     -10.266   9.090  69.154  1.00  0.00    -0.213 A  
HETATM   28  C   UNL     1     -11.177  10.019  69.697  1.00  0.00    -0.285 A  
BRANCH  26  29
HETATM   29  C   UNL     1      -9.406   6.740  68.961  1.00  0.00    -0.134 A  
HETATM   30  C   UNL     1      -8.025   6.657  69.217  1.00  0.00    -0.111 A  
HETATM   31  C   UNL     1      -7.238   5.645  68.652  1.00  0.00    -0.078 A  
HETATM   32  C   UNL     1      -7.822   4.691  67.824  1.00  0.00    -0.086 A  
HETATM   33  C   UNL     1      -9.181   4.754  67.541  1.00  0.00    -0.142 A  
HETATM   34 CL   UNL     1      -6.867   3.427  67.157  1.00  0.00    -0.049 Cl 
HETATM   35  C   UNL     1      -9.959   5.774  68.097  1.00  0.00    -0.181 A  
ENDBRANCH  26  29
ENDBRANCH  17  19
ENDBRANCH  11  17
ENDBRANCH   7   9
ENDBRANCH   4   7
ENDBRANCH   3   4
ENDBRANCH   2   3
TORSDOF 7
ENDMDL
MODEL      102
REMARK 921   NORMALIZED FREE ENERGY PREDICTED BY IDOCK:   -5.47 KCAL/MOL
REMARK 922        TOTAL FREE ENERGY PREDICTED BY IDOCK:   -9.46 KCAL/MOL
REMARK 923 INTER-LIGAND FREE ENERGY PREDICTED BY IDOCK:   -8.32 KCAL/MOL
REMARK 924 INTRA-LIGAND FREE ENERGY PREDICTED BY IDOCK:   -1.13 KCAL/MOL
REMARK 927      BINDING AFFINITY PREDICTED BY RF-SCORE:    0.00 PKD
ROOT
HETATM    1  C   UNL     1      -9.961  19.340  68.466  1.00  0.00    -0.513 C  
HETATM    2  C   UNL     1      -8.781  18.990  67.573  1.00  0.00    -0.315 C  
ENDROOT
BRANCH   2   3
HETATM    3  C   UNL     1      -7.669  18.292  68.350  1.00  0.00    -0.299 C  
BRANCH   3   4
HETATM    4  S   UNL     1      -7.609  16.543  67.951  1.00  0.00    -0.156 S  
HETATM    5  O   UNL     1      -6.457  15.944  68.587  1.00  0.00    -0.109 OA 
HETATM    6  O   UNL     1      -7.871  16.386  66.541  1.00  0.00    -0.259 OA 
BRANCH   4   7
HETATM    7  N   UNL     1      -9.021  15.994  68.702  1.00  0.00    -0.199 N  
HETATM    8  H   UNL     1      -9.226  16.223  69.675  1.00  0.00     0.000 HD 
BRANCH   7   9
HETATM    9  C   UNL     1      -9.918  15.197  67.924  1.00  0.00    -0.221 A  
HETATM   10  C   UNL     1      -9.979  13.810  68.110  1.00  0.00    -0.242 A  
HETATM   11  C   UNL     1     -11.019  13.066  67.550  1.00  0.00    -0.282 A  
HETATM   12  F   UNL     1      -9.064  13.229  68.903  1.00  0.00    -0.075 F  
HETATM   13  C   UNL     1     -10.766  15.815  67.008  1.00  0.00    -0.306 A  
HETATM   14  C   UNL     1     -11.861  13.694  66.630  1.00  0.00    -0.409 A  
HETATM   15  C   UNL     1     -11.721  15.053  66.336  1.00  0.00    -0.110 A  
HETATM   16  F   UNL     1     -12.858  13.030  66.028  1.00  0.00    -0.348 F  
BRANCH  11  17
HETATM   17  C   UNL     1     -11.285  11.659  67.934  1.00  0.00    -0.269 C  
HETATM   18  O   UNL     1     -11.130  10.779  67.090  1.00  0.00    -0.291 OA 
BRANCH  17  19
HETATM   19  C   UNL     1     -11.700  11.327  69.303  1.00  0.00    -0.403 A  
HETATM   20  C   UNL     1     -12.526  12.151  70.056  1.00  0.00     0.022 A  
HETATM   21  N   UNL     1     -12.870  11.495  71.207  1.00  0.00    -0.399 NA 
HETATM   22  C   UNL     1     -12.254  10.276  71.242  1.00  0.00    -0.395 A  
HETATM   23  H   UNL     1     -13.491  11.860  71.929  1.00  0.00     0.000 HD 
HETATM   24  N   UNL     1     -12.443   9.354  72.202  1.00  0.00    -0.349 NA 
HETATM   25  C   UNL     1     -11.707   8.227  72.007  1.00  0.00    -0.346 A  
HETATM   26  C   UNL     1     -10.777   7.995  70.989  1.00  0.00    -0.245 A  
HETATM   27  C   UNL     1     -10.615   9.033  70.054  1.00  0.00    -0.246 A  
HETATM   28  C   UNL     1     -11.424  10.184  70.132  1.00  0.00    -0.368 A  
BRANCH  26  29
HETATM   29  C   UNL     1     -10.032   6.723  70.845  1.00  0.00    -0.200 A  
HETATM   30  C   UNL     1      -8.721   6.571  71.337  1.00  0.00    -0.130 A  
HETATM   31  C   UNL     1      -8.051   5.343  71.258  1.00  0.00    -0.115 A  
HETATM   32  C   UNL     1      -8.684   4.241  70.692  1.00  0.00    -0.083 A  
HETATM   33  C   UNL     1      -9.972   4.363  70.185  1.00  0.00    -0.249 A  
HETATM   34 CL   UNL     1      -7.879   2.724  70.626  1.00  0.00    -0.042 Cl 
HETATM   35  C   UNL     1     -10.632   5.594  70.253  1.00  0.00    -0.370 A  
ENDBRANCH  26  29
ENDBRANCH  17  19
ENDBRANCH  11  17
ENDBRANCH   7   9
ENDBRANCH   4   7
ENDBRANCH   3   4
ENDBRANCH   2   3
TORSDOF 7
ENDMDL
MODEL      103
REMARK 921   NORMALIZED FREE ENERGY PREDICTED BY IDOCK:   -5.44 KCAL/MOL
REMARK 922        TOTAL FREE ENERGY PREDICTED BY IDOCK:   -9.42 KCAL/MOL
REMARK 923 INTER-LIGAND FREE ENERGY PREDICTED BY IDOCK:   -6.94 KCAL/MOL
REMARK 924 INTRA-LIGAND FREE ENERGY PREDICTED BY IDOCK:   -2.49 KCAL/MOL
REMARK 927      BINDING AFFINITY PREDICTED BY RF-SCORE:    0.00 PKD
ROOT
HETATM    1  C   UNL     1      -7.523   7.691  65.789  1.00  0.00    -0.079 C  
HETATM    2  C   UNL     1      -8.103   7.339  67.149  1.00  0.00    -0.114 C  
ENDROOT
BRANCH   2   3
HETATM    3  C   UNL     1      -8.153   5.831  67.371  1.00  0.00    -0.102 C  
BRANCH   3   4
HETATM    4  S   UNL     1      -9.849   5.245  67.414  1.00  0.00    -0.174 S  
HETATM    5  O   UNL     1      -9.965   4.048  66.611  1.00  0.00    -0.199 OA 
HETATM    6  O   UNL     1     -10.729   6.374  67.232  1.00  0.00    -0.262 OA 
BRANCH   4   7
HETATM    7  N   UNL     1     -10.010   4.849  69.050  1.00  0.00    -0.183 N  
HETATM    8  H   UNL     1      -9.879   3.892  69.378  1.00  0.00     0.000 HD 
BRANCH   7   9
HETATM    9  C   UNL     1     -10.338   5.904  69.958  1.00  0.00    -0.244 A  
HETATM   10  C   UNL     1      -9.337   6.526  70.715  1.00  0.00    -0.158 A  
HETATM   11  C   UNL     1      -9.601   7.713  71.401  1.00  0.00    -0.178 A  
HETATM   12  F   UNL     1      -8.102   5.998  70.701  1.00  0.00    -0.105 F  
HETATM   13  C   UNL     1     -11.656   6.343  70.052  1.00  0.00    -0.446 A  
HETATM   14  C   UNL     1     -10.927   8.142  71.491  1.00  0.00    -0.243 A  
HETATM   15  C   UNL     1     -11.955   7.449  70.847  1.00  0.00    -0.308 A  
HETATM   16  F   UNL     1     -11.257   9.254  72.163  1.00  0.00    -0.430 F  
BRANCH  11  17
HETATM   17  C   UNL     1      -8.526   8.550  71.985  1.00  0.00    -0.165 C  
HETATM   18  O   UNL     1      -8.466   8.661  73.207  1.00  0.00    -0.395 OA 
BRANCH  17  19
HETATM   19  C   UNL     1      -7.540   9.208  71.118  1.00  0.00    -0.093 A  
HETATM   20  C   UNL     1      -6.180   9.210  71.396  1.00  0.00    -0.078 A  
HETATM   21  N   UNL     1      -5.512   9.743  70.327  1.00  0.00    -0.040 NA 
HETATM   22  C   UNL     1      -6.410  10.128  69.372  1.00  0.00    -0.048 A  
HETATM   23  H   UNL     1      -4.500   9.838  70.254  1.00  0.00     0.000 HD 
HETATM   24  N   UNL     1      -6.075  10.619  68.166  1.00  0.00    -0.050 NA 
HETATM   25  C   UNL     1      -7.157  10.932  67.402  1.00  0.00    -0.093 A  
HETATM   26  C   UNL     1      -8.502  10.850  67.775  1.00  0.00    -0.124 A  
HETATM   27  C   UNL     1      -8.755  10.365  69.070  1.00  0.00    -0.170 A  
HETATM   28  C   UNL     1      -7.688   9.920  69.877  1.00  0.00    -0.177 A  
BRANCH  26  29
HETATM   29  C   UNL     1      -9.618  11.197  66.865  1.00  0.00    -0.208 A  
HETATM   30  C   UNL     1     -10.705  11.984  67.290  1.00  0.00    -0.269 A  
HETATM   31  C   UNL     1     -11.721  12.364  66.402  1.00  0.00    -0.453 A  
HETATM   32  C   UNL     1     -11.663  11.969  65.070  1.00  0.00    -0.255 A  
HETATM   33  C   UNL     1     -10.610  11.179  64.623  1.00  0.00    -0.386 A  
HETATM   34 CL   UNL     1     -12.887  12.463  63.969  1.00  0.00    -0.440 Cl 
HETATM   35  C   UNL     1      -9.606  10.791  65.516  1.00  0.00    -0.269 A  
ENDBRANCH  26  29
ENDBRANCH  17  19
ENDBRANCH  11  17
ENDBRANCH   7   9
ENDBRANCH   4   7
ENDBRANCH   3   4
ENDBRANCH   2   3
TORSDOF 7
ENDMDL
MODEL      104
REMARK 921   NORMALIZED FREE ENERGY PREDICTED BY IDOCK:   -5.44 KCAL/MOL
REMARK 922        TOTAL FREE ENERGY PREDICTED BY IDOCK:   -9.42 KCAL/MOL
REMARK 923 INTER-LIGAND FREE ENERGY PREDICTED BY IDOCK:   -8.95 KCAL/MOL
REMARK 924 INTRA-LIGAND FREE ENERGY PREDICTED BY IDOCK:   -0.47 KCAL/MOL
REMARK 927      BINDING AFFINITY PREDICTED BY RF-SCORE:    0.00 PKD
ROOT
HETATM    1  C   UNL     1      -5.762   8.313  74.433  1.00  0.00    -0.101 C  
HETATM    2  C   UNL     1      -7.003   7.436  74.415  1.00  0.00    -0.109 C  
ENDROOT
BRANCH   2   3
HETATM    3  C   UNL     1      -7.980   7.859  73.322  1.00  0.00    -0.161 C  
BRANCH   3   4
HETATM    4  S   UNL     1      -7.851   6.777  71.895  1.00  0.00    -0.096 S  
HETATM    5  O   UNL     1      -8.546   5.539  72.166  1.00  0.00    -0.125 OA 
HETATM    6  O   UNL     1      -6.487   6.800  71.424  1.00  0.00    -0.041 OA 
BRANCH   4   7
HETATM    7  N   UNL     1      -8.707   7.668  70.739  1.00  0.00    -0.138 N  
HETATM    8  H   UNL     1      -8.302   7.874  69.826  1.00  0.00     0.000 HD 
BRANCH   7   9
HETATM    9  C   UNL     1     -10.017   8.121  71.089  1.00  0.00    -0.180 A  
HETATM   10  C   UNL     1     -10.460   9.388  70.688  1.00  0.00    -0.290 A  
HETATM   11  C   UNL     1     -11.809   9.734  70.798  1.00  0.00    -0.400 A  
HETATM   12  F   UNL     1      -9.576  10.228  70.125  1.00  0.00    -0.239 F  
HETATM   13  C   UNL     1     -10.870   7.275  71.794  1.00  0.00    -0.251 A  
HETATM   14  C   UNL     1     -12.654   8.881  71.510  1.00  0.00    -0.331 A  
HETATM   15  C   UNL     1     -12.186   7.672  72.031  1.00  0.00    -0.328 A  
HETATM   16  F   UNL     1     -13.952   9.168  71.683  1.00  0.00    -0.400 F  
BRANCH  11  17
HETATM   17  C   UNL     1     -12.375  10.940  70.147  1.00  0.00    -0.322 C  
HETATM   18  O   UNL     1     -12.610  10.901  68.942  1.00  0.00    -0.338 OA 
BRANCH  17  19
HETATM   19  C   UNL     1     -12.670  12.142  70.936  1.00  0.00    -0.280 A  
HETATM   20  C   UNL     1     -13.478  12.117  72.066  1.00  0.00    -0.286 A  
HETATM   21  N   UNL     1     -13.420  13.342  72.675  1.00  0.00    -0.594 NA 
HETATM   22  C   UNL     1     -12.626  14.180  71.944  1.00  0.00    -0.286 A  
HETATM   23  H   UNL     1     -13.898  13.591  73.540  1.00  0.00     0.000 HD 
HETATM   24  N   UNL     1     -12.303  15.433  72.310  1.00  0.00    -0.349 NA 
HETATM   25  C   UNL     1     -11.502  16.059  71.405  1.00  0.00    -0.398 A  
HETATM   26  C   UNL     1     -11.074  15.557  70.172  1.00  0.00    -0.337 A  
HETATM   27  C   UNL     1     -11.497  14.254  69.856  1.00  0.00    -0.301 A  
HETATM   28  C   UNL     1     -12.237  13.506  70.794  1.00  0.00    -0.417 A  
BRANCH  26  29
HETATM   29  C   UNL     1     -10.184  16.308  69.256  1.00  0.00    -0.269 A  
HETATM   30  C   UNL     1      -8.851  15.917  69.030  1.00  0.00    -0.243 A  
HETATM   31  C   UNL     1      -8.039  16.594  68.109  1.00  0.00    -0.186 A  
HETATM   32  C   UNL     1      -8.551  17.669  67.391  1.00  0.00    -0.226 A  
HETATM   33  C   UNL     1      -9.859  18.088  67.601  1.00  0.00    -0.305 A  
HETATM   34 CL   UNL     1      -7.571  18.478  66.234  1.00  0.00    -0.281 Cl 
HETATM   35  C   UNL     1     -10.661  17.419  68.531  1.00  0.00    -0.340 A  
ENDBRANCH  26  29
ENDBRANCH  17  19
ENDBRANCH  11  17
ENDBRANCH   7   9
ENDBRANCH   4   7
ENDBRANCH   3   4
ENDBRANCH   2   3
TORSDOF 7
ENDMDL
MODEL      105
REMARK 921   NORMALIZED FREE ENERGY PREDICTED BY IDOCK:   -5.42 KCAL/MOL
REMARK 922        TOTAL FREE ENERGY PREDICTED BY IDOCK:   -9.39 KCAL/MOL
REMARK 923 INTER-LIGAND FREE ENERGY PREDICTED BY IDOCK:   -7.20 KCAL/MOL
REMARK 924 INTRA-LIGAND FREE ENERGY PREDICTED BY IDOCK:   -2.20 KCAL/MOL
REMARK 927      BINDING AFFINITY PREDICTED BY RF-SCORE:    0.00 PKD
ROOT
HETATM    1  C   UNL     1     -10.044   5.374  67.066  1.00  0.00    -0.234 C  
HETATM    2  C   UNL     1     -10.801   6.648  66.727  1.00  0.00    -0.322 C  
ENDROOT
BRANCH   2   3
HETATM    3  C   UNL     1      -9.992   7.896  67.066  1.00  0.00    -0.252 C  
BRANCH   3   4
HETATM    4  S   UNL     1      -8.619   8.098  65.927  1.00  0.00    -0.156 S  
HETATM    5  O   UNL     1      -9.020   7.661  64.608  1.00  0.00     0.380 OA 
HETATM    6  O   UNL     1      -7.420   7.606  66.562  1.00  0.00    -0.088 OA 
BRANCH   4   7
HETATM    7  N   UNL     1      -8.438   9.779  65.938  1.00  0.00    -0.126 N  
HETATM    8  H   UNL     1      -7.528  10.213  65.782  1.00  0.00     0.000 HD 
BRANCH   7   9
HETATM    9  C   UNL     1      -9.605  10.570  66.174  1.00  0.00    -0.190 A  
HETATM   10  C   UNL     1      -9.813  11.176  67.420  1.00  0.00    -0.173 A  
HETATM   11  C   UNL     1     -10.802  12.148  67.579  1.00  0.00    -0.283 A  
HETATM   12  F   UNL     1      -8.988  10.858  68.432  1.00  0.00    -0.128 F  
HETATM   13  C   UNL     1     -10.517  10.773  65.141  1.00  0.00    -0.299 A  
HETATM   14  C   UNL     1     -11.712  12.341  66.537  1.00  0.00    -0.352 A  
HETATM   15  C   UNL     1     -11.591  11.639  65.336  1.00  0.00    -0.095 A  
HETATM   16  F   UNL     1     -12.708  13.233  66.636  1.00  0.00    -0.291 F  
BRANCH  11  17
HETATM   17  C   UNL     1     -10.885  13.008  68.784  1.00  0.00    -0.244 C  
HETATM   18  O   UNL     1     -10.284  14.080  68.784  1.00  0.00    -0.231 OA 
BRANCH  17  19
HETATM   19  C   UNL     1     -11.691  12.594  69.939  1.00  0.00    -0.320 A  
HETATM   20  C   UNL     1     -12.586  13.446  70.572  1.00  0.00    -0.211 A  
HETATM   21  N   UNL     1     -13.305  12.727  71.489  1.00  0.00    -0.241 NA 
HETATM   22  C   UNL     1     -12.870  11.432  71.499  1.00  0.00    -0.403 A  
HETATM   23  H   UNL     1     -14.050  13.101  72.076  1.00  0.00     0.000 HD 
HETATM   24  N   UNL     1     -13.419  10.450  72.234  1.00  0.00    -0.253 NA 
HETATM   25  C   UNL     1     -12.797   9.251  72.068  1.00  0.00    -0.415 A  
HETATM   26  C   UNL     1     -11.661   8.994  71.294  1.00  0.00    -0.387 A  
HETATM   27  C   UNL     1     -11.130  10.092  70.594  1.00  0.00    -0.408 A  
HETATM   28  C   UNL     1     -11.787  11.338  70.633  1.00  0.00    -0.368 A  
BRANCH  26  29
HETATM   29  C   UNL     1     -11.060   7.647  71.159  1.00  0.00    -0.269 A  
HETATM   30  C   UNL     1      -9.702   7.469  70.833  1.00  0.00    -0.173 A  
HETATM   31  C   UNL     1      -9.128   6.191  70.775  1.00  0.00    -0.156 A  
HETATM   32  C   UNL     1      -9.903   5.069  71.051  1.00  0.00    -0.198 A  
HETATM   33  C   UNL     1     -11.249   5.211  71.362  1.00  0.00     0.256 A  
HETATM   34 CL   UNL     1      -9.194   3.503  71.016  1.00  0.00    -0.182 Cl 
HETATM   35  C   UNL     1     -11.821   6.486  71.404  1.00  0.00    -0.384 A  
ENDBRANCH  26  29
ENDBRANCH  17  19
ENDBRANCH  11  17
ENDBRANCH   7   9
ENDBRANCH   4   7
ENDBRANCH   3   4
ENDBRANCH   2   3
TORSDOF 7
ENDMDL
MODEL      106
REMARK 921   NORMALIZED FREE ENERGY PREDICTED BY IDOCK:   -5.40 KCAL/MOL
REMARK 922        TOTAL FREE ENERGY PREDICTED BY IDOCK:   -9.36 KCAL/MOL
REMARK 923 INTER-LIGAND FREE ENERGY PREDICTED BY IDOCK:   -7.58 KCAL/MOL
REMARK 924 INTRA-LIGAND FREE ENERGY PREDICTED BY IDOCK:   -1.78 KCAL/MOL
REMARK 927      BINDING AFFINITY PREDICTED BY RF-SCORE:    0.00 PKD
ROOT
HETATM    1  C   UNL     1     -13.481  14.146  72.483  1.00  0.00    -0.634 C  
HETATM    2  C   UNL     1     -13.278  12.892  71.648  1.00  0.00    -0.416 C  
ENDROOT
BRANCH   2   3
HETATM    3  C   UNL     1     -12.991  11.672  72.517  1.00  0.00     0.967 C  
BRANCH   3   4
HETATM    4  S   UNL     1     -13.254  10.154  71.597  1.00  0.00    -0.405 S  
HETATM    5  O   UNL     1     -13.618  10.474  70.235  1.00  0.00     0.173 OA 
HETATM    6  O   UNL     1     -14.043   9.257  72.407  1.00  0.00    -0.436 OA 
BRANCH   4   7
HETATM    7  N   UNL     1     -11.701   9.486  71.627  1.00  0.00    -0.389 N  
HETATM    8  H   UNL     1     -11.100   9.585  72.446  1.00  0.00     0.000 HD 
BRANCH   7   9
HETATM    9  C   UNL     1     -11.260   8.779  70.465  1.00  0.00    -0.247 A  
HETATM   10  C   UNL     1     -10.509   9.432  69.479  1.00  0.00    -0.218 A  
HETATM   11  C   UNL     1      -9.862   8.699  68.482  1.00  0.00    -0.183 A  
HETATM   12  F   UNL     1     -10.362  10.764  69.563  1.00  0.00    -0.230 F  
HETATM   13  C   UNL     1     -11.545   7.422  70.340  1.00  0.00    -0.210 A  
HETATM   14  C   UNL     1     -10.157   7.340  68.364  1.00  0.00    -0.171 A  
HETATM   15  C   UNL     1     -11.014   6.707  69.267  1.00  0.00    -0.346 A  
HETATM   16  F   UNL     1      -9.598   6.585  67.407  1.00  0.00    -0.122 F  
BRANCH  11  17
HETATM   17  C   UNL     1      -8.845   9.302  67.588  1.00  0.00    -0.119 C  
HETATM   18  O   UNL     1      -7.669   9.297  67.946  1.00  0.00    -0.088 OA 
BRANCH  17  19
HETATM   19  C   UNL     1      -9.236   9.867  66.290  1.00  0.00    -0.208 A  
HETATM   20  C   UNL     1      -9.391   9.090  65.150  1.00  0.00    -0.029 A  
HETATM   21  N   UNL     1      -9.925   9.866  64.157  1.00  0.00    -0.447 NA 
HETATM   22  C   UNL     1     -10.083  11.145  64.610  1.00  0.00    -0.302 A  
HETATM   23  H   UNL     1     -10.167   9.540  63.222  1.00  0.00     0.000 HD 
HETATM   24  N   UNL     1     -10.652  12.138  63.905  1.00  0.00    -0.375 NA 
HETATM   25  C   UNL     1     -10.684  13.318  64.581  1.00  0.00    -0.400 A  
HETATM   26  C   UNL     1     -10.143  13.579  65.844  1.00  0.00    -0.311 A  
HETATM   27  C   UNL     1      -9.528  12.490  66.488  1.00  0.00    -0.240 A  
HETATM   28  C   UNL     1      -9.556  11.212  65.894  1.00  0.00    -0.250 A  
BRANCH  26  29
HETATM   29  C   UNL     1     -10.241  14.897  66.511  1.00  0.00    -0.281 A  
HETATM   30  C   UNL     1      -9.639  16.050  65.971  1.00  0.00    -0.385 A  
HETATM   31  C   UNL     1      -9.796  17.305  66.574  1.00  0.00    -0.306 A  
HETATM   32  C   UNL     1     -10.566  17.430  67.726  1.00  0.00    -0.371 A  
HETATM   33  C   UNL     1     -11.161  16.310  68.291  1.00  0.00    -0.346 A  
HETATM   34 CL   UNL     1     -10.791  18.974  68.448  1.00  0.00     0.048 Cl 
HETATM   35  C   UNL     1     -10.990  15.057  67.694  1.00  0.00    -0.305 A  
ENDBRANCH  26  29
ENDBRANCH  17  19
ENDBRANCH  11  17
ENDBRANCH   7   9
ENDBRANCH   4   7
ENDBRANCH   3   4
ENDBRANCH   2   3
TORSDOF 7
ENDMDL
MODEL      107
REMARK 921   NORMALIZED FREE ENERGY PREDICTED BY IDOCK:   -5.39 KCAL/MOL
REMARK 922        TOTAL FREE ENERGY PREDICTED BY IDOCK:   -9.34 KCAL/MOL
REMARK 923 INTER-LIGAND FREE ENERGY PREDICTED BY IDOCK:   -8.25 KCAL/MOL
REMARK 924 INTRA-LIGAND FREE ENERGY PREDICTED BY IDOCK:   -1.09 KCAL/MOL
REMARK 927      BINDING AFFINITY PREDICTED BY RF-SCORE:    0.00 PKD
ROOT
HETATM    1  C   UNL     1     -11.446  15.898  68.489  1.00  0.00    -0.377 C  
HETATM    2  C   UNL     1     -10.856  14.498  68.530  1.00  0.00    -0.256 C  
ENDROOT
BRANCH   2   3
HETATM    3  C   UNL     1     -11.865  13.444  68.083  1.00  0.00    -0.361 C  
BRANCH   3   4
HETATM    4  S   UNL     1     -11.310  12.621  66.588  1.00  0.00    -0.346 S  
HETATM    5  O   UNL     1      -9.951  13.016  66.297  1.00  0.00    -0.271 OA 
HETATM    6  O   UNL     1     -12.359  12.709  65.600  1.00  0.00    -0.581 OA 
BRANCH   4   7
HETATM    7  N   UNL     1     -11.339  11.004  67.083  1.00  0.00    -0.226 N  
HETATM    8  H   UNL     1     -11.888  10.307  66.580  1.00  0.00     0.000 HD 
BRANCH   7   9
HETATM    9  C   UNL     1     -10.565  10.649  68.232  1.00  0.00    -0.194 A  
HETATM   10  C   UNL     1     -11.197  10.279  69.426  1.00  0.00    -0.239 A  
HETATM   11  C   UNL     1     -10.466   9.689  70.460  1.00  0.00    -0.367 A  
HETATM   12  F   UNL     1     -12.528  10.430  69.521  1.00  0.00    -0.255 F  
HETATM   13  C   UNL     1      -9.175  10.631  68.144  1.00  0.00    -0.148 A  
HETATM   14  C   UNL     1      -9.074   9.679  70.363  1.00  0.00    -0.191 A  
HETATM   15  C   UNL     1      -8.427  10.172  69.227  1.00  0.00    -0.167 A  
HETATM   16  F   UNL     1      -8.310   9.160  71.334  1.00  0.00    -0.206 F  
BRANCH  11  17
HETATM   17  C   UNL     1     -11.118   9.035  71.620  1.00  0.00    -0.363 C  
HETATM   18  O   UNL     1     -12.065   9.603  72.160  1.00  0.00    -0.291 OA 
BRANCH  17  19
HETATM   19  C   UNL     1     -10.656   7.724  72.092  1.00  0.00    -0.295 A  
HETATM   20  C   UNL     1     -10.526   7.416  73.440  1.00  0.00    -0.368 A  
HETATM   21  N   UNL     1     -10.249   6.081  73.561  1.00  0.00    -0.204 NA 
HETATM   22  C   UNL     1     -10.152   5.518  72.320  1.00  0.00    -0.183 A  
HETATM   23  H   UNL     1     -10.131   5.582  74.443  1.00  0.00     0.000 HD 
HETATM   24  N   UNL     1      -9.962   4.207  72.091  1.00  0.00    -0.169 NA 
HETATM   25  C   UNL     1      -9.897   3.904  70.767  1.00  0.00    -0.141 A  
HETATM   26  C   UNL     1      -9.940   4.801  69.695  1.00  0.00    -0.297 A  
HETATM   27  C   UNL     1     -10.098   6.157  70.033  1.00  0.00    -0.228 A  
HETATM   28  C   UNL     1     -10.282   6.532  71.379  1.00  0.00    -0.221 A  
BRANCH  26  29
HETATM   29  C   UNL     1      -9.879   4.376  68.278  1.00  0.00    -0.132 A  
HETATM   30  C   UNL     1     -10.479   5.128  67.250  1.00  0.00    -0.197 A  
HETATM   31  C   UNL     1     -10.356   4.754  65.906  1.00  0.00    -0.303 A  
HETATM   32  C   UNL     1      -9.623   3.622  65.564  1.00  0.00    -0.149 A  
HETATM   33  C   UNL     1      -9.031   2.850  66.556  1.00  0.00    -0.163 A  
HETATM   34 CL   UNL     1      -9.439   3.179  63.913  1.00  0.00    -0.123 Cl 
HETATM   35  C   UNL     1      -9.168   3.220  67.898  1.00  0.00    -0.242 A  
ENDBRANCH  26  29
ENDBRANCH  17  19
ENDBRANCH  11  17
ENDBRANCH   7   9
ENDBRANCH   4   7
ENDBRANCH   3   4
ENDBRANCH   2   3
TORSDOF 7
ENDMDL
MODEL      108
REMARK 921   NORMALIZED FREE ENERGY PREDICTED BY IDOCK:   -5.38 KCAL/MOL
REMARK 922        TOTAL FREE ENERGY PREDICTED BY IDOCK:   -9.34 KCAL/MOL
REMARK 923 INTER-LIGAND FREE ENERGY PREDICTED BY IDOCK:   -8.03 KCAL/MOL
REMARK 924 INTRA-LIGAND FREE ENERGY PREDICTED BY IDOCK:   -1.30 KCAL/MOL
REMARK 927      BINDING AFFINITY PREDICTED BY RF-SCORE:    0.00 PKD
ROOT
HETATM    1  C   UNL     1     -10.695  18.808  67.208  1.00  0.00    -0.490 C  
HETATM    2  C   UNL     1     -10.068  17.984  66.095  1.00  0.00    -0.334 C  
ENDROOT
BRANCH   2   3
HETATM    3  C   UNL     1     -11.117  17.205  65.307  1.00  0.00     0.168 C  
BRANCH   3   4
HETATM    4  S   UNL     1     -10.910  15.437  65.538  1.00  0.00    -0.377 S  
HETATM    5  O   UNL     1      -9.797  14.975  64.740  1.00  0.00    -0.092 OA 
HETATM    6  O   UNL     1     -12.208  14.811  65.472  1.00  0.00    -0.239 OA 
BRANCH   4   7
HETATM    7  N   UNL     1     -10.498  15.374  67.177  1.00  0.00    -0.284 N  
HETATM    8  H   UNL     1     -10.002  16.143  67.627  1.00  0.00     0.000 HD 
BRANCH   7   9
HETATM    9  C   UNL     1     -10.869  14.203  67.908  1.00  0.00    -0.245 A  
HETATM   10  C   UNL     1     -10.183  12.997  67.715  1.00  0.00    -0.228 A  
HETATM   11  C   UNL     1     -10.362  11.930  68.598  1.00  0.00    -0.218 A  
HETATM   12  F   UNL     1      -9.293  12.921  66.712  1.00  0.00    -0.215 F  
HETATM   13  C   UNL     1     -11.892  14.278  68.851  1.00  0.00    -0.372 A  
HETATM   14  C   UNL     1     -11.392  12.015  69.536  1.00  0.00    -0.228 A  
HETATM   15  C   UNL     1     -12.173  13.168  69.647  1.00  0.00    -0.241 A  
HETATM   16  F   UNL     1     -11.642  11.014  70.391  1.00  0.00    -0.340 F  
BRANCH  11  17
HETATM   17  C   UNL     1      -9.471  10.745  68.603  1.00  0.00    -0.188 C  
HETATM   18  O   UNL     1      -8.462  10.771  69.303  1.00  0.00    -0.135 OA 
BRANCH  17  19
HETATM   19  C   UNL     1      -9.807   9.558  67.806  1.00  0.00    -0.196 A  
HETATM   20  C   UNL     1      -9.879   9.582  66.420  1.00  0.00    -0.253 A  
HETATM   21  N   UNL     1     -10.037   8.301  65.965  1.00  0.00    -0.393 NA 
HETATM   22  C   UNL     1     -10.111   7.444  67.026  1.00  0.00    -0.258 A  
HETATM   23  H   UNL     1     -10.092   8.027  64.984  1.00  0.00     0.000 HD 
HETATM   24  N   UNL     1     -10.191   6.106  66.920  1.00  0.00    -0.185 NA 
HETATM   25  C   UNL     1     -10.260   5.482  68.127  1.00  0.00    -0.177 A  
HETATM   26  C   UNL     1     -10.318   6.089  69.386  1.00  0.00    -0.298 A  
HETATM   27  C   UNL     1     -10.272   7.494  69.396  1.00  0.00    -0.204 A  
HETATM   28  C   UNL     1     -10.091   8.202  68.190  1.00  0.00    -0.237 A  
BRANCH  26  29
HETATM   29  C   UNL     1     -10.374   5.324  70.653  1.00  0.00    -0.324 A  
HETATM   30  C   UNL     1     -11.180   5.732  71.732  1.00  0.00    -0.275 A  
HETATM   31  C   UNL     1     -11.278   4.964  72.900  1.00  0.00    -0.318 A  
HETATM   32  C   UNL     1     -10.576   3.768  73.006  1.00  0.00    -0.167 A  
HETATM   33  C   UNL     1      -9.761   3.345  71.964  1.00  0.00    -0.234 A  
HETATM   34 CL   UNL     1     -10.722   2.804  74.422  1.00  0.00    -0.201 Cl 
HETATM   35  C   UNL     1      -9.655   4.121  70.806  1.00  0.00    -0.260 A  
ENDBRANCH  26  29
ENDBRANCH  17  19
ENDBRANCH  11  17
ENDBRANCH   7   9
ENDBRANCH   4   7
ENDBRANCH   3   4
ENDBRANCH   2   3
TORSDOF 7
ENDMDL
MODEL      109
REMARK 921   NORMALIZED FREE ENERGY PREDICTED BY IDOCK:   -5.34 KCAL/MOL
REMARK 922        TOTAL FREE ENERGY PREDICTED BY IDOCK:   -9.28 KCAL/MOL
REMARK 923 INTER-LIGAND FREE ENERGY PREDICTED BY IDOCK:   -7.98 KCAL/MOL
REMARK 924 INTRA-LIGAND FREE ENERGY PREDICTED BY IDOCK:   -1.30 KCAL/MOL
REMARK 927      BINDING AFFINITY PREDICTED BY RF-SCORE:    0.00 PKD
ROOT
HETATM    1  C   UNL     1      -9.496   7.378  73.799  1.00  0.00    -0.328 C  
HETATM    2  C   UNL     1      -9.120   5.975  73.351  1.00  0.00    -0.131 C  
ENDROOT
BRANCH   2   3
HETATM    3  C   UNL     1     -10.219   5.333  72.511  1.00  0.00    -0.191 C  
BRANCH   3   4
HETATM    4  S   UNL     1      -9.541   4.602  71.019  1.00  0.00    -0.189 S  
HETATM    5  O   UNL     1      -9.910   3.205  70.957  1.00  0.00    -0.158 OA 
HETATM    6  O   UNL     1      -8.172   5.036  70.876  1.00  0.00    -0.103 OA 
BRANCH   4   7
HETATM    7  N   UNL     1     -10.379   5.464  69.829  1.00  0.00    -0.283 N  
HETATM    8  H   UNL     1     -10.819   4.986  69.043  1.00  0.00     0.000 HD 
BRANCH   7   9
HETATM    9  C   UNL     1     -10.447   6.885  69.966  1.00  0.00    -0.207 A  
HETATM   10  C   UNL     1      -9.463   7.701  69.393  1.00  0.00    -0.152 A  
HETATM   11  C   UNL     1      -9.654   9.082  69.298  1.00  0.00    -0.162 A  
HETATM   12  F   UNL     1      -8.373   7.119  68.868  1.00  0.00    -0.120 F  
HETATM   13  C   UNL     1     -11.525   7.459  70.636  1.00  0.00    -0.307 A  
HETATM   14  C   UNL     1     -10.737   9.647  69.976  1.00  0.00    -0.259 A  
HETATM   15  C   UNL     1     -11.652   8.848  70.666  1.00  0.00    -0.251 A  
HETATM   16  F   UNL     1     -10.960  10.968  69.956  1.00  0.00    -0.297 F  
BRANCH  11  17
HETATM   17  C   UNL     1      -8.785   9.949  68.469  1.00  0.00    -0.121 C  
HETATM   18  O   UNL     1      -7.686  10.277  68.912  1.00  0.00    -0.084 OA 
BRANCH  17  19
HETATM   19  C   UNL     1      -9.220  10.381  67.134  1.00  0.00    -0.159 A  
HETATM   20  C   UNL     1      -9.537   9.485  66.123  1.00  0.00    -0.239 A  
HETATM   21  N   UNL     1     -10.069  10.179  65.070  1.00  0.00    -0.305 NA 
HETATM   22  C   UNL     1     -10.069  11.515  65.356  1.00  0.00    -0.260 A  
HETATM   23  H   UNL     1     -10.413   9.764  64.205  1.00  0.00     0.000 HD 
HETATM   24  N   UNL     1     -10.594  12.464  64.561  1.00  0.00    -0.303 NA 
HETATM   25  C   UNL     1     -10.460  13.718  65.072  1.00  0.00    -0.402 A  
HETATM   26  C   UNL     1      -9.800  14.080  66.250  1.00  0.00    -0.318 A  
HETATM   27  C   UNL     1      -9.244  13.024  66.995  1.00  0.00    -0.232 A  
HETATM   28  C   UNL     1      -9.440  11.691  66.582  1.00  0.00    -0.213 A  
BRANCH  26  29
HETATM   29  C   UNL     1      -9.719  15.476  66.738  1.00  0.00    -0.252 A  
HETATM   30  C   UNL     1     -10.175  16.560  65.965  1.00  0.00    -0.372 A  
HETATM   31  C   UNL     1     -10.158  17.869  66.464  1.00  0.00    -0.370 A  
HETATM   32  C   UNL     1      -9.691  18.116  67.751  1.00  0.00    -0.293 A  
HETATM   33  C   UNL     1      -9.223  17.069  68.534  1.00  0.00    -0.266 A  
HETATM   34 CL   UNL     1      -9.703  19.716  68.381  1.00  0.00    -0.470 Cl 
HETATM   35  C   UNL     1      -9.228  15.766  68.027  1.00  0.00    -0.188 A  
ENDBRANCH  26  29
ENDBRANCH  17  19
ENDBRANCH  11  17
ENDBRANCH   7   9
ENDBRANCH   4   7
ENDBRANCH   3   4
ENDBRANCH   2   3
TORSDOF 7
ENDMDL
MODEL      110
REMARK 921   NORMALIZED FREE ENERGY PREDICTED BY IDOCK:   -5.31 KCAL/MOL
REMARK 922        TOTAL FREE ENERGY PREDICTED BY IDOCK:   -9.23 KCAL/MOL
REMARK 923 INTER-LIGAND FREE ENERGY PREDICTED BY IDOCK:   -7.72 KCAL/MOL
REMARK 924 INTRA-LIGAND FREE ENERGY PREDICTED BY IDOCK:   -1.51 KCAL/MOL
REMARK 927      BINDING AFFINITY PREDICTED BY RF-SCORE:    0.00 PKD
ROOT
HETATM    1  C   UNL     1      -9.657   8.221  69.458  1.00  0.00    -0.171 C  
HETATM    2  C   UNL     1      -8.992   9.457  68.874  1.00  0.00    -0.136 C  
ENDROOT
BRANCH   2   3
HETATM    3  C   UNL     1      -8.013   9.101  67.760  1.00  0.00    -0.101 C  
BRANCH   3   4
HETATM    4  S   UNL     1      -6.866  10.449  67.461  1.00  0.00    -0.076 S  
HETATM    5  O   UNL     1      -5.540   9.915  67.248  1.00  0.00    -0.045 OA 
HETATM    6  O   UNL     1      -7.122  11.492  68.425  1.00  0.00    -0.071 OA 
BRANCH   4   7
HETATM    7  N   UNL     1      -7.470  11.068  66.007  1.00  0.00    -0.322 N  
HETATM    8  H   UNL     1      -6.955  10.961  65.133  1.00  0.00     0.000 HD 
BRANCH   7   9
HETATM    9  C   UNL     1      -8.728  11.746  66.048  1.00  0.00     0.002 A  
HETATM   10  C   UNL     1      -8.802  13.079  66.472  1.00  0.00     0.004 A  
HETATM   11  C   UNL     1      -9.968  13.822  66.271  1.00  0.00    -0.312 A  
HETATM   12  F   UNL     1      -7.705  13.646  66.999  1.00  0.00    -0.150 F  
HETATM   13  C   UNL     1      -9.877  11.086  65.620  1.00  0.00    -0.287 A  
HETATM   14  C   UNL     1     -11.115  13.150  65.845  1.00  0.00    -0.278 A  
HETATM   15  C   UNL     1     -11.081  11.785  65.548  1.00  0.00    -0.336 A  
HETATM   16  F   UNL     1     -12.276  13.794  65.666  1.00  0.00    -0.358 F  
BRANCH  11  17
HETATM   17  C   UNL     1     -10.012  15.293  66.447  1.00  0.00    -0.275 C  
HETATM   18  O   UNL     1      -9.739  16.009  65.485  1.00  0.00    -0.418 OA 
BRANCH  17  19
HETATM   19  C   UNL     1     -10.400  15.878  67.737  1.00  0.00    -0.278 A  
HETATM   20  C   UNL     1     -10.293  17.236  68.007  1.00  0.00    -0.353 A  
HETATM   21  N   UNL     1     -10.889  17.493  69.211  1.00  0.00    -0.252 NA 
HETATM   22  C   UNL     1     -11.348  16.327  69.754  1.00  0.00    -0.264 A  
HETATM   23  H   UNL     1     -10.978  18.415  69.638  1.00  0.00     0.000 HD 
HETATM   24  N   UNL     1     -12.050  16.244  70.898  1.00  0.00    -0.132 NA 
HETATM   25  C   UNL     1     -12.384  14.965  71.223  1.00  0.00    -0.322 A  
HETATM   26  C   UNL     1     -12.018  13.801  70.541  1.00  0.00    -0.367 A  
HETATM   27  C   UNL     1     -11.248  13.983  69.379  1.00  0.00    -0.283 A  
HETATM   28  C   UNL     1     -10.958  15.285  68.922  1.00  0.00    -0.261 A  
BRANCH  26  29
HETATM   29  C   UNL     1     -12.445  12.446  70.962  1.00  0.00    -0.353 A  
HETATM   30  C   UNL     1     -11.866  11.284  70.419  1.00  0.00    -0.443 A  
HETATM   31  C   UNL     1     -12.228  10.009  70.874  1.00  0.00    -0.441 A  
HETATM   32  C   UNL     1     -13.171   9.875  71.888  1.00  0.00    -0.458 A  
HETATM   33  C   UNL     1     -13.770  11.003  72.435  1.00  0.00     0.380 A  
HETATM   34 CL   UNL     1     -13.591   8.315  72.475  1.00  0.00    -0.147 Cl 
HETATM   35  C   UNL     1     -13.416  12.272  71.968  1.00  0.00    -0.418 A  
ENDBRANCH  26  29
ENDBRANCH  17  19
ENDBRANCH  11  17
ENDBRANCH   7   9
ENDBRANCH   4   7
ENDBRANCH   3   4
ENDBRANCH   2   3
TORSDOF 7
ENDMDL
MODEL      111
REMARK 921   NORMALIZED FREE ENERGY PREDICTED BY IDOCK:   -5.27 KCAL/MOL
REMARK 922        TOTAL FREE ENERGY PREDICTED BY IDOCK:   -9.18 KCAL/MOL
REMARK 923 INTER-LIGAND FREE ENERGY PREDICTED BY IDOCK:   -7.88 KCAL/MOL
REMARK 924 INTRA-LIGAND FREE ENERGY PREDICTED BY IDOCK:   -1.30 KCAL/MOL
REMARK 927      BINDING AFFINITY PREDICTED BY RF-SCORE:    0.00 PKD
ROOT
HETATM    1  C   UNL     1     -10.702   5.778  72.101  1.00  0.00    -0.282 C  
HETATM    2  C   UNL     1     -10.291   5.303  70.717  1.00  0.00    -0.309 C  
ENDROOT
BRANCH   2   3
HETATM    3  C   UNL     1     -10.913   6.156  69.616  1.00  0.00    -0.389 C  
BRANCH   3   4
HETATM    4  S   UNL     1     -10.287   5.677  68.003  1.00  0.00    -0.192 S  
HETATM    5  O   UNL     1     -11.251   6.037  66.987  1.00  0.00    -0.238 OA 
HETATM    6  O   UNL     1      -9.742   4.344  68.100  1.00  0.00    -0.159 OA 
BRANCH   4   7
HETATM    7  N   UNL     1      -8.929   6.676  67.877  1.00  0.00    -0.114 N  
HETATM    8  H   UNL     1      -8.023   6.385  68.244  1.00  0.00     0.000 HD 
BRANCH   7   9
HETATM    9  C   UNL     1      -9.096   7.944  67.237  1.00  0.00    -0.135 A  
HETATM   10  C   UNL     1      -9.214   9.113  67.999  1.00  0.00    -0.134 A  
HETATM   11  C   UNL     1      -9.117  10.367  67.391  1.00  0.00    -0.144 A  
HETATM   12  F   UNL     1      -9.341   9.001  69.331  1.00  0.00    -0.148 F  
HETATM   13  C   UNL     1      -9.095   8.015  65.846  1.00  0.00    -0.159 A  
HETATM   14  C   UNL     1      -9.121  10.427  65.996  1.00  0.00    -0.162 A  
HETATM   15  C   UNL     1      -9.139   9.263  65.225  1.00  0.00    -0.271 A  
HETATM   16  F   UNL     1      -9.066  11.599  65.347  1.00  0.00    -0.207 F  
BRANCH  11  17
HETATM   17  C   UNL     1      -8.962  11.618  68.171  1.00  0.00    -0.182 C  
HETATM   18  O   UNL     1      -7.829  11.984  68.476  1.00  0.00    -0.134 OA 
BRANCH  17  19
HETATM   19  C   UNL     1     -10.139  12.413  68.546  1.00  0.00    -0.190 A  
HETATM   20  C   UNL     1     -11.291  11.843  69.072  1.00  0.00    -0.279 A  
HETATM   21  N   UNL     1     -12.131  12.845  69.479  1.00  0.00    -0.258 NA 
HETATM   22  C   UNL     1     -11.570  14.057  69.192  1.00  0.00    -0.313 A  
HETATM   23  H   UNL     1     -13.036  12.707  69.927  1.00  0.00     0.000 HD 
HETATM   24  N   UNL     1     -12.106  15.243  69.532  1.00  0.00    -0.311 NA 
HETATM   25  C   UNL     1     -11.353  16.301  69.124  1.00  0.00    -0.291 A  
HETATM   26  C   UNL     1     -10.177  16.255  68.369  1.00  0.00    -0.249 A  
HETATM   27  C   UNL     1      -9.715  14.972  68.024  1.00  0.00    -0.213 A  
HETATM   28  C   UNL     1     -10.385  13.829  68.504  1.00  0.00    -0.244 A  
BRANCH  26  29
HETATM   29  C   UNL     1      -9.412  17.464  67.986  1.00  0.00    -0.281 A  
HETATM   30  C   UNL     1      -9.785  18.748  68.426  1.00  0.00    -0.421 A  
HETATM   31  C   UNL     1      -9.015  19.877  68.114  1.00  0.00    -0.330 A  
HETATM   32  C   UNL     1      -7.852  19.739  67.363  1.00  0.00    -0.276 A  
HETATM   33  C   UNL     1      -7.465  18.487  66.902  1.00  0.00    -0.233 A  
HETATM   34 CL   UNL     1      -6.886  21.116  67.009  1.00  0.00    -0.398 Cl 
HETATM   35  C   UNL     1      -8.244  17.365  67.204  1.00  0.00    -0.229 A  
ENDBRANCH  26  29
ENDBRANCH  17  19
ENDBRANCH  11  17
ENDBRANCH   7   9
ENDBRANCH   4   7
ENDBRANCH   3   4
ENDBRANCH   2   3
TORSDOF 7
ENDMDL
MODEL      112
REMARK 921   NORMALIZED FREE ENERGY PREDICTED BY IDOCK:   -5.24 KCAL/MOL
REMARK 922        TOTAL FREE ENERGY PREDICTED BY IDOCK:   -9.13 KCAL/MOL
REMARK 923 INTER-LIGAND FREE ENERGY PREDICTED BY IDOCK:   -7.39 KCAL/MOL
REMARK 924 INTRA-LIGAND FREE ENERGY PREDICTED BY IDOCK:   -1.74 KCAL/MOL
REMARK 927      BINDING AFFINITY PREDICTED BY RF-SCORE:    0.00 PKD
ROOT
HETATM    1  C   UNL     1      -9.377  19.995  67.262  1.00  0.00    -0.496 C  
HETATM    2  C   UNL     1      -8.013  19.325  67.278  1.00  0.00    -0.285 C  
ENDROOT
BRANCH   2   3
HETATM    3  C   UNL     1      -7.864  18.371  68.459  1.00  0.00    -0.306 C  
BRANCH   3   4
HETATM    4  S   UNL     1      -7.880  16.662  67.909  1.00  0.00    -0.170 S  
HETATM    5  O   UNL     1      -7.189  15.839  68.875  1.00  0.00    -0.127 OA 
HETATM    6  O   UNL     1      -7.551  16.630  66.504  1.00  0.00    -0.253 OA 
BRANCH   4   7
HETATM    7  N   UNL     1      -9.537  16.326  67.957  1.00  0.00    -0.223 N  
HETATM    8  H   UNL     1     -10.081  16.473  68.807  1.00  0.00     0.000 HD 
BRANCH   7   9
HETATM    9  C   UNL     1     -10.146  15.827  66.764  1.00  0.00    -0.271 A  
HETATM   10  C   UNL     1     -10.276  14.447  66.556  1.00  0.00    -0.274 A  
HETATM   11  C   UNL     1     -11.090  13.959  65.532  1.00  0.00    -0.304 A  
HETATM   12  F   UNL     1      -9.665  13.611  67.411  1.00  0.00    -0.212 F  
HETATM   13  C   UNL     1     -10.653  16.723  65.826  1.00  0.00    -0.259 A  
HETATM   14  C   UNL     1     -11.590  14.866  64.596  1.00  0.00    -0.395 A  
HETATM   15  C   UNL     1     -11.352  16.236  64.722  1.00  0.00    -0.214 A  
HETATM   16  F   UNL     1     -12.350  14.461  63.568  1.00  0.00    -0.416 F  
BRANCH  11  17
HETATM   17  C   UNL     1     -11.478  12.531  65.439  1.00  0.00    -0.344 C  
HETATM   18  O   UNL     1     -12.552  12.180  65.920  1.00  0.00    -0.268 OA 
BRANCH  17  19
HETATM   19  C   UNL     1     -10.603  11.566  64.760  1.00  0.00    -0.362 A  
HETATM   20  C   UNL     1     -10.539  11.457  63.377  1.00  0.00    -0.368 A  
HETATM   21  N   UNL     1      -9.519  10.604  63.050  1.00  0.00    -0.307 NA 
HETATM   22  C   UNL     1      -8.942  10.121  64.190  1.00  0.00    -0.238 A  
HETATM   23  H   UNL     1      -9.234  10.366  62.100  1.00  0.00     0.000 HD 
HETATM   24  N   UNL     1      -7.864   9.318  64.216  1.00  0.00    -0.118 NA 
HETATM   25  C   UNL     1      -7.491   8.973  65.479  1.00  0.00    -0.086 A  
HETATM   26  C   UNL     1      -8.140   9.312  66.670  1.00  0.00    -0.108 A  
HETATM   27  C   UNL     1      -9.284  10.119  66.541  1.00  0.00    -0.182 A  
HETATM   28  C   UNL     1      -9.666  10.604  65.273  1.00  0.00    -0.315 A  
BRANCH  26  29
HETATM   29  C   UNL     1      -7.648   8.904  68.006  1.00  0.00    -0.093 A  
HETATM   30  C   UNL     1      -8.487   8.896  69.136  1.00  0.00    -0.132 A  
HETATM   31  C   UNL     1      -8.030   8.443  70.380  1.00  0.00    -0.099 A  
HETATM   32  C   UNL     1      -6.725   7.980  70.514  1.00  0.00    -0.037 A  
HETATM   33  C   UNL     1      -5.868   7.988  69.421  1.00  0.00    -0.030 A  
HETATM   34 CL   UNL     1      -6.171   7.389  72.031  1.00  0.00    -0.040 Cl 
HETATM   35  C   UNL     1      -6.324   8.455  68.184  1.00  0.00    -0.056 A  
ENDBRANCH  26  29
ENDBRANCH  17  19
ENDBRANCH  11  17
ENDBRANCH   7   9
ENDBRANCH   4   7
ENDBRANCH   3   4
ENDBRANCH   2   3
TORSDOF 7
ENDMDL
MODEL      113
REMARK 921   NORMALIZED FREE ENERGY PREDICTED BY IDOCK:   -5.24 KCAL/MOL
REMARK 922        TOTAL FREE ENERGY PREDICTED BY IDOCK:   -9.13 KCAL/MOL
REMARK 923 INTER-LIGAND FREE ENERGY PREDICTED BY IDOCK:   -7.35 KCAL/MOL
REMARK 924 INTRA-LIGAND FREE ENERGY PREDICTED BY IDOCK:   -1.78 KCAL/MOL
REMARK 927      BINDING AFFINITY PREDICTED BY RF-SCORE:    0.00 PKD
ROOT
HETATM    1  C   UNL     1      -6.657  14.469  69.537  1.00  0.00    -0.143 C  
HETATM    2  C   UNL     1      -7.119  13.077  69.136  1.00  0.00     0.030 C  
ENDROOT
BRANCH   2   3
HETATM    3  C   UNL     1      -7.317  12.958  67.628  1.00  0.00    -0.145 C  
BRANCH   3   4
HETATM    4  S   UNL     1      -6.480  11.506  66.985  1.00  0.00    -0.139 S  
HETATM    5  O   UNL     1      -6.262  10.561  68.057  1.00  0.00    -0.054 OA 
HETATM    6  O   UNL     1      -5.409  11.939  66.120  1.00  0.00    -0.259 OA 
BRANCH   4   7
HETATM    7  N   UNL     1      -7.654  10.902  65.926  1.00  0.00    -0.302 N  
HETATM    8  H   UNL     1      -7.409  10.243  65.187  1.00  0.00     0.000 HD 
BRANCH   7   9
HETATM    9  C   UNL     1      -9.000  11.350  66.104  1.00  0.00    -0.201 A  
HETATM   10  C   UNL     1      -9.701  11.041  67.276  1.00  0.00    -0.166 A  
HETATM   11  C   UNL     1     -10.907  11.682  67.571  1.00  0.00    -0.287 A  
HETATM   12  F   UNL     1      -9.150  10.176  68.144  1.00  0.00    -0.125 F  
HETATM   13  C   UNL     1      -9.596  12.137  65.123  1.00  0.00    -0.051 A  
HETATM   14  C   UNL     1     -11.497  12.466  66.578  1.00  0.00    -0.371 A  
HETATM   15  C   UNL     1     -10.864  12.672  65.350  1.00  0.00    -0.318 A  
HETATM   16  F   UNL     1     -12.670  13.082  66.780  1.00  0.00    -0.179 F  
BRANCH  11  17
HETATM   17  C   UNL     1     -11.546  11.599  68.906  1.00  0.00    -0.314 C  
HETATM   18  O   UNL     1     -11.790  10.488  69.372  1.00  0.00    -0.261 OA 
BRANCH  17  19
HETATM   19  C   UNL     1     -11.853  12.820  69.661  1.00  0.00    -0.384 A  
HETATM   20  C   UNL     1     -12.743  12.837  70.727  1.00  0.00    -0.136 A  
HETATM   21  N   UNL     1     -12.684  14.065  71.329  1.00  0.00    -0.346 NA 
HETATM   22  C   UNL     1     -11.806  14.864  70.655  1.00  0.00    -0.301 A  
HETATM   23  H   UNL     1     -13.215  14.341  72.155  1.00  0.00     0.000 HD 
HETATM   24  N   UNL     1     -11.462  16.108  71.034  1.00  0.00    -0.413 NA 
HETATM   25  C   UNL     1     -10.573  16.694  70.188  1.00  0.00    -0.018 A  
HETATM   26  C   UNL     1     -10.073  16.164  68.994  1.00  0.00    -0.247 A  
HETATM   27  C   UNL     1     -10.521  14.874  68.657  1.00  0.00    -0.242 A  
HETATM   28  C   UNL     1     -11.357  14.165  69.542  1.00  0.00    -0.308 A  
BRANCH  26  29
HETATM   29  C   UNL     1      -9.089  16.871  68.142  1.00  0.00    -0.231 A  
HETATM   30  C   UNL     1      -8.895  16.527  66.791  1.00  0.00    -0.255 A  
HETATM   31  C   UNL     1      -8.012  17.248  65.976  1.00  0.00    -0.196 A  
HETATM   32  C   UNL     1      -7.313  18.332  66.497  1.00  0.00    -0.233 A  
HETATM   33  C   UNL     1      -7.473  18.687  67.830  1.00  0.00    -0.241 A  
HETATM   34 CL   UNL     1      -6.256  19.241  65.490  1.00  0.00    -0.243 Cl 
HETATM   35  C   UNL     1      -8.344  17.957  68.644  1.00  0.00    -0.276 A  
ENDBRANCH  26  29
ENDBRANCH  17  19
ENDBRANCH  11  17
ENDBRANCH   7   9
ENDBRANCH   4   7
ENDBRANCH   3   4
ENDBRANCH   2   3
TORSDOF 7
ENDMDL
MODEL      114
REMARK 921   NORMALIZED FREE ENERGY PREDICTED BY IDOCK:   -5.22 KCAL/MOL
REMARK 922        TOTAL FREE ENERGY PREDICTED BY IDOCK:   -9.11 KCAL/MOL
REMARK 923 INTER-LIGAND FREE ENERGY PREDICTED BY IDOCK:   -7.63 KCAL/MOL
REMARK 924 INTRA-LIGAND FREE ENERGY PREDICTED BY IDOCK:   -1.49 KCAL/MOL
REMARK 927      BINDING AFFINITY PREDICTED BY RF-SCORE:    0.00 PKD
ROOT
HETATM    1  C   UNL     1     -12.033  15.245  69.552  1.00  0.00    -0.356 C  
HETATM    2  C   UNL     1     -11.874  14.075  68.595  1.00  0.00    -0.396 C  
ENDROOT
BRANCH   2   3
HETATM    3  C   UNL     1     -11.646  14.543  67.161  1.00  0.00    -0.388 C  
BRANCH   3   4
HETATM    4  S   UNL     1     -12.098  13.260  65.989  1.00  0.00    -0.432 S  
HETATM    5  O   UNL     1     -13.137  13.752  65.113  1.00  0.00    -0.762 OA 
HETATM    6  O   UNL     1     -12.229  12.013  66.703  1.00  0.00    -0.550 OA 
BRANCH   4   7
HETATM    7  N   UNL     1     -10.655  13.095  65.123  1.00  0.00    -0.307 N  
HETATM    8  H   UNL     1     -10.455  13.682  64.313  1.00  0.00     0.000 HD 
BRANCH   7   9
HETATM    9  C   UNL     1      -9.726  12.102  65.566  1.00  0.00    -0.181 A  
HETATM   10  C   UNL     1      -9.457  10.978  64.775  1.00  0.00    -0.230 A  
HETATM   11  C   UNL     1      -8.375  10.146  65.072  1.00  0.00    -0.158 A  
HETATM   12  F   UNL     1     -10.211  10.766  63.685  1.00  0.00    -0.347 F  
HETATM   13  C   UNL     1      -9.053  12.283  66.772  1.00  0.00    -0.211 A  
HETATM   14  C   UNL     1      -7.710  10.334  66.285  1.00  0.00    -0.116 A  
HETATM   15  C   UNL     1      -8.062  11.376  67.146  1.00  0.00    -0.155 A  
HETATM   16  F   UNL     1      -6.685   9.550  66.649  1.00  0.00    -0.068 F  
BRANCH  11  17
HETATM   17  C   UNL     1      -7.884   9.115  64.127  1.00  0.00    -0.128 C  
HETATM   18  O   UNL     1      -7.129   9.459  63.221  1.00  0.00    -0.093 OA 
BRANCH  17  19
HETATM   19  C   UNL     1      -8.273   7.708  64.292  1.00  0.00    -0.009 A  
HETATM   20  C   UNL     1      -8.129   6.768  63.282  1.00  0.00    -0.013 A  
HETATM   21  N   UNL     1      -8.411   5.528  63.790  1.00  0.00    -0.290 NA 
HETATM   22  C   UNL     1      -8.777   5.644  65.101  1.00  0.00    -0.093 A  
HETATM   23  H   UNL     1      -8.357   4.653  63.270  1.00  0.00     0.000 HD 
HETATM   24  N   UNL     1      -9.044   4.605  65.912  1.00  0.00    -0.129 NA 
HETATM   25  C   UNL     1      -9.390   4.989  67.170  1.00  0.00    -0.125 A  
HETATM   26  C   UNL     1      -9.545   6.298  67.637  1.00  0.00    -0.118 A  
HETATM   27  C   UNL     1      -9.285   7.319  66.707  1.00  0.00    -0.187 A  
HETATM   28  C   UNL     1      -8.817   6.996  65.417  1.00  0.00     0.088 A  
BRANCH  26  29
HETATM   29  C   UNL     1      -9.909   6.622  69.036  1.00  0.00    -0.149 A  
HETATM   30  C   UNL     1     -10.756   5.791  69.794  1.00  0.00    -0.418 A  
HETATM   31  C   UNL     1     -11.037   6.070  71.138  1.00  0.00    -0.336 A  
HETATM   32  C   UNL     1     -10.470   7.183  71.750  1.00  0.00    -0.197 A  
HETATM   33  C   UNL     1      -9.642   8.030  71.025  1.00  0.00    -0.184 A  
HETATM   34 CL   UNL     1     -10.784   7.509  73.409  1.00  0.00    -0.433 Cl 
HETATM   35  C   UNL     1      -9.374   7.755  69.680  1.00  0.00    -0.153 A  
ENDBRANCH  26  29
ENDBRANCH  17  19
ENDBRANCH  11  17
ENDBRANCH   7   9
ENDBRANCH   4   7
ENDBRANCH   3   4
ENDBRANCH   2   3
TORSDOF 7
ENDMDL
MODEL      115
REMARK 921   NORMALIZED FREE ENERGY PREDICTED BY IDOCK:   -5.22 KCAL/MOL
REMARK 922        TOTAL FREE ENERGY PREDICTED BY IDOCK:   -9.11 KCAL/MOL
REMARK 923 INTER-LIGAND FREE ENERGY PREDICTED BY IDOCK:   -7.52 KCAL/MOL
REMARK 924 INTRA-LIGAND FREE ENERGY PREDICTED BY IDOCK:   -1.59 KCAL/MOL
REMARK 927      BINDING AFFINITY PREDICTED BY RF-SCORE:    0.00 PKD
ROOT
HETATM    1  C   UNL     1      -9.677   3.814  70.458  1.00  0.00    -0.230 C  
HETATM    2  C   UNL     1      -9.724   4.989  69.494  1.00  0.00    -0.259 C  
ENDROOT
BRANCH   2   3
HETATM    3  C   UNL     1     -10.669   6.083  69.981  1.00  0.00    -0.311 C  
BRANCH   3   4
HETATM    4  S   UNL     1      -9.805   7.255  71.031  1.00  0.00    -0.182 S  
HETATM    5  O   UNL     1      -9.732   6.732  72.377  1.00  0.00    -0.155 OA 
HETATM    6  O   UNL     1     -10.308   8.578  70.753  1.00  0.00    -0.190 OA 
BRANCH   4   7
HETATM    7  N   UNL     1      -8.265   7.238  70.331  1.00  0.00    -0.123 N  
HETATM    8  H   UNL     1      -7.734   6.372  70.244  1.00  0.00     0.000 HD 
BRANCH   7   9
HETATM    9  C   UNL     1      -7.735   8.482  69.867  1.00  0.00    -0.091 A  
HETATM   10  C   UNL     1      -8.061   8.962  68.592  1.00  0.00    -0.111 A  
HETATM   11  C   UNL     1      -7.764  10.278  68.233  1.00  0.00    -0.092 A  
HETATM   12  F   UNL     1      -8.734   8.153  67.756  1.00  0.00    -0.127 F  
HETATM   13  C   UNL     1      -6.926   9.240  70.711  1.00  0.00    -0.110 A  
HETATM   14  C   UNL     1      -6.950  11.028  69.084  1.00  0.00    -0.104 A  
HETATM   15  C   UNL     1      -6.507  10.506  70.302  1.00  0.00    -0.140 A  
HETATM   16  F   UNL     1      -6.597  12.286  68.785  1.00  0.00    -0.063 F  
BRANCH  11  17
HETATM   17  C   UNL     1      -8.321  10.914  67.016  1.00  0.00    -0.132 C  
HETATM   18  O   UNL     1      -7.660  10.884  65.980  1.00  0.00    -0.148 OA 
BRANCH  17  19
HETATM   19  C   UNL     1      -9.648  11.542  67.045  1.00  0.00    -0.199 A  
HETATM   20  C   UNL     1     -10.826  10.806  67.065  1.00  0.00    -0.252 A  
HETATM   21  N   UNL     1     -11.876  11.661  67.266  1.00  0.00    -0.626 NA 
HETATM   22  C   UNL     1     -11.415  12.945  67.337  1.00  0.00    -0.336 A  
HETATM   23  H   UNL     1     -12.853  11.382  67.350  1.00  0.00     0.000 HD 
HETATM   24  N   UNL     1     -12.182  14.016  67.604  1.00  0.00    -0.294 NA 
HETATM   25  C   UNL     1     -11.481  15.182  67.612  1.00  0.00    -0.309 A  
HETATM   26  C   UNL     1     -10.125  15.350  67.316  1.00  0.00    -0.238 A  
HETATM   27  C   UNL     1      -9.411  14.178  67.007  1.00  0.00    -0.256 A  
HETATM   28  C   UNL     1     -10.049  12.923  67.086  1.00  0.00    -0.243 A  
BRANCH  26  29
HETATM   29  C   UNL     1      -9.440  16.662  67.368  1.00  0.00    -0.232 A  
HETATM   30  C   UNL     1      -8.349  16.963  66.532  1.00  0.00    -0.315 A  
HETATM   31  C   UNL     1      -7.753  18.232  66.540  1.00  0.00    -0.279 A  
HETATM   32  C   UNL     1      -8.244  19.224  67.382  1.00  0.00    -0.282 A  
HETATM   33  C   UNL     1      -9.310  18.954  68.229  1.00  0.00    -0.384 A  
HETATM   34 CL   UNL     1      -7.539  20.792  67.369  1.00  0.00    -0.385 Cl 
HETATM   35  C   UNL     1      -9.893  17.683  68.228  1.00  0.00    -0.324 A  
ENDBRANCH  26  29
ENDBRANCH  17  19
ENDBRANCH  11  17
ENDBRANCH   7   9
ENDBRANCH   4   7
ENDBRANCH   3   4
ENDBRANCH   2   3
TORSDOF 7
ENDMDL
MODEL      116
REMARK 921   NORMALIZED FREE ENERGY PREDICTED BY IDOCK:   -5.20 KCAL/MOL
REMARK 922        TOTAL FREE ENERGY PREDICTED BY IDOCK:   -9.08 KCAL/MOL
REMARK 923 INTER-LIGAND FREE ENERGY PREDICTED BY IDOCK:   -7.65 KCAL/MOL
REMARK 924 INTRA-LIGAND FREE ENERGY PREDICTED BY IDOCK:   -1.43 KCAL/MOL
REMARK 927      BINDING AFFINITY PREDICTED BY RF-SCORE:    0.00 PKD
ROOT
HETATM    1  C   UNL     1     -12.366  12.183  63.783  1.00  0.00    -0.635 C  
HETATM    2  C   UNL     1     -11.275  11.287  63.217  1.00  0.00    -0.015 C  
ENDROOT
BRANCH   2   3
HETATM    3  C   UNL     1      -9.883  11.786  63.589  1.00  0.00    -0.335 C  
BRANCH   3   4
HETATM    4  S   UNL     1      -9.310  11.016  65.106  1.00  0.00    -0.213 S  
HETATM    5  O   UNL     1      -8.160  10.187  64.820  1.00  0.00    -0.146 OA 
HETATM    6  O   UNL     1     -10.455  10.511  65.824  1.00  0.00    -0.223 OA 
BRANCH   4   7
HETATM    7  N   UNL     1      -8.826  12.373  65.992  1.00  0.00    -0.410 N  
HETATM    8  H   UNL     1      -7.839  12.600  66.114  1.00  0.00     0.000 HD 
BRANCH   7   9
HETATM    9  C   UNL     1      -9.851  13.190  66.563  1.00  0.00    -0.265 A  
HETATM   10  C   UNL     1     -10.098  13.158  67.942  1.00  0.00    -0.232 A  
HETATM   11  C   UNL     1     -10.906  14.128  68.539  1.00  0.00    -0.264 A  
HETATM   12  F   UNL     1      -9.478  12.225  68.682  1.00  0.00    -0.193 F  
HETATM   13  C   UNL     1     -10.573  14.056  65.746  1.00  0.00    -0.303 A  
HETATM   14  C   UNL     1     -11.629  14.988  67.710  1.00  0.00    -0.319 A  
HETATM   15  C   UNL     1     -11.489  14.936  66.321  1.00  0.00    -0.269 A  
HETATM   16  F   UNL     1     -12.450  15.919  68.215  1.00  0.00     0.053 F  
BRANCH  11  17
HETATM   17  C   UNL     1     -10.981  14.304  70.009  1.00  0.00     0.060 C  
HETATM   18  O   UNL     1     -10.265  15.151  70.537  1.00  0.00    -0.075 OA 
BRANCH  17  19
HETATM   19  C   UNL     1     -11.913  13.498  70.809  1.00  0.00    -0.255 A  
HETATM   20  C   UNL     1     -12.872  14.064  71.638  1.00  0.00    -0.352 A  
HETATM   21  N   UNL     1     -13.690  13.072  72.106  1.00  0.00    -0.501 NA 
HETATM   22  C   UNL     1     -13.261  11.864  71.634  1.00  0.00    -0.262 A  
HETATM   23  H   UNL     1     -14.496  13.212  72.714  1.00  0.00     0.000 HD 
HETATM   24  N   UNL     1     -13.892  10.696  71.847  1.00  0.00     0.079 NA 
HETATM   25  C   UNL     1     -13.257   9.638  71.274  1.00  0.00    -0.355 A  
HETATM   26  C   UNL     1     -12.042   9.660  70.583  1.00  0.00    -0.269 A  
HETATM   27  C   UNL     1     -11.433  10.920  70.446  1.00  0.00    -0.367 A  
HETATM   28  C   UNL     1     -12.089  12.075  70.920  1.00  0.00    -0.203 A  
BRANCH  26  29
HETATM   29  C   UNL     1     -11.433   8.455  69.974  1.00  0.00     0.090 A  
HETATM   30  C   UNL     1     -10.457   8.546  68.963  1.00  0.00    -0.216 A  
HETATM   31  C   UNL     1      -9.837   7.402  68.444  1.00  0.00    -0.165 A  
HETATM   32  C   UNL     1     -10.177   6.145  68.933  1.00  0.00    -0.188 A  
HETATM   33  C   UNL     1     -11.146   6.021  69.920  1.00  0.00    -0.469 A  
HETATM   34 CL   UNL     1      -9.393   4.741  68.324  1.00  0.00    -0.163 Cl 
HETATM   35  C   UNL     1     -11.772   7.164  70.426  1.00  0.00    -0.273 A  
ENDBRANCH  26  29
ENDBRANCH  17  19
ENDBRANCH  11  17
ENDBRANCH   7   9
ENDBRANCH   4   7
ENDBRANCH   3   4
ENDBRANCH   2   3
TORSDOF 7
ENDMDL
MODEL      117
REMARK 921   NORMALIZED FREE ENERGY PREDICTED BY IDOCK:   -5.17 KCAL/MOL
REMARK 922        TOTAL FREE ENERGY PREDICTED BY IDOCK:   -9.04 KCAL/MOL
REMARK 923 INTER-LIGAND FREE ENERGY PREDICTED BY IDOCK:   -7.44 KCAL/MOL
REMARK 924 INTRA-LIGAND FREE ENERGY PREDICTED BY IDOCK:   -1.59 KCAL/MOL
REMARK 927      BINDING AFFINITY PREDICTED BY RF-SCORE:    0.00 PKD
ROOT
HETATM    1  C   UNL     1      -9.472   2.516  64.541  1.00  0.00    -0.132 C  
HETATM    2  C   UNL     1      -9.742   3.983  64.831  1.00  0.00    -0.193 C  
ENDROOT
BRANCH   2   3
HETATM    3  C   UNL     1      -8.474   4.723  65.243  1.00  0.00    -0.132 C  
BRANCH   3   4
HETATM    4  S   UNL     1      -8.789   5.808  66.637  1.00  0.00    -0.124 S  
HETATM    5  O   UNL     1      -7.589   6.550  66.950  1.00  0.00    -0.092 OA 
HETATM    6  O   UNL     1      -9.512   5.066  67.642  1.00  0.00    -0.122 OA 
BRANCH   4   7
HETATM    7  N   UNL     1      -9.945   6.851  65.977  1.00  0.00    -0.336 N  
HETATM    8  H   UNL     1     -10.771   6.490  65.499  1.00  0.00     0.000 HD 
BRANCH   7   9
HETATM    9  C   UNL     1      -9.723   8.257  66.111  1.00  0.00    -0.119 A  
HETATM   10  C   UNL     1      -9.989   8.905  67.325  1.00  0.00    -0.216 A  
HETATM   11  C   UNL     1      -9.537  10.208  67.546  1.00  0.00    -0.180 A  
HETATM   12  F   UNL     1     -10.615   8.218  68.294  1.00  0.00    -0.234 F  
HETATM   13  C   UNL     1      -9.196   8.974  65.040  1.00  0.00    -0.116 A  
HETATM   14  C   UNL     1      -9.014  10.918  66.464  1.00  0.00    -0.168 A  
HETATM   15  C   UNL     1      -8.869  10.319  65.211  1.00  0.00    -0.200 A  
HETATM   16  F   UNL     1      -8.594  12.184  66.597  1.00  0.00    -0.184 F  
BRANCH  11  17
HETATM   17  C   UNL     1      -9.550  10.835  68.889  1.00  0.00    -0.195 C  
HETATM   18  O   UNL     1      -8.600  10.631  69.642  1.00  0.00    -0.052 OA 
BRANCH  17  19
HETATM   19  C   UNL     1     -10.663  11.703  69.295  1.00  0.00    -0.144 A  
HETATM   20  C   UNL     1     -11.723  11.250  70.068  1.00  0.00    -0.346 A  
HETATM   21  N   UNL     1     -12.498  12.320  70.423  1.00  0.00    -0.198 NA 
HETATM   22  C   UNL     1     -11.991  13.459  69.863  1.00  0.00    -0.338 A  
HETATM   23  H   UNL     1     -13.328  12.276  71.014  1.00  0.00     0.000 HD 
HETATM   24  N   UNL     1     -12.477  14.694  70.078  1.00  0.00    -0.313 NA 
HETATM   25  C   UNL     1     -11.796  15.657  69.398  1.00  0.00    -0.375 A  
HETATM   26  C   UNL     1     -10.743  15.466  68.498  1.00  0.00    -0.256 A  
HETATM   27  C   UNL     1     -10.331  14.135  68.304  1.00  0.00    -0.245 A  
HETATM   28  C   UNL     1     -10.918  13.098  69.058  1.00  0.00    -0.241 A  
BRANCH  26  29
HETATM   29  C   UNL     1     -10.048  16.581  67.815  1.00  0.00    -0.264 A  
HETATM   30  C   UNL     1     -10.455  17.919  67.976  1.00  0.00    -0.390 A  
HETATM   31  C   UNL     1      -9.748  18.972  67.381  1.00  0.00    -0.371 A  
HETATM   32  C   UNL     1      -8.615  18.705  66.618  1.00  0.00    -0.297 A  
HETATM   33  C   UNL     1      -8.197  17.394  66.429  1.00  0.00    -0.306 A  
HETATM   34 CL   UNL     1      -7.724  19.997  65.916  1.00  0.00    -0.331 Cl 
HETATM   35  C   UNL     1      -8.913  16.345  67.014  1.00  0.00    -0.232 A  
ENDBRANCH  26  29
ENDBRANCH  17  19
ENDBRANCH  11  17
ENDBRANCH   7   9
ENDBRANCH   4   7
ENDBRANCH   3   4
ENDBRANCH   2   3
TORSDOF 7
ENDMDL
MODEL      118
REMARK 921   NORMALIZED FREE ENERGY PREDICTED BY IDOCK:   -5.13 KCAL/MOL
REMARK 922        TOTAL FREE ENERGY PREDICTED BY IDOCK:   -8.98 KCAL/MOL
REMARK 923 INTER-LIGAND FREE ENERGY PREDICTED BY IDOCK:   -8.11 KCAL/MOL
REMARK 924 INTRA-LIGAND FREE ENERGY PREDICTED BY IDOCK:   -0.88 KCAL/MOL
REMARK 927      BINDING AFFINITY PREDICTED BY RF-SCORE:    0.00 PKD
ROOT
HETATM    1  C   UNL     1      -9.596  19.010  68.338  1.00  0.00    -0.429 C  
HETATM    2  C   UNL     1     -10.706  18.092  67.851  1.00  0.00    -0.331 C  
ENDROOT
BRANCH   2   3
HETATM    3  C   UNL     1     -10.313  17.355  66.574  1.00  0.00    -0.312 C  
BRANCH   3   4
HETATM    4  S   UNL     1     -10.084  15.603  66.890  1.00  0.00    -0.270 S  
HETATM    5  O   UNL     1      -9.305  15.430  68.095  1.00  0.00    -0.194 OA 
HETATM    6  O   UNL     1      -9.727  14.956  65.651  1.00  0.00    -0.335 OA 
BRANCH   4   7
HETATM    7  N   UNL     1     -11.679  15.117  67.171  1.00  0.00    -0.213 N  
HETATM    8  H   UNL     1     -12.418  15.316  66.497  1.00  0.00     0.000 HD 
BRANCH   7   9
HETATM    9  C   UNL     1     -11.954  14.416  68.387  1.00  0.00    -0.293 A  
HETATM   10  C   UNL     1     -11.695  13.043  68.489  1.00  0.00    -0.342 A  
HETATM   11  C   UNL     1     -11.714  12.410  69.734  1.00  0.00    -0.361 A  
HETATM   12  F   UNL     1     -11.350  12.372  67.378  1.00  0.00    -0.282 F  
HETATM   13  C   UNL     1     -12.441  15.117  69.487  1.00  0.00    -0.120 A  
HETATM   14  C   UNL     1     -12.207  13.122  70.829  1.00  0.00    -0.290 A  
HETATM   15  C   UNL     1     -12.596  14.457  70.706  1.00  0.00    -0.426 A  
HETATM   16  F   UNL     1     -12.286  12.564  72.046  1.00  0.00    -0.076 F  
BRANCH  11  17
HETATM   17  C   UNL     1     -11.187  11.040  69.935  1.00  0.00    -0.252 C  
HETATM   18  O   UNL     1     -10.042  10.789  69.564  1.00  0.00    -0.189 OA 
BRANCH  17  19
HETATM   19  C   UNL     1     -12.009  10.014  70.590  1.00  0.00    -0.401 A  
HETATM   20  C   UNL     1     -13.396  10.078  70.629  1.00  0.00    -0.039 A  
HETATM   21  N   UNL     1     -13.876   8.906  71.147  1.00  0.00    -0.588 NA 
HETATM   22  C   UNL     1     -12.832   8.093  71.486  1.00  0.00    -0.301 A  
HETATM   23  H   UNL     1     -14.863   8.674  71.262  1.00  0.00     0.000 HD 
HETATM   24  N   UNL     1     -12.964   6.839  71.952  1.00  0.00    -0.269 NA 
HETATM   25  C   UNL     1     -11.770   6.245  72.221  1.00  0.00    -0.298 A  
HETATM   26  C   UNL     1     -10.501   6.824  72.121  1.00  0.00    -0.231 A  
HETATM   27  C   UNL     1     -10.464   8.154  71.665  1.00  0.00    -0.288 A  
HETATM   28  C   UNL     1     -11.654   8.795  71.265  1.00  0.00    -0.353 A  
BRANCH  26  29
HETATM   29  C   UNL     1      -9.249   6.091  72.419  1.00  0.00    -0.143 A  
HETATM   30  C   UNL     1      -9.202   4.684  72.449  1.00  0.00    -0.149 A  
HETATM   31  C   UNL     1      -7.998   4.000  72.664  1.00  0.00    -0.086 A  
HETATM   32  C   UNL     1      -6.817   4.712  72.844  1.00  0.00    -0.069 A  
HETATM   33  C   UNL     1      -6.832   6.101  72.833  1.00  0.00    -0.075 A  
HETATM   34 CL   UNL     1      -5.332   3.876  73.071  1.00  0.00     0.000 Cl 
HETATM   35  C   UNL     1      -8.039   6.780  72.632  1.00  0.00    -0.104 A  
ENDBRANCH  26  29
ENDBRANCH  17  19
ENDBRANCH  11  17
ENDBRANCH   7   9
ENDBRANCH   4   7
ENDBRANCH   3   4
ENDBRANCH   2   3
TORSDOF 7
ENDMDL
MODEL      119
REMARK 921   NORMALIZED FREE ENERGY PREDICTED BY IDOCK:   -5.13 KCAL/MOL
REMARK 922        TOTAL FREE ENERGY PREDICTED BY IDOCK:   -8.98 KCAL/MOL
REMARK 923 INTER-LIGAND FREE ENERGY PREDICTED BY IDOCK:   -8.06 KCAL/MOL
REMARK 924 INTRA-LIGAND FREE ENERGY PREDICTED BY IDOCK:   -0.92 KCAL/MOL
REMARK 927      BINDING AFFINITY PREDICTED BY RF-SCORE:    0.00 PKD
ROOT
HETATM    1  C   UNL     1      -6.725  20.486  66.977  1.00  0.00    -0.320 C  
HETATM    2  C   UNL     1      -7.440  19.522  67.910  1.00  0.00    -0.310 C  
ENDROOT
BRANCH   2   3
HETATM    3  C   UNL     1      -7.728  18.185  67.233  1.00  0.00    -0.217 C  
BRANCH   3   4
HETATM    4  S   UNL     1      -9.493  17.947  67.013  1.00  0.00    -0.281 S  
HETATM    5  O   UNL     1      -9.803  17.924  65.601  1.00  0.00    -0.512 OA 
HETATM    6  O   UNL     1     -10.192  18.811  67.934  1.00  0.00    -0.357 OA 
BRANCH   4   7
HETATM    7  N   UNL     1      -9.691  16.398  67.662  1.00  0.00    -0.236 N  
HETATM    8  H   UNL     1      -9.590  16.228  68.663  1.00  0.00     0.000 HD 
BRANCH   7   9
HETATM    9  C   UNL     1     -10.005  15.335  66.758  1.00  0.00    -0.242 A  
HETATM   10  C   UNL     1      -9.457  14.060  66.944  1.00  0.00    -0.265 A  
HETATM   11  C   UNL     1      -9.953  12.965  66.232  1.00  0.00    -0.271 A  
HETATM   12  F   UNL     1      -8.504  13.902  67.876  1.00  0.00    -0.139 F  
HETATM   13  C   UNL     1     -10.898  15.565  65.714  1.00  0.00    -0.337 A  
HETATM   14  C   UNL     1     -10.845  13.207  65.185  1.00  0.00    -0.304 A  
HETATM   15  C   UNL     1     -11.295  14.500  64.906  1.00  0.00    -0.394 A  
HETATM   16  F   UNL     1     -11.333  12.207  64.438  1.00  0.00    -0.337 F  
BRANCH  11  17
HETATM   17  C   UNL     1      -9.604  11.567  66.580  1.00  0.00    -0.197 C  
HETATM   18  O   UNL     1      -8.551  11.100  66.154  1.00  0.00    -0.173 OA 
BRANCH  17  19
HETATM   19  C   UNL     1     -10.490  10.772  67.440  1.00  0.00    -0.268 A  
HETATM   20  C   UNL     1     -10.710   9.416  67.238  1.00  0.00    -0.188 A  
HETATM   21  N   UNL     1     -11.433   8.926  68.292  1.00  0.00     0.159 NA 
HETATM   22  C   UNL     1     -11.727   9.941  69.157  1.00  0.00     0.227 A  
HETATM   23  H   UNL     1     -11.711   7.952  68.413  1.00  0.00     0.000 HD 
HETATM   24  N   UNL     1     -12.362   9.780  70.332  1.00  0.00    -0.088 NA 
HETATM   25  C   UNL     1     -12.538  10.951  71.004  1.00  0.00    -0.417 A  
HETATM   26  C   UNL     1     -12.192  12.233  70.565  1.00  0.00    -0.387 A  
HETATM   27  C   UNL     1     -11.571  12.307  69.305  1.00  0.00    -0.383 A  
HETATM   28  C   UNL     1     -11.259  11.125  68.602  1.00  0.00    -0.314 A  
BRANCH  26  29
HETATM   29  C   UNL     1     -12.407  13.453  71.376  1.00  0.00    -0.214 A  
HETATM   30  C   UNL     1     -13.524  13.595  72.222  1.00  0.00    -0.652 A  
HETATM   31  C   UNL     1     -13.681  14.723  73.038  1.00  0.00    -0.238 A  
HETATM   32  C   UNL     1     -12.718  15.727  73.028  1.00  0.00    -0.491 A  
HETATM   33  C   UNL     1     -11.612  15.623  72.194  1.00  0.00    -0.538 A  
HETATM   34 CL   UNL     1     -12.889  17.096  74.054  1.00  0.00     0.604 Cl 
HETATM   35  C   UNL     1     -11.466  14.502  71.371  1.00  0.00     0.019 A  
ENDBRANCH  26  29
ENDBRANCH  17  19
ENDBRANCH  11  17
ENDBRANCH   7   9
ENDBRANCH   4   7
ENDBRANCH   3   4
ENDBRANCH   2   3
TORSDOF 7
ENDMDL
MODEL      120
REMARK 921   NORMALIZED FREE ENERGY PREDICTED BY IDOCK:   -5.13 KCAL/MOL
REMARK 922        TOTAL FREE ENERGY PREDICTED BY IDOCK:   -8.98 KCAL/MOL
REMARK 923 INTER-LIGAND FREE ENERGY PREDICTED BY IDOCK:   -8.16 KCAL/MOL
REMARK 924 INTRA-LIGAND FREE ENERGY PREDICTED BY IDOCK:   -0.82 KCAL/MOL
REMARK 927      BINDING AFFINITY PREDICTED BY RF-SCORE:    0.00 PKD
ROOT
HETATM    1  C   UNL     1      -9.504   3.548  70.101  1.00  0.00    -0.252 C  
HETATM    2  C   UNL     1      -9.835   4.704  69.171  1.00  0.00    -0.242 C  
ENDROOT
BRANCH   2   3
HETATM    3  C   UNL     1      -9.503   6.053  69.802  1.00  0.00    -0.149 C  
BRANCH   3   4
HETATM    4  S   UNL     1     -10.981   7.053  69.990  1.00  0.00    -0.273 S  
HETATM    5  O   UNL     1     -10.624   8.339  70.545  1.00  0.00    -0.211 OA 
HETATM    6  O   UNL     1     -12.018   6.233  70.570  1.00  0.00    -0.263 OA 
BRANCH   4   7
HETATM    7  N   UNL     1     -11.450   7.240  68.376  1.00  0.00    -0.113 N  
HETATM    8  H   UNL     1     -12.299   6.803  68.019  1.00  0.00     0.000 HD 
BRANCH   7   9
HETATM    9  C   UNL     1     -10.613   8.034  67.531  1.00  0.00    -0.232 A  
HETATM   10  C   UNL     1     -10.569   9.426  67.681  1.00  0.00    -0.271 A  
HETATM   11  C   UNL     1      -9.576  10.176  67.047  1.00  0.00    -0.209 A  
HETATM   12  F   UNL     1     -11.451  10.010  68.509  1.00  0.00    -0.252 F  
HETATM   13  C   UNL     1      -9.804   7.409  66.585  1.00  0.00    -0.263 A  
HETATM   14  C   UNL     1      -8.773   9.540  66.098  1.00  0.00    -0.145 A  
HETATM   15  C   UNL     1      -8.902   8.172  65.845  1.00  0.00    -0.194 A  
HETATM   16  F   UNL     1      -7.823  10.207  65.427  1.00  0.00    -0.119 F  
BRANCH  11  17
HETATM   17  C   UNL     1      -9.317  11.596  67.382  1.00  0.00    -0.168 C  
HETATM   18  O   UNL     1      -8.764  11.857  68.448  1.00  0.00    -0.173 OA 
BRANCH  17  19
HETATM   19  C   UNL     1      -9.691  12.663  66.445  1.00  0.00    -0.259 A  
HETATM   20  C   UNL     1     -10.517  12.442  65.350  1.00  0.00    -0.277 A  
HETATM   21  N   UNL     1     -10.819  13.648  64.777  1.00  0.00    -0.372 NA 
HETATM   22  C   UNL     1     -10.176  14.649  65.449  1.00  0.00    -0.387 A  
HETATM   23  H   UNL     1     -11.431  13.780  63.972  1.00  0.00     0.000 HD 
HETATM   24  N   UNL     1     -10.321  15.959  65.185  1.00  0.00    -0.518 NA 
HETATM   25  C   UNL     1      -9.565  16.750  65.994  1.00  0.00    -0.234 A  
HETATM   26  C   UNL     1      -8.656  16.330  66.969  1.00  0.00    -0.227 A  
HETATM   27  C   UNL     1      -8.539  14.940  67.146  1.00  0.00    -0.248 A  
HETATM   28  C   UNL     1      -9.371  14.064  66.419  1.00  0.00    -0.242 A  
BRANCH  26  29
HETATM   29  C   UNL     1      -7.886  17.268  67.818  1.00  0.00    -0.194 A  
HETATM   30  C   UNL     1      -8.179  18.645  67.857  1.00  0.00    -0.285 A  
HETATM   31  C   UNL     1      -7.491  19.513  68.715  1.00  0.00    -0.387 A  
HETATM   32  C   UNL     1      -6.501  19.016  69.557  1.00  0.00    -0.266 A  
HETATM   33  C   UNL     1      -6.179  17.665  69.532  1.00  0.00    -0.245 A  
HETATM   34 CL   UNL     1      -5.679  20.071  70.637  1.00  0.00    -0.317 Cl 
HETATM   35  C   UNL     1      -6.859  16.805  68.664  1.00  0.00    -0.175 A  
ENDBRANCH  26  29
ENDBRANCH  17  19
ENDBRANCH  11  17
ENDBRANCH   7   9
ENDBRANCH   4   7
ENDBRANCH   3   4
ENDBRANCH   2   3
TORSDOF 7
ENDMDL
MODEL      121
REMARK 921   NORMALIZED FREE ENERGY PREDICTED BY IDOCK:   -5.11 KCAL/MOL
REMARK 922        TOTAL FREE ENERGY PREDICTED BY IDOCK:   -8.95 KCAL/MOL
REMARK 923 INTER-LIGAND FREE ENERGY PREDICTED BY IDOCK:   -6.89 KCAL/MOL
REMARK 924 INTRA-LIGAND FREE ENERGY PREDICTED BY IDOCK:   -2.06 KCAL/MOL
REMARK 927      BINDING AFFINITY PREDICTED BY RF-SCORE:    0.00 PKD
ROOT
HETATM    1  C   UNL     1     -10.809  17.262  67.783  1.00  0.00    -0.261 C  
HETATM    2  C   UNL     1     -10.182  16.970  69.137  1.00  0.00    -0.288 C  
ENDROOT
BRANCH   2   3
HETATM    3  C   UNL     1     -10.289  15.493  69.504  1.00  0.00    -0.271 C  
BRANCH   3   4
HETATM    4  S   UNL     1     -11.750  15.185  70.500  1.00  0.00    -0.332 S  
HETATM    5  O   UNL     1     -12.735  16.211  70.240  1.00  0.00    -0.168 OA 
HETATM    6  O   UNL     1     -11.329  14.853  71.840  1.00  0.00    -0.300 OA 
BRANCH   4   7
HETATM    7  N   UNL     1     -12.277  13.715  69.851  1.00  0.00    -0.322 N  
HETATM    8  H   UNL     1     -12.856  13.075  70.395  1.00  0.00     0.000 HD 
BRANCH   7   9
HETATM    9  C   UNL     1     -11.880  13.401  68.514  1.00  0.00    -0.366 A  
HETATM   10  C   UNL     1     -10.955  12.378  68.269  1.00  0.00    -0.236 A  
HETATM   11  C   UNL     1     -10.760  11.895  66.973  1.00  0.00    -0.280 A  
HETATM   12  F   UNL     1     -10.324  11.820  69.315  1.00  0.00    -0.179 F  
HETATM   13  C   UNL     1     -12.454  14.090  67.449  1.00  0.00     0.035 A  
HETATM   14  C   UNL     1     -11.338  12.596  65.913  1.00  0.00    -0.334 A  
HETATM   15  C   UNL     1     -12.157  13.704  66.143  1.00  0.00    -0.477 A  
HETATM   16  F   UNL     1     -11.162  12.209  64.642  1.00  0.00    -0.328 F  
BRANCH  11  17
HETATM   17  C   UNL     1     -10.009  10.647  66.695  1.00  0.00    -0.212 C  
HETATM   18  O   UNL     1     -10.612   9.694  66.206  1.00  0.00    -0.127 OA 
BRANCH  17  19
HETATM   19  C   UNL     1      -8.570  10.567  66.976  1.00  0.00    -0.127 A  
HETATM   20  C   UNL     1      -7.855   9.379  66.890  1.00  0.00    -0.105 A  
HETATM   21  N   UNL     1      -6.523   9.656  67.035  1.00  0.00    -0.066 NA 
HETATM   22  C   UNL     1      -6.354  10.994  67.256  1.00  0.00    -0.069 A  
HETATM   23  H   UNL     1      -5.771   8.969  66.986  1.00  0.00     0.000 HD 
HETATM   24  N   UNL     1      -5.161  11.603  67.365  1.00  0.00    -0.058 NA 
HETATM   25  C   UNL     1      -5.267  12.941  67.589  1.00  0.00    -0.090 A  
HETATM   26  C   UNL     1      -6.444  13.672  67.771  1.00  0.00    -0.178 A  
HETATM   27  C   UNL     1      -7.643  12.943  67.682  1.00  0.00    -0.156 A  
HETATM   28  C   UNL     1      -7.613  11.575  67.344  1.00  0.00    -0.135 A  
BRANCH  26  29
HETATM   29  C   UNL     1      -6.463  15.136  67.993  1.00  0.00    -0.156 A  
HETATM   30  C   UNL     1      -6.941  16.030  67.015  1.00  0.00    -0.209 A  
HETATM   31  C   UNL     1      -7.019  17.407  67.262  1.00  0.00    -0.194 A  
HETATM   32  C   UNL     1      -6.627  17.915  68.497  1.00  0.00    -0.215 A  
HETATM   33  C   UNL     1      -6.138  17.061  69.477  1.00  0.00    -0.233 A  
HETATM   34 CL   UNL     1      -6.755  19.599  68.817  1.00  0.00    -0.331 Cl 
HETATM   35  C   UNL     1      -6.049  15.689  69.221  1.00  0.00    -0.122 A  
ENDBRANCH  26  29
ENDBRANCH  17  19
ENDBRANCH  11  17
ENDBRANCH   7   9
ENDBRANCH   4   7
ENDBRANCH   3   4
ENDBRANCH   2   3
TORSDOF 7
ENDMDL
MODEL      122
REMARK 921   NORMALIZED FREE ENERGY PREDICTED BY IDOCK:   -5.11 KCAL/MOL
REMARK 922        TOTAL FREE ENERGY PREDICTED BY IDOCK:   -8.95 KCAL/MOL
REMARK 923 INTER-LIGAND FREE ENERGY PREDICTED BY IDOCK:   -7.41 KCAL/MOL
REMARK 924 INTRA-LIGAND FREE ENERGY PREDICTED BY IDOCK:   -1.54 KCAL/MOL
REMARK 927      BINDING AFFINITY PREDICTED BY RF-SCORE:    0.00 PKD
ROOT
HETATM    1  C   UNL     1     -10.808  16.188  64.999  1.00  0.00    -0.380 C  
HETATM    2  C   UNL     1     -10.193  14.920  65.571  1.00  0.00    -0.401 C  
ENDROOT
BRANCH   2   3
HETATM    3  C   UNL     1      -9.896  15.056  67.061  1.00  0.00    -0.238 C  
BRANCH   3   4
HETATM    4  S   UNL     1     -11.236  14.379  68.046  1.00  0.00    -0.294 S  
HETATM    5  O   UNL     1     -12.259  13.853  67.170  1.00  0.00    -0.406 OA 
HETATM    6  O   UNL     1     -11.542  15.310  69.105  1.00  0.00    -0.293 OA 
BRANCH   4   7
HETATM    7  N   UNL     1     -10.447  13.103  68.827  1.00  0.00    -0.376 N  
HETATM    8  H   UNL     1     -10.682  12.844  69.785  1.00  0.00     0.000 HD 
BRANCH   7   9
HETATM    9  C   UNL     1      -9.437  12.402  68.096  1.00  0.00    -0.214 A  
HETATM   10  C   UNL     1      -9.792  11.461  67.120  1.00  0.00    -0.190 A  
HETATM   11  C   UNL     1      -8.835  10.967  66.231  1.00  0.00    -0.187 A  
HETATM   12  F   UNL     1     -11.083  11.108  67.010  1.00  0.00    -0.300 F  
HETATM   13  C   UNL     1      -8.095  12.693  68.328  1.00  0.00    -0.161 A  
HETATM   14  C   UNL     1      -7.492  11.262  66.476  1.00  0.00    -0.105 A  
HETATM   15  C   UNL     1      -7.118  12.096  67.532  1.00  0.00    -0.135 A  
HETATM   16  F   UNL     1      -6.518  10.793  65.683  1.00  0.00    -0.119 F  
BRANCH  11  17
HETATM   17  C   UNL     1      -9.199  10.190  65.023  1.00  0.00    -0.217 C  
HETATM   18  O   UNL     1      -9.834  10.751  64.132  1.00  0.00    -0.270 OA 
BRANCH  17  19
HETATM   19  C   UNL     1      -8.784   8.789  64.885  1.00  0.00    -0.161 A  
HETATM   20  C   UNL     1      -8.131   8.307  63.759  1.00  0.00    -0.126 A  
HETATM   21  N   UNL     1      -7.725   7.023  64.000  1.00  0.00    -0.112 NA 
HETATM   22  C   UNL     1      -8.135   6.639  65.246  1.00  0.00    -0.130 A  
HETATM   23  H   UNL     1      -7.197   6.441  63.350  1.00  0.00     0.000 HD 
HETATM   24  N   UNL     1      -7.832   5.461  65.818  1.00  0.00    -0.098 NA 
HETATM   25  C   UNL     1      -8.367   5.322  67.061  1.00  0.00    -0.107 A  
HETATM   26  C   UNL     1      -9.209   6.223  67.720  1.00  0.00    -0.115 A  
HETATM   27  C   UNL     1      -9.506   7.410  67.026  1.00  0.00    -0.199 A  
HETATM   28  C   UNL     1      -8.899   7.669  65.781  1.00  0.00    -0.134 A  
BRANCH  26  29
HETATM   29  C   UNL     1      -9.732   5.994  69.087  1.00  0.00    -0.168 A  
HETATM   30  C   UNL     1     -10.960   6.535  69.512  1.00  0.00    -0.398 A  
HETATM   31  C   UNL     1     -11.478   6.255  70.784  1.00  0.00    -0.383 A  
HETATM   32  C   UNL     1     -10.778   5.420  71.651  1.00  0.00    -0.198 A  
HETATM   33  C   UNL     1      -9.557   4.882  71.265  1.00  0.00    -0.229 A  
HETATM   34 CL   UNL     1     -11.428   5.045  73.197  1.00  0.00    -0.398 Cl 
HETATM   35  C   UNL     1      -9.038   5.176  70.000  1.00  0.00    -0.163 A  
ENDBRANCH  26  29
ENDBRANCH  17  19
ENDBRANCH  11  17
ENDBRANCH   7   9
ENDBRANCH   4   7
ENDBRANCH   3   4
ENDBRANCH   2   3
TORSDOF 7
ENDMDL
MODEL      123
REMARK 921   NORMALIZED FREE ENERGY PREDICTED BY IDOCK:   -5.08 KCAL/MOL
REMARK 922        TOTAL FREE ENERGY PREDICTED BY IDOCK:   -8.91 KCAL/MOL
REMARK 923 INTER-LIGAND FREE ENERGY PREDICTED BY IDOCK:   -7.04 KCAL/MOL
REMARK 924 INTRA-LIGAND FREE ENERGY PREDICTED BY IDOCK:   -1.87 KCAL/MOL
REMARK 927      BINDING AFFINITY PREDICTED BY RF-SCORE:    0.00 PKD
ROOT
HETATM    1  C   UNL     1      -9.781   4.316  67.216  1.00  0.00    -0.216 C  
HETATM    2  C   UNL     1     -10.139   5.754  66.877  1.00  0.00    -0.231 C  
ENDROOT
BRANCH   2   3
HETATM    3  C   UNL     1      -8.943   6.688  67.031  1.00  0.00    -0.118 C  
BRANCH   3   4
HETATM    4  S   UNL     1      -7.790   6.482  65.671  1.00  0.00    -0.107 S  
HETATM    5  O   UNL     1      -8.512   6.082  64.485  1.00  0.00    -0.091 OA 
HETATM    6  O   UNL     1      -6.642   5.749  66.150  1.00  0.00    -0.048 OA 
BRANCH   4   7
HETATM    7  N   UNL     1      -7.226   8.066  65.487  1.00  0.00    -0.063 N  
HETATM    8  H   UNL     1      -6.228   8.267  65.426  1.00  0.00     0.000 HD 
BRANCH   7   9
HETATM    9  C   UNL     1      -8.198   9.112  65.419  1.00  0.00    -0.130 A  
HETATM   10  C   UNL     1      -8.366   9.996  66.492  1.00  0.00    -0.126 A  
HETATM   11  C   UNL     1      -9.118  11.163  66.338  1.00  0.00    -0.198 A  
HETATM   12  F   UNL     1      -7.722   9.737  67.642  1.00  0.00    -0.092 F  
HETATM   13  C   UNL     1      -8.950   9.275  64.258  1.00  0.00    -0.142 A  
HETATM   14  C   UNL     1      -9.870  11.314  65.171  1.00  0.00    -0.252 A  
HETATM   15  C   UNL     1      -9.812  10.365  64.148  1.00  0.00    -0.379 A  
HETATM   16  F   UNL     1     -10.641  12.393  64.973  1.00  0.00    -0.287 F  
BRANCH  11  17
HETATM   17  C   UNL     1      -9.103  12.255  67.339  1.00  0.00    -0.184 C  
HETATM   18  O   UNL     1      -8.163  13.047  67.332  1.00  0.00    -0.167 OA 
BRANCH  17  19
HETATM   19  C   UNL     1     -10.204  12.399  68.300  1.00  0.00    -0.230 A  
HETATM   20  C   UNL     1     -11.025  13.518  68.336  1.00  0.00    -0.266 A  
HETATM   21  N   UNL     1     -12.052  13.282  69.210  1.00  0.00    -0.281 NA 
HETATM   22  C   UNL     1     -11.897  12.049  69.777  1.00  0.00    -0.331 A  
HETATM   23  H   UNL     1     -12.816  13.928  69.407  1.00  0.00     0.000 HD 
HETATM   24  N   UNL     1     -12.777  11.484  70.622  1.00  0.00    -0.222 NA 
HETATM   25  C   UNL     1     -12.386  10.253  71.049  1.00  0.00    -0.381 A  
HETATM   26  C   UNL     1     -11.185   9.601  70.750  1.00  0.00    -0.403 A  
HETATM   27  C   UNL     1     -10.308  10.288  69.892  1.00  0.00    -0.281 A  
HETATM   28  C   UNL     1     -10.696  11.518  69.325  1.00  0.00    -0.171 A  
BRANCH  26  29
HETATM   29  C   UNL     1     -10.851   8.247  71.249  1.00  0.00    -0.285 A  
HETATM   30  C   UNL     1     -11.837   7.259  71.431  1.00  0.00    -0.338 A  
HETATM   31  C   UNL     1     -11.502   5.960  71.837  1.00  0.00    -0.287 A  
HETATM   32  C   UNL     1     -10.170   5.625  72.062  1.00  0.00    -0.205 A  
HETATM   33  C   UNL     1      -9.176   6.582  71.905  1.00  0.00    -0.148 A  
HETATM   34 CL   UNL     1      -9.751   4.024  72.526  1.00  0.00    -0.196 Cl 
HETATM   35  C   UNL     1      -9.516   7.880  71.513  1.00  0.00    -0.184 A  
ENDBRANCH  26  29
ENDBRANCH  17  19
ENDBRANCH  11  17
ENDBRANCH   7   9
ENDBRANCH   4   7
ENDBRANCH   3   4
ENDBRANCH   2   3
TORSDOF 7
ENDMDL
MODEL      124
REMARK 921   NORMALIZED FREE ENERGY PREDICTED BY IDOCK:   -5.07 KCAL/MOL
REMARK 922        TOTAL FREE ENERGY PREDICTED BY IDOCK:   -8.89 KCAL/MOL
REMARK 923 INTER-LIGAND FREE ENERGY PREDICTED BY IDOCK:   -7.43 KCAL/MOL
REMARK 924 INTRA-LIGAND FREE ENERGY PREDICTED BY IDOCK:   -1.46 KCAL/MOL
REMARK 927      BINDING AFFINITY PREDICTED BY RF-SCORE:    0.00 PKD
ROOT
HETATM    1  C   UNL     1      -9.271  16.735  67.368  1.00  0.00    -0.220 C  
HETATM    2  C   UNL     1      -9.291  16.358  68.841  1.00  0.00    -0.249 C  
ENDROOT
BRANCH   2   3
HETATM    3  C   UNL     1      -9.860  14.960  69.061  1.00  0.00    -0.220 C  
BRANCH   3   4
HETATM    4  S   UNL     1     -11.596  15.038  69.511  1.00  0.00    -0.333 S  
HETATM    5  O   UNL     1     -12.124  16.339  69.167  1.00  0.00    -0.143 OA 
HETATM    6  O   UNL     1     -11.753  14.475  70.830  1.00  0.00    -0.298 OA 
BRANCH   4   7
HETATM    7  N   UNL     1     -12.248  13.869  68.477  1.00  0.00    -0.493 N  
HETATM    8  H   UNL     1     -13.099  13.363  68.723  1.00  0.00     0.000 HD 
BRANCH   7   9
HETATM    9  C   UNL     1     -11.564  13.616  67.248  1.00  0.00    -0.356 A  
HETATM   10  C   UNL     1     -10.803  12.451  67.085  1.00  0.00    -0.245 A  
HETATM   11  C   UNL     1     -10.350  12.072  65.820  1.00  0.00    -0.289 A  
HETATM   12  F   UNL     1     -10.590  11.671  68.157  1.00  0.00    -0.182 F  
HETATM   13  C   UNL     1     -11.695  14.515  66.192  1.00  0.00    -0.355 A  
HETATM   14  C   UNL     1     -10.484  12.982  64.770  1.00  0.00    -0.363 A  
HETATM   15  C   UNL     1     -11.125  14.209  64.957  1.00  0.00    -0.372 A  
HETATM   16  F   UNL     1     -10.040  12.697  63.538  1.00  0.00    -0.400 F  
BRANCH  11  17
HETATM   17  C   UNL     1      -9.785  10.729  65.549  1.00  0.00    -0.239 C  
HETATM   18  O   UNL     1     -10.362   9.999  64.746  1.00  0.00    -0.132 OA 
BRANCH  17  19
HETATM   19  C   UNL     1      -8.546  10.296  66.208  1.00  0.00    -0.144 A  
HETATM   20  C   UNL     1      -7.295  10.768  65.836  1.00  0.00    -0.094 A  
HETATM   21  N   UNL     1      -6.369  10.320  66.740  1.00  0.00    -0.069 NA 
HETATM   22  C   UNL     1      -6.982   9.531  67.671  1.00  0.00    -0.080 A  
HETATM   23  H   UNL     1      -5.374  10.542  66.721  1.00  0.00     0.000 HD 
HETATM   24  N   UNL     1      -6.366   8.995  68.739  1.00  0.00    -0.048 NA 
HETATM   25  C   UNL     1      -7.199   8.244  69.510  1.00  0.00    -0.061 A  
HETATM   26  C   UNL     1      -8.542   7.949  69.256  1.00  0.00    -0.138 A  
HETATM   27  C   UNL     1      -9.089   8.518  68.092  1.00  0.00    -0.138 A  
HETATM   28  C   UNL     1      -8.315   9.395  67.306  1.00  0.00    -0.125 A  
BRANCH  26  29
HETATM   29  C   UNL     1      -9.378   7.132  70.165  1.00  0.00    -0.158 A  
HETATM   30  C   UNL     1      -9.293   5.727  70.191  1.00  0.00    -0.184 A  
HETATM   31  C   UNL     1     -10.038   4.969  71.104  1.00  0.00    -0.293 A  
HETATM   32  C   UNL     1     -10.878   5.604  72.013  1.00  0.00    -0.242 A  
HETATM   33  C   UNL     1     -10.995   6.988  72.003  1.00  0.00    -0.264 A  
HETATM   34 CL   UNL     1     -11.767   4.680  73.158  1.00  0.00    -0.287 Cl 
HETATM   35  C   UNL     1     -10.259   7.740  71.081  1.00  0.00    -0.214 A  
ENDBRANCH  26  29
ENDBRANCH  17  19
ENDBRANCH  11  17
ENDBRANCH   7   9
ENDBRANCH   4   7
ENDBRANCH   3   4
ENDBRANCH   2   3
TORSDOF 7
ENDMDL
MODEL      125
REMARK 921   NORMALIZED FREE ENERGY PREDICTED BY IDOCK:   -5.06 KCAL/MOL
REMARK 922        TOTAL FREE ENERGY PREDICTED BY IDOCK:   -8.88 KCAL/MOL
REMARK 923 INTER-LIGAND FREE ENERGY PREDICTED BY IDOCK:   -7.96 KCAL/MOL
REMARK 924 INTRA-LIGAND FREE ENERGY PREDICTED BY IDOCK:   -0.92 KCAL/MOL
REMARK 927      BINDING AFFINITY PREDICTED BY RF-SCORE:    0.00 PKD
ROOT
HETATM    1  C   UNL     1     -11.623  15.831  71.955  1.00  0.00    -0.545 C  
HETATM    2  C   UNL     1     -11.654  16.184  70.476  1.00  0.00    -0.322 C  
ENDROOT
BRANCH   2   3
HETATM    3  C   UNL     1     -10.509  15.526  69.712  1.00  0.00    -0.301 C  
BRANCH   3   4
HETATM    4  S   UNL     1      -9.887  16.614  68.427  1.00  0.00    -0.263 S  
HETATM    5  O   UNL     1      -9.134  17.690  69.031  1.00  0.00    -0.177 OA 
HETATM    6  O   UNL     1     -10.949  16.862  67.483  1.00  0.00    -0.254 OA 
BRANCH   4   7
HETATM    7  N   UNL     1      -8.834  15.574  67.608  1.00  0.00    -0.177 N  
HETATM    8  H   UNL     1      -7.878  15.854  67.392  1.00  0.00     0.000 HD 
BRANCH   7   9
HETATM    9  C   UNL     1      -9.334  14.289  67.230  1.00  0.00    -0.213 A  
HETATM   10  C   UNL     1      -9.088  13.167  68.031  1.00  0.00    -0.207 A  
HETATM   11  C   UNL     1      -9.780  11.974  67.812  1.00  0.00    -0.192 A  
HETATM   12  F   UNL     1      -8.233  13.290  69.060  1.00  0.00    -0.023 F  
HETATM   13  C   UNL     1     -10.109  14.166  66.079  1.00  0.00    -0.330 A  
HETATM   14  C   UNL     1     -10.551  11.861  66.654  1.00  0.00    -0.238 A  
HETATM   15  C   UNL     1     -10.694  12.938  65.775  1.00  0.00    -0.293 A  
HETATM   16  F   UNL     1     -11.214  10.733  66.363  1.00  0.00    -0.238 F  
BRANCH  11  17
HETATM   17  C   UNL     1      -9.762  10.856  68.785  1.00  0.00    -0.189 C  
HETATM   18  O   UNL     1      -8.836  10.049  68.737  1.00  0.00    -0.125 OA 
BRANCH  17  19
HETATM   19  C   UNL     1     -10.817  10.734  69.799  1.00  0.00    -0.284 A  
HETATM   20  C   UNL     1     -11.784  11.711  69.995  1.00  0.00    -0.321 A  
HETATM   21  N   UNL     1     -12.717  11.236  70.876  1.00  0.00    -0.340 NA 
HETATM   22  C   UNL     1     -12.359   9.985  71.293  1.00  0.00    -0.398 A  
HETATM   23  H   UNL     1     -13.552  11.738  71.177  1.00  0.00     0.000 HD 
HETATM   24  N   UNL     1     -13.102   9.210  72.103  1.00  0.00    -0.415 NA 
HETATM   25  C   UNL     1     -12.518   8.011  72.371  1.00  0.00    -0.212 A  
HETATM   26  C   UNL     1     -11.256   7.577  71.952  1.00  0.00    -0.286 A  
HETATM   27  C   UNL     1     -10.534   8.472  71.143  1.00  0.00    -0.278 A  
HETATM   28  C   UNL     1     -11.122   9.686  70.736  1.00  0.00    -0.403 A  
BRANCH  26  29
HETATM   29  C   UNL     1     -10.709   6.241  72.280  1.00  0.00    -0.263 A  
HETATM   30  C   UNL     1     -10.824   5.153  71.394  1.00  0.00    -0.083 A  
HETATM   31  C   UNL     1     -10.241   3.912  71.683  1.00  0.00    -0.088 A  
HETATM   32  C   UNL     1      -9.526   3.739  72.864  1.00  0.00    -0.116 A  
HETATM   33  C   UNL     1      -9.406   4.789  73.765  1.00  0.00    -0.124 A  
HETATM   34 CL   UNL     1      -8.779   2.229  73.206  1.00  0.00    -0.069 Cl 
HETATM   35  C   UNL     1     -10.001   6.022  73.478  1.00  0.00    -0.189 A  
ENDBRANCH  26  29
ENDBRANCH  17  19
ENDBRANCH  11  17
ENDBRANCH   7   9
ENDBRANCH   4   7
ENDBRANCH   3   4
ENDBRANCH   2   3
TORSDOF 7
ENDMDL
MODEL      126
REMARK 921   NORMALIZED FREE ENERGY PREDICTED BY IDOCK:   -5.06 KCAL/MOL
REMARK 922        TOTAL FREE ENERGY PREDICTED BY IDOCK:   -8.87 KCAL/MOL
REMARK 923 INTER-LIGAND FREE ENERGY PREDICTED BY IDOCK:   -7.98 KCAL/MOL
REMARK 924 INTRA-LIGAND FREE ENERGY PREDICTED BY IDOCK:   -0.89 KCAL/MOL
REMARK 927      BINDING AFFINITY PREDICTED BY RF-SCORE:    0.00 PKD
ROOT
HETATM    1  C   UNL     1      -9.707  19.468  66.880  1.00  0.00    -0.457 C  
HETATM    2  C   UNL     1      -8.452  19.768  66.076  1.00  0.00    -0.304 C  
ENDROOT
BRANCH   2   3
HETATM    3  C   UNL     1      -7.412  20.515  66.905  1.00  0.00    -0.285 C  
BRANCH   3   4
HETATM    4  S   UNL     1      -6.992  19.592  68.387  1.00  0.00    -0.312 S  
HETATM    5  O   UNL     1      -8.202  19.104  69.009  1.00  0.00    -0.321 OA 
HETATM    6  O   UNL     1      -6.001  20.338  69.125  1.00  0.00    -0.284 OA 
BRANCH   4   7
HETATM    7  N   UNL     1      -6.131  18.296  67.724  1.00  0.00    -0.178 N  
HETATM    8  H   UNL     1      -5.517  18.426  66.920  1.00  0.00     0.000 HD 
BRANCH   7   9
HETATM    9  C   UNL     1      -6.295  17.012  68.332  1.00  0.00    -0.150 A  
HETATM   10  C   UNL     1      -6.970  15.988  67.655  1.00  0.00    -0.155 A  
HETATM   11  C   UNL     1      -6.912  14.673  68.121  1.00  0.00    -0.124 A  
HETATM   12  F   UNL     1      -7.605  16.286  66.510  1.00  0.00    -0.247 F  
HETATM   13  C   UNL     1      -5.739  16.770  69.586  1.00  0.00    -0.194 A  
HETATM   14  C   UNL     1      -6.355  14.443  69.381  1.00  0.00    -0.122 A  
HETATM   15  C   UNL     1      -5.798  15.486  70.124  1.00  0.00    -0.148 A  
HETATM   16  F   UNL     1      -6.298  13.210  69.905  1.00  0.00    -0.122 F  
BRANCH  11  17
HETATM   17  C   UNL     1      -7.371  13.521  67.309  1.00  0.00    -0.012 C  
HETATM   18  O   UNL     1      -6.527  12.802  66.778  1.00  0.00     0.017 OA 
BRANCH  17  19
HETATM   19  C   UNL     1      -8.804  13.234  67.166  1.00  0.00    -0.223 A  
HETATM   20  C   UNL     1      -9.591  13.822  66.185  1.00  0.00    -0.216 A  
HETATM   21  N   UNL     1     -10.825  13.229  66.198  1.00  0.00    -0.279 NA 
HETATM   22  C   UNL     1     -10.874  12.295  67.194  1.00  0.00    -0.244 A  
HETATM   23  H   UNL     1     -11.591  13.450  65.562  1.00  0.00     0.000 HD 
HETATM   24  N   UNL     1     -11.921  11.483  67.426  1.00  0.00    -0.597 NA 
HETATM   25  C   UNL     1     -11.720  10.648  68.481  1.00  0.00    -0.127 A  
HETATM   26  C   UNL     1     -10.610  10.618  69.331  1.00  0.00    -0.270 A  
HETATM   27  C   UNL     1      -9.584  11.533  69.037  1.00  0.00     0.045 A  
HETATM   28  C   UNL     1      -9.676  12.353  67.895  1.00  0.00    -0.204 A  
BRANCH  26  29
HETATM   29  C   UNL     1     -10.471   9.656  70.449  1.00  0.00    -0.352 A  
HETATM   30  C   UNL     1      -9.226   9.099  70.798  1.00  0.00    -0.321 A  
HETATM   31  C   UNL     1      -9.094   8.245  71.901  1.00  0.00    -0.259 A  
HETATM   32  C   UNL     1     -10.206   7.938  72.679  1.00  0.00    -0.296 A  
HETATM   33  C   UNL     1     -11.451   8.461  72.352  1.00  0.00    -0.451 A  
HETATM   34 CL   UNL     1     -10.041   6.919  74.054  1.00  0.00    -0.374 Cl 
HETATM   35  C   UNL     1     -11.580   9.302  71.242  1.00  0.00    -0.419 A  
ENDBRANCH  26  29
ENDBRANCH  17  19
ENDBRANCH  11  17
ENDBRANCH   7   9
ENDBRANCH   4   7
ENDBRANCH   3   4
ENDBRANCH   2   3
TORSDOF 7
ENDMDL
MODEL      127
REMARK 921   NORMALIZED FREE ENERGY PREDICTED BY IDOCK:   -5.03 KCAL/MOL
REMARK 922        TOTAL FREE ENERGY PREDICTED BY IDOCK:   -8.84 KCAL/MOL
REMARK 923 INTER-LIGAND FREE ENERGY PREDICTED BY IDOCK:   -7.26 KCAL/MOL
REMARK 924 INTRA-LIGAND FREE ENERGY PREDICTED BY IDOCK:   -1.58 KCAL/MOL
REMARK 927      BINDING AFFINITY PREDICTED BY RF-SCORE:    0.00 PKD
ROOT
HETATM    1  C   UNL     1      -9.660   4.279  64.686  1.00  0.00    -0.160 C  
HETATM    2  C   UNL     1      -9.104   4.873  65.970  1.00  0.00    -0.139 C  
ENDROOT
BRANCH   2   3
HETATM    3  C   UNL     1      -7.637   5.265  65.825  1.00  0.00    -0.083 C  
BRANCH   3   4
HETATM    4  S   UNL     1      -6.605   4.304  66.936  1.00  0.00    -0.047 S  
HETATM    5  O   UNL     1      -5.631   5.172  67.559  1.00  0.00    -0.012 OA 
HETATM    6  O   UNL     1      -6.223   3.084  66.267  1.00  0.00    -0.024 OA 
BRANCH   4   7
HETATM    7  N   UNL     1      -7.743   3.811  68.086  1.00  0.00    -0.065 N  
HETATM    8  H   UNL     1      -8.538   3.227  67.825  1.00  0.00     0.000 HD 
BRANCH   7   9
HETATM    9  C   UNL     1      -7.552   4.244  69.435  1.00  0.00    -0.054 A  
HETATM   10  C   UNL     1      -8.093   5.459  69.874  1.00  0.00    -0.088 A  
HETATM   11  C   UNL     1      -8.135   5.764  71.237  1.00  0.00    -0.114 A  
HETATM   12  F   UNL     1      -8.639   6.283  68.965  1.00  0.00    -0.118 F  
HETATM   13  C   UNL     1      -6.862   3.426  70.326  1.00  0.00    -0.034 A  
HETATM   14  C   UNL     1      -7.437   4.939  72.120  1.00  0.00    -0.088 A  
HETATM   15  C   UNL     1      -6.779   3.793  71.669  1.00  0.00    -0.026 A  
HETATM   16  F   UNL     1      -7.406   5.193  73.436  1.00  0.00    -0.083 F  
BRANCH  11  17
HETATM   17  C   UNL     1      -8.930   6.895  71.773  1.00  0.00    -0.138 C  
HETATM   18  O   UNL     1      -8.338   7.903  72.151  1.00  0.00    -0.112 OA 
BRANCH  17  19
HETATM   19  C   UNL     1     -10.396   6.816  71.824  1.00  0.00    -0.217 A  
HETATM   20  C   UNL     1     -11.074   5.633  72.088  1.00  0.00    -0.241 A  
HETATM   21  N   UNL     1     -12.405   5.914  72.240  1.00  0.00    -0.335 NA 
HETATM   22  C   UNL     1     -12.617   7.248  72.041  1.00  0.00    -0.220 A  
HETATM   23  H   UNL     1     -13.127   5.231  72.468  1.00  0.00     0.000 HD 
HETATM   24  N   UNL     1     -13.805   7.861  72.191  1.00  0.00    -0.209 NA 
HETATM   25  C   UNL     1     -13.751   9.194  71.927  1.00  0.00    -0.424 A  
HETATM   26  C   UNL     1     -12.643   9.918  71.473  1.00  0.00    -0.513 A  
HETATM   27  C   UNL     1     -11.455   9.184  71.303  1.00  0.00    -0.405 A  
HETATM   28  C   UNL     1     -11.410   7.822  71.663  1.00  0.00    -0.291 A  
BRANCH  26  29
HETATM   29  C   UNL     1     -12.674  11.378  71.227  1.00  0.00    -0.498 A  
HETATM   30  C   UNL     1     -13.349  12.262  72.091  1.00  0.00    -0.473 A  
HETATM   31  C   UNL     1     -13.313  13.648  71.887  1.00  0.00    -0.510 A  
HETATM   32  C   UNL     1     -12.594  14.175  70.820  1.00  0.00    -0.362 A  
HETATM   33  C   UNL     1     -11.929  13.328  69.942  1.00  0.00    -0.400 A  
HETATM   34 CL   UNL     1     -12.518  15.877  70.588  1.00  0.00    -0.369 Cl 
HETATM   35  C   UNL     1     -11.979  11.945  70.140  1.00  0.00    -0.413 A  
ENDBRANCH  26  29
ENDBRANCH  17  19
ENDBRANCH  11  17
ENDBRANCH   7   9
ENDBRANCH   4   7
ENDBRANCH   3   4
ENDBRANCH   2   3
TORSDOF 7
ENDMDL
MODEL      128
REMARK 921   NORMALIZED FREE ENERGY PREDICTED BY IDOCK:   -5.01 KCAL/MOL
REMARK 922        TOTAL FREE ENERGY PREDICTED BY IDOCK:   -8.81 KCAL/MOL
REMARK 923 INTER-LIGAND FREE ENERGY PREDICTED BY IDOCK:   -7.19 KCAL/MOL
REMARK 924 INTRA-LIGAND FREE ENERGY PREDICTED BY IDOCK:   -1.62 KCAL/MOL
REMARK 927      BINDING AFFINITY PREDICTED BY RF-SCORE:    0.00 PKD
ROOT
HETATM    1  C   UNL     1      -5.166   5.164  64.317  1.00  0.00    -0.009 C  
HETATM    2  C   UNL     1      -5.744   6.185  63.352  1.00  0.00    -0.022 C  
ENDROOT
BRANCH   2   3
HETATM    3  C   UNL     1      -5.787   7.582  63.963  1.00  0.00    -0.048 C  
BRANCH   3   4
HETATM    4  S   UNL     1      -7.433   7.966  64.569  1.00  0.00    -0.107 S  
HETATM    5  O   UNL     1      -7.530   7.597  65.964  1.00  0.00    -0.079 OA 
HETATM    6  O   UNL     1      -8.397   7.519  63.593  1.00  0.00     0.000 OA 
BRANCH   4   7
HETATM    7  N   UNL     1      -7.443   9.651  64.425  1.00  0.00    -0.119 N  
HETATM    8  H   UNL     1      -6.647  10.152  64.029  1.00  0.00     0.000 HD 
BRANCH   7   9
HETATM    9  C   UNL     1      -8.607  10.348  64.878  1.00  0.00    -0.182 A  
HETATM   10  C   UNL     1      -8.639  10.918  66.157  1.00  0.00    -0.169 A  
HETATM   11  C   UNL     1      -9.655  11.811  66.508  1.00  0.00    -0.225 A  
HETATM   12  F   UNL     1      -7.632  10.651  67.004  1.00  0.00    -0.098 F  
HETATM   13  C   UNL     1      -9.695  10.495  64.021  1.00  0.00    -0.383 A  
HETATM   14  C   UNL     1     -10.742  11.948  65.643  1.00  0.00    -0.280 A  
HETATM   15  C   UNL     1     -10.780  11.274  64.420  1.00  0.00    -0.407 A  
HETATM   16  F   UNL     1     -11.768  12.761  65.934  1.00  0.00    -0.358 F  
BRANCH  11  17
HETATM   17  C   UNL     1      -9.590  12.645  67.732  1.00  0.00    -0.197 C  
HETATM   18  O   UNL     1      -8.696  13.483  67.826  1.00  0.00    -0.165 OA 
BRANCH  17  19
HETATM   19  C   UNL     1     -10.593  12.487  68.793  1.00  0.00    -0.204 A  
HETATM   20  C   UNL     1     -11.394  13.535  69.229  1.00  0.00    -0.262 A  
HETATM   21  N   UNL     1     -12.335  13.040  70.090  1.00  0.00    -0.249 NA 
HETATM   22  C   UNL     1     -12.141  11.698  70.260  1.00  0.00    -0.358 A  
HETATM   23  H   UNL     1     -13.069  13.588  70.538  1.00  0.00     0.000 HD 
HETATM   24  N   UNL     1     -12.943  10.899  70.985  1.00  0.00    -0.343 NA 
HETATM   25  C   UNL     1     -12.527   9.603  70.999  1.00  0.00    -0.296 A  
HETATM   26  C   UNL     1     -11.368   9.085  70.413  1.00  0.00    -0.242 A  
HETATM   27  C   UNL     1     -10.569  10.005  69.710  1.00  0.00    -0.301 A  
HETATM   28  C   UNL     1     -10.995  11.340  69.562  1.00  0.00    -0.249 A  
BRANCH  26  29
HETATM   29  C   UNL     1     -11.004   7.651  70.465  1.00  0.00    -0.259 A  
HETATM   30  C   UNL     1     -10.783   6.897  69.297  1.00  0.00    -0.265 A  
HETATM   31  C   UNL     1     -10.371   5.559  69.359  1.00  0.00    -0.348 A  
HETATM   32  C   UNL     1     -10.166   4.953  70.594  1.00  0.00    -0.211 A  
HETATM   33  C   UNL     1     -10.389   5.665  71.766  1.00  0.00    -0.268 A  
HETATM   34 CL   UNL     1      -9.626   3.322  70.675  1.00  0.00    -0.242 Cl 
HETATM   35  C   UNL     1     -10.813   6.996  71.699  1.00  0.00    -0.249 A  
ENDBRANCH  26  29
ENDBRANCH  17  19
ENDBRANCH  11  17
ENDBRANCH   7   9
ENDBRANCH   4   7
ENDBRANCH   3   4
ENDBRANCH   2   3
TORSDOF 7
ENDMDL
MODEL      129
REMARK 921   NORMALIZED FREE ENERGY PREDICTED BY IDOCK:   -5.01 KCAL/MOL
REMARK 922        TOTAL FREE ENERGY PREDICTED BY IDOCK:   -8.81 KCAL/MOL
REMARK 923 INTER-LIGAND FREE ENERGY PREDICTED BY IDOCK:   -7.83 KCAL/MOL
REMARK 924 INTRA-LIGAND FREE ENERGY PREDICTED BY IDOCK:   -0.98 KCAL/MOL
REMARK 927      BINDING AFFINITY PREDICTED BY RF-SCORE:    0.00 PKD
ROOT
HETATM    1  C   UNL     1     -10.010  19.241  68.784  1.00  0.00    -0.511 C  
HETATM    2  C   UNL     1      -8.968  19.121  67.683  1.00  0.00    -0.337 C  
ENDROOT
BRANCH   2   3
HETATM    3  C   UNL     1      -7.815  18.209  68.090  1.00  0.00    -0.280 C  
BRANCH   3   4
HETATM    4  S   UNL     1      -7.908  16.636  67.229  1.00  0.00    -0.180 S  
HETATM    5  O   UNL     1      -6.798  15.802  67.631  1.00  0.00    -0.140 OA 
HETATM    6  O   UNL     1      -8.209  16.891  65.841  1.00  0.00    -0.478 OA 
BRANCH   4   7
HETATM    7  N   UNL     1      -9.347  16.010  67.860  1.00  0.00    -0.207 N  
HETATM    8  H   UNL     1      -9.646  16.228  68.811  1.00  0.00     0.000 HD 
BRANCH   7   9
HETATM    9  C   UNL     1     -10.128  15.163  67.013  1.00  0.00    -0.244 A  
HETATM   10  C   UNL     1      -9.909  13.779  66.997  1.00  0.00    -0.251 A  
HETATM   11  C   UNL     1     -10.826  12.925  66.379  1.00  0.00    -0.293 A  
HETATM   12  F   UNL     1      -8.846  13.291  67.655  1.00  0.00    -0.162 F  
HETATM   13  C   UNL     1     -11.141  15.718  66.236  1.00  0.00    -0.073 A  
HETATM   14  C   UNL     1     -11.836  13.492  65.599  1.00  0.00    -0.369 A  
HETATM   15  C   UNL     1     -11.979  14.878  65.502  1.00  0.00    -0.098 A  
HETATM   16  F   UNL     1     -12.728  12.731  64.950  1.00  0.00    -0.509 F  
BRANCH  11  17
HETATM   17  C   UNL     1     -10.790  11.455  66.564  1.00  0.00    -0.283 C  
HETATM   18  O   UNL     1     -10.603  10.743  65.580  1.00  0.00    -0.223 OA 
BRANCH  17  19
HETATM   19  C   UNL     1     -10.949  10.869  67.901  1.00  0.00    -0.325 A  
HETATM   20  C   UNL     1     -11.441  11.589  68.981  1.00  0.00    -0.291 A  
HETATM   21  N   UNL     1     -11.635  10.732  70.030  1.00  0.00    -0.305 NA 
HETATM   22  C   UNL     1     -11.240   9.474  69.673  1.00  0.00    -0.108 A  
HETATM   23  H   UNL     1     -12.015  10.992  70.940  1.00  0.00     0.000 HD 
HETATM   24  N   UNL     1     -11.369   8.385  70.451  1.00  0.00    -0.220 NA 
HETATM   25  C   UNL     1     -10.894   7.254  69.864  1.00  0.00    -0.247 A  
HETATM   26  C   UNL     1     -10.259   7.154  68.622  1.00  0.00    -0.186 A  
HETATM   27  C   UNL     1     -10.130   8.352  67.897  1.00  0.00    -0.254 A  
HETATM   28  C   UNL     1     -10.697   9.542  68.396  1.00  0.00    -0.230 A  
BRANCH  26  29
HETATM   29  C   UNL     1      -9.788   5.870  68.053  1.00  0.00    -0.144 A  
HETATM   30  C   UNL     1      -9.594   5.698  66.669  1.00  0.00    -0.166 A  
HETATM   31  C   UNL     1      -9.082   4.502  66.148  1.00  0.00    -0.128 A  
HETATM   32  C   UNL     1      -8.746   3.459  67.005  1.00  0.00    -0.122 A  
HETATM   33  C   UNL     1      -8.938   3.593  68.374  1.00  0.00    -0.176 A  
HETATM   34 CL   UNL     1      -8.083   2.004  66.374  1.00  0.00    -0.077 Cl 
HETATM   35  C   UNL     1      -9.463   4.783  68.888  1.00  0.00    -0.209 A  
ENDBRANCH  26  29
ENDBRANCH  17  19
ENDBRANCH  11  17
ENDBRANCH   7   9
ENDBRANCH   4   7
ENDBRANCH   3   4
ENDBRANCH   2   3
TORSDOF 7
ENDMDL
MODEL      130
REMARK 921   NORMALIZED FREE ENERGY PREDICTED BY IDOCK:   -5.00 KCAL/MOL
REMARK 922        TOTAL FREE ENERGY PREDICTED BY IDOCK:   -8.80 KCAL/MOL
REMARK 923 INTER-LIGAND FREE ENERGY PREDICTED BY IDOCK:   -7.78 KCAL/MOL
REMARK 924 INTRA-LIGAND FREE ENERGY PREDICTED BY IDOCK:   -1.02 KCAL/MOL
REMARK 927      BINDING AFFINITY PREDICTED BY RF-SCORE:    0.00 PKD
ROOT
HETATM    1  C   UNL     1     -11.399   5.625  72.642  1.00  0.00    -0.356 C  
HETATM    2  C   UNL     1     -10.462   5.025  71.606  1.00  0.00    -0.232 C  
ENDROOT
BRANCH   2   3
HETATM    3  C   UNL     1     -10.769   5.535  70.201  1.00  0.00    -0.278 C  
BRANCH   3   4
HETATM    4  S   UNL     1      -9.481   5.052  69.049  1.00  0.00    -0.149 S  
HETATM    5  O   UNL     1      -9.973   5.180  67.695  1.00  0.00    -0.152 OA 
HETATM    6  O   UNL     1      -8.872   3.834  69.527  1.00  0.00    -0.077 OA 
BRANCH   4   7
HETATM    7  N   UNL     1      -8.319   6.244  69.346  1.00  0.00    -0.120 N  
HETATM    8  H   UNL     1      -7.832   6.295  70.241  1.00  0.00     0.000 HD 
BRANCH   7   9
HETATM    9  C   UNL     1      -8.046   7.179  68.300  1.00  0.00    -0.124 A  
HETATM   10  C   UNL     1      -8.781   8.368  68.200  1.00  0.00    -0.143 A  
HETATM   11  C   UNL     1      -8.357   9.394  67.352  1.00  0.00    -0.125 A  
HETATM   12  F   UNL     1      -9.852   8.528  68.995  1.00  0.00    -0.168 F  
HETATM   13  C   UNL     1      -7.012   6.922  67.403  1.00  0.00    -0.079 A  
HETATM   14  C   UNL     1      -7.322   9.124  66.455  1.00  0.00    -0.089 A  
HETATM   15  C   UNL     1      -6.670   7.888  66.457  1.00  0.00    -0.058 A  
HETATM   16  F   UNL     1      -6.888  10.051  65.590  1.00  0.00    -0.088 F  
BRANCH  11  17
HETATM   17  C   UNL     1      -8.931  10.759  67.409  1.00  0.00    -0.139 C  
HETATM   18  O   UNL     1      -8.793  11.413  68.441  1.00  0.00    -0.158 OA 
BRANCH  17  19
HETATM   19  C   UNL     1      -9.624  11.324  66.245  1.00  0.00    -0.235 A  
HETATM   20  C   UNL     1     -10.084  10.542  65.194  1.00  0.00    -0.314 A  
HETATM   21  N   UNL     1     -10.833  11.324  64.357  1.00  0.00    -0.331 NA 
HETATM   22  C   UNL     1     -10.838  12.611  64.816  1.00  0.00    -0.302 A  
HETATM   23  H   UNL     1     -11.313  10.997  63.519  1.00  0.00     0.000 HD 
HETATM   24  N   UNL     1     -11.543  13.614  64.263  1.00  0.00    -0.389 NA 
HETATM   25  C   UNL     1     -11.371  14.800  64.906  1.00  0.00    -0.410 A  
HETATM   26  C   UNL     1     -10.519  15.056  65.986  1.00  0.00    -0.326 A  
HETATM   27  C   UNL     1      -9.790  13.956  66.470  1.00  0.00    -0.296 A  
HETATM   28  C   UNL     1     -10.000  12.674  65.922  1.00  0.00    -0.274 A  
BRANCH  26  29
HETATM   29  C   UNL     1     -10.411  16.383  66.636  1.00  0.00    -0.292 A  
HETATM   30  C   UNL     1     -10.473  17.579  65.896  1.00  0.00    -0.251 A  
HETATM   31  C   UNL     1     -10.438  18.829  66.529  1.00  0.00    -0.484 A  
HETATM   32  C   UNL     1     -10.349  18.904  67.915  1.00  0.00    -0.404 A  
HETATM   33  C   UNL     1     -10.272  17.742  68.672  1.00  0.00    -0.377 A  
HETATM   34 CL   UNL     1     -10.343  20.435  68.697  1.00  0.00    -0.270 Cl 
HETATM   35  C   UNL     1     -10.292  16.497  68.035  1.00  0.00    -0.294 A  
ENDBRANCH  26  29
ENDBRANCH  17  19
ENDBRANCH  11  17
ENDBRANCH   7   9
ENDBRANCH   4   7
ENDBRANCH   3   4
ENDBRANCH   2   3
TORSDOF 7
ENDMDL
MODEL      131
REMARK 921   NORMALIZED FREE ENERGY PREDICTED BY IDOCK:   -4.95 KCAL/MOL
REMARK 922        TOTAL FREE ENERGY PREDICTED BY IDOCK:   -8.73 KCAL/MOL
REMARK 923 INTER-LIGAND FREE ENERGY PREDICTED BY IDOCK:   -7.83 KCAL/MOL
REMARK 924 INTRA-LIGAND FREE ENERGY PREDICTED BY IDOCK:   -0.90 KCAL/MOL
REMARK 927      BINDING AFFINITY PREDICTED BY RF-SCORE:    0.00 PKD
ROOT
HETATM    1  C   UNL     1      -9.574   3.913  66.501  1.00  0.00    -0.211 C  
HETATM    2  C   UNL     1      -9.482   5.305  67.107  1.00  0.00    -0.132 C  
ENDROOT
BRANCH   2   3
HETATM    3  C   UNL     1      -9.142   5.254  68.593  1.00  0.00    -0.109 C  
BRANCH   3   4
HETATM    4  S   UNL     1      -9.642   6.769  69.416  1.00  0.00    -0.145 S  
HETATM    5  O   UNL     1      -8.519   7.678  69.473  1.00  0.00    -0.129 OA 
HETATM    6  O   UNL     1     -10.403   6.422  70.592  1.00  0.00    -0.189 OA 
BRANCH   4   7
HETATM    7  N   UNL     1     -10.796   7.359  68.330  1.00  0.00    -0.416 N  
HETATM    8  H   UNL     1     -11.700   6.899  68.219  1.00  0.00     0.000 HD 
BRANCH   7   9
HETATM    9  C   UNL     1     -10.459   8.524  67.573  1.00  0.00    -0.258 A  
HETATM   10  C   UNL     1     -10.386   9.777  68.195  1.00  0.00    -0.202 A  
HETATM   11  C   UNL     1      -9.812  10.865  67.532  1.00  0.00    -0.192 A  
HETATM   12  F   UNL     1     -10.805   9.888  69.466  1.00  0.00    -0.209 F  
HETATM   13  C   UNL     1     -10.159   8.400  66.219  1.00  0.00    -0.136 A  
HETATM   14  C   UNL     1      -9.519  10.729  66.173  1.00  0.00    -0.187 A  
HETATM   15  C   UNL     1      -9.716   9.516  65.511  1.00  0.00    -0.344 A  
HETATM   16  F   UNL     1      -8.999  11.743  65.467  1.00  0.00    -0.169 F  
BRANCH  11  17
HETATM   17  C   UNL     1      -9.464  12.126  68.228  1.00  0.00    -0.204 C  
HETATM   18  O   UNL     1      -8.315  12.271  68.642  1.00  0.00    -0.110 OA 
BRANCH  17  19
HETATM   19  C   UNL     1     -10.466  13.186  68.394  1.00  0.00    -0.261 A  
HETATM   20  C   UNL     1     -11.710  12.959  68.966  1.00  0.00    -0.327 A  
HETATM   21  N   UNL     1     -12.341  14.161  69.139  1.00  0.00    -0.520 NA 
HETATM   22  C   UNL     1     -11.554  15.166  68.654  1.00  0.00    -0.338 A  
HETATM   23  H   UNL     1     -13.259  14.287  69.565  1.00  0.00     0.000 HD 
HETATM   24  N   UNL     1     -11.850  16.475  68.740  1.00  0.00     0.042 NA 
HETATM   25  C   UNL     1     -10.903  17.271  68.175  1.00  0.00    -0.294 A  
HETATM   26  C   UNL     1      -9.753  16.858  67.495  1.00  0.00    -0.249 A  
HETATM   27  C   UNL     1      -9.548  15.469  67.418  1.00  0.00    -0.213 A  
HETATM   28  C   UNL     1     -10.431  14.588  68.075  1.00  0.00    -0.236 A  
BRANCH  26  29
HETATM   29  C   UNL     1      -8.765  17.802  66.925  1.00  0.00    -0.262 A  
HETATM   30  C   UNL     1      -7.495  17.376  66.492  1.00  0.00    -0.315 A  
HETATM   31  C   UNL     1      -6.594  18.265  65.890  1.00  0.00    -0.306 A  
HETATM   32  C   UNL     1      -6.952  19.597  65.704  1.00  0.00    -0.302 A  
HETATM   33  C   UNL     1      -8.192  20.051  66.133  1.00  0.00    -0.302 A  
HETATM   34 CL   UNL     1      -5.864  20.682  64.934  1.00  0.00    -0.256 Cl 
HETATM   35  C   UNL     1      -9.083  19.163  66.745  1.00  0.00    -0.348 A  
ENDBRANCH  26  29
ENDBRANCH  17  19
ENDBRANCH  11  17
ENDBRANCH   7   9
ENDBRANCH   4   7
ENDBRANCH   3   4
ENDBRANCH   2   3
TORSDOF 7
ENDMDL
MODEL      132
REMARK 921   NORMALIZED FREE ENERGY PREDICTED BY IDOCK:   -4.90 KCAL/MOL
REMARK 922        TOTAL FREE ENERGY PREDICTED BY IDOCK:   -8.66 KCAL/MOL
REMARK 923 INTER-LIGAND FREE ENERGY PREDICTED BY IDOCK:   -7.55 KCAL/MOL
REMARK 924 INTRA-LIGAND FREE ENERGY PREDICTED BY IDOCK:   -1.11 KCAL/MOL
REMARK 927      BINDING AFFINITY PREDICTED BY RF-SCORE:    0.00 PKD
ROOT
HETATM    1  C   UNL     1      -9.444  19.822  67.155  1.00  0.00    -0.471 C  
HETATM    2  C   UNL     1      -8.029  19.778  66.602  1.00  0.00    -0.333 C  
ENDROOT
BRANCH   2   3
HETATM    3  C   UNL     1      -7.138  20.839  67.239  1.00  0.00    -0.362 C  
BRANCH   3   4
HETATM    4  S   UNL     1      -6.357  20.210  68.728  1.00  0.00    -0.312 S  
HETATM    5  O   UNL     1      -7.374  19.823  69.679  1.00  0.00    -0.246 OA 
HETATM    6  O   UNL     1      -5.274  21.094  69.087  1.00  0.00    -0.342 OA 
BRANCH   4   7
HETATM    7  N   UNL     1      -5.586  18.829  68.127  1.00  0.00    -0.184 N  
HETATM    8  H   UNL     1      -4.957  18.882  67.326  1.00  0.00     0.000 HD 
BRANCH   7   9
HETATM    9  C   UNL     1      -5.848  17.586  68.783  1.00  0.00    -0.172 A  
HETATM   10  C   UNL     1      -6.687  16.634  68.190  1.00  0.00    -0.144 A  
HETATM   11  C   UNL     1      -6.742  15.330  68.689  1.00  0.00    -0.101 A  
HETATM   12  F   UNL     1      -7.370  16.980  67.087  1.00  0.00    -0.154 F  
HETATM   13  C   UNL     1      -5.227  17.307  69.998  1.00  0.00    -0.207 A  
HETATM   14  C   UNL     1      -6.119  15.063  69.909  1.00  0.00    -0.143 A  
HETATM   15  C   UNL     1      -5.390  16.050  70.577  1.00  0.00    -0.166 A  
HETATM   16  F   UNL     1      -6.163  13.843  70.463  1.00  0.00    -0.158 F  
BRANCH  11  17
HETATM   17  C   UNL     1      -7.392  14.223  67.947  1.00  0.00    -0.156 C  
HETATM   18  O   UNL     1      -6.684  13.455  67.299  1.00  0.00    -0.196 OA 
BRANCH  17  19
HETATM   19  C   UNL     1      -8.847  14.037  68.012  1.00  0.00    -0.181 A  
HETATM   20  C   UNL     1      -9.740  15.100  67.985  1.00  0.00    -0.209 A  
HETATM   21  N   UNL     1     -11.012  14.603  67.883  1.00  0.00    -0.269 NA 
HETATM   22  C   UNL     1     -10.972  13.238  67.884  1.00  0.00    -0.249 A  
HETATM   23  H   UNL     1     -11.859  15.166  67.817  1.00  0.00     0.000 HD 
HETATM   24  N   UNL     1     -12.045  12.445  67.722  1.00  0.00    -0.423 NA 
HETATM   25  C   UNL     1     -11.738  11.120  67.768  1.00  0.00    -0.139 A  
HETATM   26  C   UNL     1     -10.484  10.556  68.024  1.00  0.00    -0.232 A  
HETATM   27  C   UNL     1      -9.429  11.464  68.224  1.00  0.00    -0.187 A  
HETATM   28  C   UNL     1      -9.653  12.848  68.082  1.00  0.00    -0.223 A  
BRANCH  26  29
HETATM   29  C   UNL     1     -10.239   9.095  68.038  1.00  0.00    -0.258 A  
HETATM   30  C   UNL     1     -10.355   8.334  69.216  1.00  0.00    -0.223 A  
HETATM   31  C   UNL     1     -10.190   6.943  69.204  1.00  0.00    -0.196 A  
HETATM   32  C   UNL     1      -9.913   6.286  68.010  1.00  0.00    -0.137 A  
HETATM   33  C   UNL     1      -9.778   7.011  66.832  1.00  0.00    -0.228 A  
HETATM   34 CL   UNL     1      -9.745   4.576  67.984  1.00  0.00    -0.208 Cl 
HETATM   35  C   UNL     1      -9.931   8.401  66.851  1.00  0.00    -0.341 A  
ENDBRANCH  26  29
ENDBRANCH  17  19
ENDBRANCH  11  17
ENDBRANCH   7   9
ENDBRANCH   4   7
ENDBRANCH   3   4
ENDBRANCH   2   3
TORSDOF 7
ENDMDL
MODEL      133
REMARK 921   NORMALIZED FREE ENERGY PREDICTED BY IDOCK:   -4.89 KCAL/MOL
REMARK 922        TOTAL FREE ENERGY PREDICTED BY IDOCK:   -8.64 KCAL/MOL
REMARK 923 INTER-LIGAND FREE ENERGY PREDICTED BY IDOCK:   -7.33 KCAL/MOL
REMARK 924 INTRA-LIGAND FREE ENERGY PREDICTED BY IDOCK:   -1.30 KCAL/MOL
REMARK 927      BINDING AFFINITY PREDICTED BY RF-SCORE:    0.00 PKD
ROOT
HETATM    1  C   UNL     1      -9.872  17.642  66.820  1.00  0.00    -0.304 C  
HETATM    2  C   UNL     1      -9.629  16.308  66.131  1.00  0.00    -0.362 C  
ENDROOT
BRANCH   2   3
HETATM    3  C   UNL     1     -10.881  15.799  65.423  1.00  0.00    -0.364 C  
BRANCH   3   4
HETATM    4  S   UNL     1     -11.119  14.046  65.727  1.00  0.00    -0.311 S  
HETATM    5  O   UNL     1     -10.456  13.284  64.693  1.00  0.00    -0.371 OA 
HETATM    6  O   UNL     1     -12.504  13.824  66.069  1.00  0.00    -0.454 OA 
BRANCH   4   7
HETATM    7  N   UNL     1     -10.292  13.858  67.190  1.00  0.00    -0.264 N  
HETATM    8  H   UNL     1      -9.343  14.212  67.309  1.00  0.00     0.000 HD 
BRANCH   7   9
HETATM    9  C   UNL     1     -10.972  13.186  68.253  1.00  0.00    -0.253 A  
HETATM   10  C   UNL     1     -10.914  11.791  68.363  1.00  0.00    -0.231 A  
HETATM   11  C   UNL     1     -11.350  11.153  69.527  1.00  0.00    -0.359 A  
HETATM   12  F   UNL     1     -10.357  11.092  67.361  1.00  0.00    -0.205 F  
HETATM   13  C   UNL     1     -11.658  13.932  69.209  1.00  0.00    -0.358 A  
HETATM   14  C   UNL     1     -12.039  11.910  70.476  1.00  0.00    -0.331 A  
HETATM   15  C   UNL     1     -12.220  13.285  70.309  1.00  0.00    -0.391 A  
HETATM   16  F   UNL     1     -12.515  11.355  71.600  1.00  0.00    -0.406 F  
BRANCH  11  17
HETATM   17  C   UNL     1     -11.063   9.726  69.805  1.00  0.00    -0.237 C  
HETATM   18  O   UNL     1     -11.996   8.988  70.115  1.00  0.00     0.066 OA 
BRANCH  17  19
HETATM   19  C   UNL     1      -9.695   9.204  69.686  1.00  0.00    -0.183 A  
HETATM   20  C   UNL     1      -8.665   9.603  70.528  1.00  0.00    -0.104 A  
HETATM   21  N   UNL     1      -7.569   8.821  70.283  1.00  0.00    -0.066 NA 
HETATM   22  C   UNL     1      -7.847   7.947  69.271  1.00  0.00    -0.115 A  
HETATM   23  H   UNL     1      -6.681   8.881  70.780  1.00  0.00     0.000 HD 
HETATM   24  N   UNL     1      -7.006   6.990  68.839  1.00  0.00    -0.076 NA 
HETATM   25  C   UNL     1      -7.520   6.256  67.815  1.00  0.00    -0.093 A  
HETATM   26  C   UNL     1      -8.747   6.451  67.172  1.00  0.00    -0.110 A  
HETATM   27  C   UNL     1      -9.540   7.503  67.664  1.00  0.00    -0.171 A  
HETATM   28  C   UNL     1      -9.119   8.235  68.794  1.00  0.00    -0.144 A  
BRANCH  26  29
HETATM   29  C   UNL     1      -9.233   5.587  66.072  1.00  0.00    -0.168 A  
HETATM   30  C   UNL     1     -10.525   5.028  66.083  1.00  0.00    -0.334 A  
HETATM   31  C   UNL     1     -10.999   4.269  65.004  1.00  0.00    -0.026 A  
HETATM   32  C   UNL     1     -10.190   4.062  63.892  1.00  0.00    -0.144 A  
HETATM   33  C   UNL     1      -8.905   4.588  63.857  1.00  0.00    -0.144 A  
HETATM   34 CL   UNL     1     -10.781   3.162  62.552  1.00  0.00    -0.172 Cl 
HETATM   35  C   UNL     1      -8.431   5.333  64.942  1.00  0.00    -0.150 A  
ENDBRANCH  26  29
ENDBRANCH  17  19
ENDBRANCH  11  17
ENDBRANCH   7   9
ENDBRANCH   4   7
ENDBRANCH   3   4
ENDBRANCH   2   3
TORSDOF 7
ENDMDL
MODEL      134
REMARK 921   NORMALIZED FREE ENERGY PREDICTED BY IDOCK:   -4.86 KCAL/MOL
REMARK 922        TOTAL FREE ENERGY PREDICTED BY IDOCK:   -8.60 KCAL/MOL
REMARK 923 INTER-LIGAND FREE ENERGY PREDICTED BY IDOCK:   -7.32 KCAL/MOL
REMARK 924 INTRA-LIGAND FREE ENERGY PREDICTED BY IDOCK:   -1.28 KCAL/MOL
REMARK 927      BINDING AFFINITY PREDICTED BY RF-SCORE:    0.00 PKD
ROOT
HETATM    1  C   UNL     1     -10.254  16.396  70.258  1.00  0.00     0.393 C  
HETATM    2  C   UNL     1     -11.525  16.430  71.091  1.00  0.00    -0.252 C  
ENDROOT
BRANCH   2   3
HETATM    3  C   UNL     1     -11.417  15.541  72.326  1.00  0.00    -0.402 C  
BRANCH   3   4
HETATM    4  S   UNL     1     -13.042  15.034  72.894  1.00  0.00    -0.512 S  
HETATM    5  O   UNL     1     -13.807  16.202  73.270  1.00  0.00    -0.559 OA 
HETATM    6  O   UNL     1     -12.887  13.906  73.781  1.00  0.00     0.037 OA 
BRANCH   4   7
HETATM    7  N   UNL     1     -13.684  14.367  71.479  1.00  0.00    -0.383 N  
HETATM    8  H   UNL     1     -14.413  14.848  70.952  1.00  0.00     0.000 HD 
BRANCH   7   9
HETATM    9  C   UNL     1     -13.167  13.105  71.048  1.00  0.00     0.055 A  
HETATM   10  C   UNL     1     -12.574  12.974  69.786  1.00  0.00     0.224 A  
HETATM   11  C   UNL     1     -11.843  11.829  69.462  1.00  0.00    -0.402 A  
HETATM   12  F   UNL     1     -12.657  14.005  68.929  1.00  0.00    -0.314 F  
HETATM   13  C   UNL     1     -13.215  12.014  71.912  1.00  0.00    -0.469 A  
HETATM   14  C   UNL     1     -11.902  10.740  70.333  1.00  0.00    -0.358 A  
HETATM   15  C   UNL     1     -12.606  10.817  71.537  1.00  0.00    -0.500 A  
HETATM   16  F   UNL     1     -11.254   9.597  70.067  1.00  0.00    -0.240 F  
BRANCH  11  17
HETATM   17  C   UNL     1     -10.977  11.753  68.261  1.00  0.00    -0.229 C  
HETATM   18  O   UNL     1     -11.509  11.722  67.154  1.00  0.00    -0.372 OA 
BRANCH  17  19
HETATM   19  C   UNL     1      -9.515  11.742  68.398  1.00  0.00    -0.188 A  
HETATM   20  C   UNL     1      -8.790  10.575  68.598  1.00  0.00    -0.147 A  
HETATM   21  N   UNL     1      -7.455  10.866  68.510  1.00  0.00    -0.096 NA 
HETATM   22  C   UNL     1      -7.291  12.206  68.298  1.00  0.00    -0.100 A  
HETATM   23  H   UNL     1      -6.699  10.187  68.590  1.00  0.00     0.000 HD 
HETATM   24  N   UNL     1      -6.105  12.804  68.090  1.00  0.00    -0.075 NA 
HETATM   25  C   UNL     1      -6.214  14.148  67.911  1.00  0.00    -0.155 A  
HETATM   26  C   UNL     1      -7.381  14.916  67.989  1.00  0.00    -0.138 A  
HETATM   27  C   UNL     1      -8.567  14.209  68.252  1.00  0.00    -0.175 A  
HETATM   28  C   UNL     1      -8.545  12.802  68.340  1.00  0.00    -0.123 A  
BRANCH  26  29
HETATM   29  C   UNL     1      -7.405  16.379  67.760  1.00  0.00    -0.153 A  
HETATM   30  C   UNL     1      -6.990  17.292  68.748  1.00  0.00    -0.230 A  
HETATM   31  C   UNL     1      -6.952  18.670  68.497  1.00  0.00    -0.285 A  
HETATM   32  C   UNL     1      -7.322  19.159  67.249  1.00  0.00    -0.223 A  
HETATM   33  C   UNL     1      -7.749  18.285  66.257  1.00  0.00    -0.283 A  
HETATM   34 CL   UNL     1      -7.241  20.846  66.925  1.00  0.00    -0.341 Cl 
HETATM   35  C   UNL     1      -7.799  16.912  66.517  1.00  0.00    -0.330 A  
ENDBRANCH  26  29
ENDBRANCH  17  19
ENDBRANCH  11  17
ENDBRANCH   7   9
ENDBRANCH   4   7
ENDBRANCH   3   4
ENDBRANCH   2   3
TORSDOF 7
ENDMDL
MODEL      135
REMARK 921   NORMALIZED FREE ENERGY PREDICTED BY IDOCK:   -4.84 KCAL/MOL
REMARK 922        TOTAL FREE ENERGY PREDICTED BY IDOCK:   -8.57 KCAL/MOL
REMARK 923 INTER-LIGAND FREE ENERGY PREDICTED BY IDOCK:   -6.87 KCAL/MOL
REMARK 924 INTRA-LIGAND FREE ENERGY PREDICTED BY IDOCK:   -1.71 KCAL/MOL
REMARK 927      BINDING AFFINITY PREDICTED BY RF-SCORE:    0.00 PKD
ROOT
HETATM    1  C   UNL     1     -11.149   6.314  68.907  1.00  0.00    -0.434 C  
HETATM    2  C   UNL     1     -11.795   6.767  70.207  1.00  0.00    -0.359 C  
ENDROOT
BRANCH   2   3
HETATM    3  C   UNL     1     -10.939   6.413  71.419  1.00  0.00    -0.267 C  
BRANCH   3   4
HETATM    4  S   UNL     1     -10.533   7.881  72.368  1.00  0.00    -0.304 S  
HETATM    5  O   UNL     1     -10.818   7.645  73.765  1.00  0.00    -0.268 OA 
HETATM    6  O   UNL     1     -11.046   9.035  71.669  1.00  0.00    -0.313 OA 
BRANCH   4   7
HETATM    7  N   UNL     1      -8.860   7.962  72.134  1.00  0.00    -0.133 N  
HETATM    8  H   UNL     1      -8.249   8.386  72.832  1.00  0.00     0.000 HD 
BRANCH   7   9
HETATM    9  C   UNL     1      -8.333   7.414  70.923  1.00  0.00    -0.115 A  
HETATM   10  C   UNL     1      -8.148   8.227  69.798  1.00  0.00    -0.118 A  
HETATM   11  C   UNL     1      -7.402   7.769  68.709  1.00  0.00    -0.087 A  
HETATM   12  F   UNL     1      -8.632   9.479  69.825  1.00  0.00    -0.128 F  
HETATM   13  C   UNL     1      -7.962   6.072  70.882  1.00  0.00    -0.115 A  
HETATM   14  C   UNL     1      -7.038   6.422  68.677  1.00  0.00    -0.083 A  
HETATM   15  C   UNL     1      -7.339   5.568  69.741  1.00  0.00    -0.066 A  
HETATM   16  F   UNL     1      -6.353   5.908  67.646  1.00  0.00    -0.034 F  
BRANCH  11  17
HETATM   17  C   UNL     1      -6.948   8.670  67.623  1.00  0.00    -0.075 C  
HETATM   18  O   UNL     1      -5.786   9.073  67.640  1.00  0.00    -0.042 OA 
BRANCH  17  19
HETATM   19  C   UNL     1      -7.862   9.049  66.538  1.00  0.00    -0.100 A  
HETATM   20  C   UNL     1      -8.249   8.163  65.541  1.00  0.00    -0.144 A  
HETATM   21  N   UNL     1      -9.229   8.750  64.787  1.00  0.00    -0.394 NA 
HETATM   22  C   UNL     1      -9.463  10.016  65.245  1.00  0.00    -0.263 A  
HETATM   23  H   UNL     1      -9.712   8.310  64.004  1.00  0.00     0.000 HD 
HETATM   24  N   UNL     1     -10.419  10.833  64.769  1.00  0.00    -0.311 NA 
HETATM   25  C   UNL     1     -10.440  12.043  65.391  1.00  0.00    -0.275 A  
HETATM   26  C   UNL     1      -9.557  12.498  66.376  1.00  0.00    -0.247 A  
HETATM   27  C   UNL     1      -8.563  11.589  66.780  1.00  0.00    -0.170 A  
HETATM   28  C   UNL     1      -8.549  10.281  66.257  1.00  0.00    -0.144 A  
BRANCH  26  29
HETATM   29  C   UNL     1      -9.669  13.831  67.012  1.00  0.00    -0.251 A  
HETATM   30  C   UNL     1     -10.120  14.958  66.298  1.00  0.00    -0.298 A  
HETATM   31  C   UNL     1     -10.288  16.199  66.927  1.00  0.00    -0.297 A  
HETATM   32  C   UNL     1     -10.015  16.332  68.285  1.00  0.00    -0.236 A  
HETATM   33  C   UNL     1      -9.554  15.243  69.013  1.00  0.00    -0.237 A  
HETATM   34 CL   UNL     1     -10.254  17.844  69.068  1.00  0.00    -0.352 Cl 
HETATM   35  C   UNL     1      -9.375  14.009  68.378  1.00  0.00    -0.210 A  
ENDBRANCH  26  29
ENDBRANCH  17  19
ENDBRANCH  11  17
ENDBRANCH   7   9
ENDBRANCH   4   7
ENDBRANCH   3   4
ENDBRANCH   2   3
TORSDOF 7
ENDMDL
MODEL      136
REMARK 921   NORMALIZED FREE ENERGY PREDICTED BY IDOCK:   -4.83 KCAL/MOL
REMARK 922        TOTAL FREE ENERGY PREDICTED BY IDOCK:   -8.56 KCAL/MOL
REMARK 923 INTER-LIGAND FREE ENERGY PREDICTED BY IDOCK:   -7.21 KCAL/MOL
REMARK 924 INTRA-LIGAND FREE ENERGY PREDICTED BY IDOCK:   -1.35 KCAL/MOL
REMARK 927      BINDING AFFINITY PREDICTED BY RF-SCORE:    0.00 PKD
ROOT
HETATM    1  C   UNL     1     -10.597  19.633  65.885  1.00  0.00    -0.566 C  
HETATM    2  C   UNL     1     -10.295  18.717  67.060  1.00  0.00    -0.454 C  
ENDROOT
BRANCH   2   3
HETATM    3  C   UNL     1      -8.798  18.470  67.217  1.00  0.00    -0.270 C  
BRANCH   3   4
HETATM    4  S   UNL     1      -8.351  16.841  66.612  1.00  0.00    -0.290 S  
HETATM    5  O   UNL     1      -6.911  16.716  66.584  1.00  0.00    -0.218 OA 
HETATM    6  O   UNL     1      -9.165  16.540  65.459  1.00  0.00    -0.430 OA 
BRANCH   4   7
HETATM    7  N   UNL     1      -8.982  15.860  67.836  1.00  0.00    -0.181 N  
HETATM    8  H   UNL     1      -9.886  16.064  68.263  1.00  0.00     0.000 HD 
BRANCH   7   9
HETATM    9  C   UNL     1      -8.204  14.734  68.251  1.00  0.00    -0.142 A  
HETATM   10  C   UNL     1      -8.194  13.558  67.490  1.00  0.00    -0.183 A  
HETATM   11  C   UNL     1      -7.250  12.560  67.740  1.00  0.00    -0.125 A  
HETATM   12  F   UNL     1      -9.058  13.450  66.467  1.00  0.00    -0.238 F  
HETATM   13  C   UNL     1      -7.417  14.829  69.396  1.00  0.00    -0.147 A  
HETATM   14  C   UNL     1      -6.468  12.664  68.893  1.00  0.00    -0.091 A  
HETATM   15  C   UNL     1      -6.568  13.776  69.733  1.00  0.00    -0.034 A  
HETATM   16  F   UNL     1      -5.567  11.725  69.212  1.00  0.00    -0.050 F  
BRANCH  11  17
HETATM   17  C   UNL     1      -7.018  11.433  66.805  1.00  0.00    -0.128 C  
HETATM   18  O   UNL     1      -5.876  11.229  66.402  1.00  0.00    -0.134 OA 
BRANCH  17  19
HETATM   19  C   UNL     1      -8.130  10.566  66.396  1.00  0.00    -0.135 A  
HETATM   20  C   UNL     1      -8.560  10.471  65.079  1.00  0.00    -0.176 A  
HETATM   21  N   UNL     1      -9.483   9.464  64.988  1.00  0.00    -0.443 NA 
HETATM   22  C   UNL     1      -9.697   8.927  66.226  1.00  0.00    -0.275 A  
HETATM   23  H   UNL     1      -9.941   9.161  64.129  1.00  0.00     0.000 HD 
HETATM   24  N   UNL     1     -10.490   7.869  66.470  1.00  0.00    -0.124 NA 
HETATM   25  C   UNL     1     -10.537   7.534  67.788  1.00  0.00    -0.206 A  
HETATM   26  C   UNL     1      -9.919   8.204  68.849  1.00  0.00    -0.198 A  
HETATM   27  C   UNL     1      -9.144   9.325  68.502  1.00  0.00    -0.132 A  
HETATM   28  C   UNL     1      -8.962   9.664  67.146  1.00  0.00    -0.148 A  
BRANCH  26  29
HETATM   29  C   UNL     1     -10.012   7.754  70.256  1.00  0.00    -0.189 A  
HETATM   30  C   UNL     1     -10.568   8.569  71.261  1.00  0.00    -0.296 A  
HETATM   31  C   UNL     1     -10.715   8.107  72.576  1.00  0.00    -0.419 A  
HETATM   32  C   UNL     1     -10.315   6.817  72.907  1.00  0.00    -0.221 A  
HETATM   33  C   UNL     1      -9.751   5.993  71.942  1.00  0.00    -0.173 A  
HETATM   34 CL   UNL     1     -10.528   6.234  74.511  1.00  0.00    -0.211 Cl 
HETATM   35  C   UNL     1      -9.593   6.463  70.634  1.00  0.00    -0.186 A  
ENDBRANCH  26  29
ENDBRANCH  17  19
ENDBRANCH  11  17
ENDBRANCH   7   9
ENDBRANCH   4   7
ENDBRANCH   3   4
ENDBRANCH   2   3
TORSDOF 7
ENDMDL
MODEL      137
REMARK 921   NORMALIZED FREE ENERGY PREDICTED BY IDOCK:   -4.75 KCAL/MOL
REMARK 922        TOTAL FREE ENERGY PREDICTED BY IDOCK:   -8.45 KCAL/MOL
REMARK 923 INTER-LIGAND FREE ENERGY PREDICTED BY IDOCK:   -7.82 KCAL/MOL
REMARK 924 INTRA-LIGAND FREE ENERGY PREDICTED BY IDOCK:   -0.62 KCAL/MOL
REMARK 927      BINDING AFFINITY PREDICTED BY RF-SCORE:    0.00 PKD
ROOT
HETATM    1  C   UNL     1      -5.985  13.913  72.059  1.00  0.00     0.248 C  
HETATM    2  C   UNL     1      -5.182  14.904  71.232  1.00  0.00    -0.134 C  
ENDROOT
BRANCH   2   3
HETATM    3  C   UNL     1      -5.943  15.353  69.989  1.00  0.00    -0.146 C  
BRANCH   3   4
HETATM    4  S   UNL     1      -5.963  14.057  68.747  1.00  0.00    -0.090 S  
HETATM    5  O   UNL     1      -5.184  12.932  69.213  1.00  0.00    -0.072 OA 
HETATM    6  O   UNL     1      -5.738  14.658  67.454  1.00  0.00    -0.341 OA 
BRANCH   4   7
HETATM    7  N   UNL     1      -7.604  13.647  68.737  1.00  0.00    -0.222 N  
HETATM    8  H   UNL     1      -7.907  12.680  68.856  1.00  0.00     0.000 HD 
BRANCH   7   9
HETATM    9  C   UNL     1      -8.550  14.704  68.556  1.00  0.00    -0.170 A  
HETATM   10  C   UNL     1      -8.888  15.141  67.269  1.00  0.00    -0.200 A  
HETATM   11  C   UNL     1      -9.986  15.981  67.072  1.00  0.00    -0.257 A  
HETATM   12  F   UNL     1      -8.183  14.671  66.227  1.00  0.00     0.020 F  
HETATM   13  C   UNL     1      -9.169  15.268  69.669  1.00  0.00    -0.139 A  
HETATM   14  C   UNL     1     -10.597  16.543  68.195  1.00  0.00    -0.329 A  
HETATM   15  C   UNL     1     -10.176  16.214  69.485  1.00  0.00    -0.261 A  
HETATM   16  F   UNL     1     -11.634  17.385  68.077  1.00  0.00    -0.024 F  
BRANCH  11  17
HETATM   17  C   UNL     1     -10.549  16.250  65.727  1.00  0.00    -0.324 C  
HETATM   18  O   UNL     1     -10.414  17.374  65.248  1.00  0.00    -0.654 OA 
BRANCH  17  19
HETATM   19  C   UNL     1     -11.228  15.186  64.978  1.00  0.00    -0.414 A  
HETATM   20  C   UNL     1     -12.191  15.447  64.012  1.00  0.00     0.051 A  
HETATM   21  N   UNL     1     -12.505  14.277  63.376  1.00  0.00    -1.101 NA 
HETATM   22  C   UNL     1     -11.798  13.249  63.933  1.00  0.00    -0.465 A  
HETATM   23  H   UNL     1     -13.165  14.186  62.604  1.00  0.00     0.000 HD 
HETATM   24  N   UNL     1     -11.821  11.980  63.488  1.00  0.00    -0.488 NA 
HETATM   25  C   UNL     1     -11.034  11.147  64.220  1.00  0.00    -0.205 A  
HETATM   26  C   UNL     1     -10.303  11.473  65.367  1.00  0.00    -0.322 A  
HETATM   27  C   UNL     1     -10.373  12.814  65.783  1.00  0.00    -0.297 A  
HETATM   28  C   UNL     1     -11.082  13.756  65.010  1.00  0.00    -0.348 A  
BRANCH  26  29
HETATM   29  C   UNL     1      -9.455  10.499  66.092  1.00  0.00    -0.222 A  
HETATM   30  C   UNL     1      -9.845   9.157  66.262  1.00  0.00    -0.359 A  
HETATM   31  C   UNL     1      -9.004   8.227  66.888  1.00  0.00    -0.169 A  
HETATM   32  C   UNL     1      -7.753   8.623  67.351  1.00  0.00    -0.098 A  
HETATM   33  C   UNL     1      -7.345   9.943  67.211  1.00  0.00    -0.087 A  
HETATM   34 CL   UNL     1      -6.704   7.478  68.088  1.00  0.00    -0.057 Cl 
HETATM   35  C   UNL     1      -8.193  10.871  66.598  1.00  0.00    -0.145 A  
ENDBRANCH  26  29
ENDBRANCH  17  19
ENDBRANCH  11  17
ENDBRANCH   7   9
ENDBRANCH   4   7
ENDBRANCH   3   4
ENDBRANCH   2   3
TORSDOF 7
ENDMDL
MODEL      138
REMARK 921   NORMALIZED FREE ENERGY PREDICTED BY IDOCK:   -4.75 KCAL/MOL
REMARK 922        TOTAL FREE ENERGY PREDICTED BY IDOCK:   -8.44 KCAL/MOL
REMARK 923 INTER-LIGAND FREE ENERGY PREDICTED BY IDOCK:   -6.77 KCAL/MOL
REMARK 924 INTRA-LIGAND FREE ENERGY PREDICTED BY IDOCK:   -1.67 KCAL/MOL
REMARK 927      BINDING AFFINITY PREDICTED BY RF-SCORE:    0.00 PKD
ROOT
HETATM    1  C   UNL     1      -6.160  19.505  65.946  1.00  0.00    -0.202 C  
HETATM    2  C   UNL     1      -6.472  18.024  65.808  1.00  0.00    -0.293 C  
ENDROOT
BRANCH   2   3
HETATM    3  C   UNL     1      -5.668  17.181  66.793  1.00  0.00    -0.196 C  
BRANCH   3   4
HETATM    4  S   UNL     1      -6.679  16.695  68.194  1.00  0.00    -0.148 S  
HETATM    5  O   UNL     1      -6.379  17.547  69.323  1.00  0.00    -0.223 OA 
HETATM    6  O   UNL     1      -6.658  15.256  68.297  1.00  0.00    -0.098 OA 
BRANCH   4   7
HETATM    7  N   UNL     1      -8.227  17.049  67.611  1.00  0.00    -0.183 N  
HETATM    8  H   UNL     1      -8.406  17.894  67.069  1.00  0.00     0.000 HD 
BRANCH   7   9
HETATM    9  C   UNL     1      -9.274  16.122  67.906  1.00  0.00    -0.200 A  
HETATM   10  C   UNL     1      -9.749  15.250  66.918  1.00  0.00    -0.233 A  
HETATM   11  C   UNL     1     -10.578  14.178  67.258  1.00  0.00    -0.277 A  
HETATM   12  F   UNL     1      -9.326  15.421  65.655  1.00  0.00    -0.350 F  
HETATM   13  C   UNL     1      -9.790  16.058  69.198  1.00  0.00    -0.247 A  
HETATM   14  C   UNL     1     -11.092  14.126  68.555  1.00  0.00    -0.255 A  
HETATM   15  C   UNL     1     -10.726  15.074  69.514  1.00  0.00    -0.266 A  
HETATM   16  F   UNL     1     -11.920  13.145  68.939  1.00  0.00    -0.315 F  
BRANCH  11  17
HETATM   17  C   UNL     1     -10.884  13.080  66.311  1.00  0.00    -0.278 C  
HETATM   18  O   UNL     1     -11.993  13.052  65.781  1.00  0.00    -0.384 OA 
BRANCH  17  19
HETATM   19  C   UNL     1      -9.871  12.065  65.995  1.00  0.00    -0.258 A  
HETATM   20  C   UNL     1      -8.960  12.212  64.958  1.00  0.00     0.658 A  
HETATM   21  N   UNL     1      -8.046  11.195  65.027  1.00  0.00    -0.331 NA 
HETATM   22  C   UNL     1      -8.364  10.363  66.063  1.00  0.00    -0.149 A  
HETATM   23  H   UNL     1      -7.250  11.077  64.401  1.00  0.00     0.000 HD 
HETATM   24  N   UNL     1      -7.623   9.309  66.447  1.00  0.00    -0.093 NA 
HETATM   25  C   UNL     1      -8.162   8.639  67.502  1.00  0.00    -0.110 A  
HETATM   26  C   UNL     1      -9.382   8.904  68.132  1.00  0.00    -0.151 A  
HETATM   27  C   UNL     1     -10.108   9.999  67.634  1.00  0.00    -0.232 A  
HETATM   28  C   UNL     1      -9.560  10.804  66.615  1.00  0.00    -0.208 A  
BRANCH  26  29
HETATM   29  C   UNL     1      -9.881   8.128  69.291  1.00  0.00    -0.182 A  
HETATM   30  C   UNL     1     -10.416   8.757  70.431  1.00  0.00    -0.240 A  
HETATM   31  C   UNL     1     -10.949   8.012  71.491  1.00  0.00    -0.279 A  
HETATM   32  C   UNL     1     -10.963   6.622  71.427  1.00  0.00    -0.250 A  
HETATM   33  C   UNL     1     -10.429   5.972  70.322  1.00  0.00    -0.305 A  
HETATM   34 CL   UNL     1     -11.648   5.706  72.709  1.00  0.00    -0.330 Cl 
HETATM   35  C   UNL     1      -9.886   6.719  69.271  1.00  0.00    -0.160 A  
ENDBRANCH  26  29
ENDBRANCH  17  19
ENDBRANCH  11  17
ENDBRANCH   7   9
ENDBRANCH   4   7
ENDBRANCH   3   4
ENDBRANCH   2   3
TORSDOF 7
ENDMDL
MODEL      139
REMARK 921   NORMALIZED FREE ENERGY PREDICTED BY IDOCK:   -4.74 KCAL/MOL
REMARK 922        TOTAL FREE ENERGY PREDICTED BY IDOCK:   -8.43 KCAL/MOL
REMARK 923 INTER-LIGAND FREE ENERGY PREDICTED BY IDOCK:   -7.79 KCAL/MOL
REMARK 924 INTRA-LIGAND FREE ENERGY PREDICTED BY IDOCK:   -0.64 KCAL/MOL
REMARK 927      BINDING AFFINITY PREDICTED BY RF-SCORE:    0.00 PKD
ROOT
HETATM    1  C   UNL     1      -9.279  16.652  67.185  1.00  0.00    -0.233 C  
HETATM    2  C   UNL     1      -9.241  16.109  68.605  1.00  0.00    -0.220 C  
ENDROOT
BRANCH   2   3
HETATM    3  C   UNL     1      -9.993  14.788  68.727  1.00  0.00    -0.234 C  
BRANCH   3   4
HETATM    4  S   UNL     1     -11.643  15.048  69.384  1.00  0.00    -0.336 S  
HETATM    5  O   UNL     1     -12.114  16.359  68.997  1.00  0.00    -0.042 OA 
HETATM    6  O   UNL     1     -11.664  14.604  70.758  1.00  0.00    -0.285 OA 
BRANCH   4   7
HETATM    7  N   UNL     1     -12.512  13.862  68.549  1.00  0.00    -0.351 N  
HETATM    8  H   UNL     1     -13.530  13.822  68.595  1.00  0.00     0.000 HD 
BRANCH   7   9
HETATM    9  C   UNL     1     -11.768  12.918  67.775  1.00  0.00    -0.362 A  
HETATM   10  C   UNL     1     -11.147  11.825  68.393  1.00  0.00    -0.237 A  
HETATM   11  C   UNL     1     -10.645  10.769  67.629  1.00  0.00    -0.271 A  
HETATM   12  F   UNL     1     -11.120  11.779  69.735  1.00  0.00    -0.268 F  
HETATM   13  C   UNL     1     -11.700  13.066  66.392  1.00  0.00    -0.444 A  
HETATM   14  C   UNL     1     -10.579  10.930  66.243  1.00  0.00    -0.214 A  
HETATM   15  C   UNL     1     -11.076  12.081  65.627  1.00  0.00    -0.361 A  
HETATM   16  F   UNL     1     -10.076   9.972  65.452  1.00  0.00    -0.342 F  
BRANCH  11  17
HETATM   17  C   UNL     1     -10.231   9.480  68.230  1.00  0.00    -0.193 C  
HETATM   18  O   UNL     1     -10.764   8.446  67.832  1.00  0.00    -0.182 OA 
BRANCH  17  19
HETATM   19  C   UNL     1      -9.186   9.441  69.261  1.00  0.00    -0.159 A  
HETATM   20  C   UNL     1      -8.229  10.438  69.397  1.00  0.00    -0.151 A  
HETATM   21  N   UNL     1      -7.514  10.209  70.541  1.00  0.00    -0.430 NA 
HETATM   22  C   UNL     1      -7.955   9.061  71.135  1.00  0.00    -0.127 A  
HETATM   23  H   UNL     1      -6.766  10.805  70.896  1.00  0.00     0.000 HD 
HETATM   24  N   UNL     1      -7.511   8.595  72.316  1.00  0.00    -0.299 NA 
HETATM   25  C   UNL     1      -8.107   7.428  72.684  1.00  0.00    -0.104 A  
HETATM   26  C   UNL     1      -9.035   6.688  71.944  1.00  0.00    -0.136 A  
HETATM   27  C   UNL     1      -9.408   7.232  70.702  1.00  0.00    -0.157 A  
HETATM   28  C   UNL     1      -8.913   8.491  70.307  1.00  0.00    -0.153 A  
BRANCH  26  29
HETATM   29  C   UNL     1      -9.646   5.432  72.436  1.00  0.00    -0.172 A  
HETATM   30  C   UNL     1     -10.419   5.393  73.612  1.00  0.00    -0.291 A  
HETATM   31  C   UNL     1     -11.050   4.214  74.030  1.00  0.00    -0.179 A  
HETATM   32  C   UNL     1     -10.924   3.053  73.274  1.00  0.00    -0.159 A  
HETATM   33  C   UNL     1     -10.157   3.056  72.116  1.00  0.00    -0.202 A  
HETATM   34 CL   UNL     1     -11.726   1.613  73.764  1.00  0.00    -0.283 Cl 
HETATM   35  C   UNL     1      -9.518   4.231  71.710  1.00  0.00    -0.206 A  
ENDBRANCH  26  29
ENDBRANCH  17  19
ENDBRANCH  11  17
ENDBRANCH   7   9
ENDBRANCH   4   7
ENDBRANCH   3   4
ENDBRANCH   2   3
TORSDOF 7
ENDMDL
MODEL      140
REMARK 921   NORMALIZED FREE ENERGY PREDICTED BY IDOCK:   -4.69 KCAL/MOL
REMARK 922        TOTAL FREE ENERGY PREDICTED BY IDOCK:   -8.36 KCAL/MOL
REMARK 923 INTER-LIGAND FREE ENERGY PREDICTED BY IDOCK:   -6.92 KCAL/MOL
REMARK 924 INTRA-LIGAND FREE ENERGY PREDICTED BY IDOCK:   -1.44 KCAL/MOL
REMARK 927      BINDING AFFINITY PREDICTED BY RF-SCORE:    0.00 PKD
ROOT
HETATM    1  C   UNL     1      -9.755   4.511  69.155  1.00  0.00    -0.250 C  
HETATM    2  C   UNL     1     -10.034   5.396  70.359  1.00  0.00    -0.291 C  
ENDROOT
BRANCH   2   3
HETATM    3  C   UNL     1     -11.226   6.317  70.122  1.00  0.00    -0.403 C  
BRANCH   3   4
HETATM    4  S   UNL     1     -11.978   6.806  71.677  1.00  0.00    -0.360 S  
HETATM    5  O   UNL     1     -11.771   5.765  72.659  1.00  0.00    -0.293 OA 
HETATM    6  O   UNL     1     -13.287   7.348  71.403  1.00  0.00    -0.370 OA 
BRANCH   4   7
HETATM    7  N   UNL     1     -11.042   8.157  72.075  1.00  0.00    -0.284 N  
HETATM    8  H   UNL     1     -10.438   8.157  72.898  1.00  0.00     0.000 HD 
BRANCH   7   9
HETATM    9  C   UNL     1     -11.128   9.298  71.218  1.00  0.00    -0.357 A  
HETATM   10  C   UNL     1      -9.989   9.776  70.557  1.00  0.00    -0.193 A  
HETATM   11  C   UNL     1     -10.109  10.716  69.530  1.00  0.00    -0.164 A  
HETATM   12  F   UNL     1      -8.795   9.253  70.878  1.00  0.00    -0.223 F  
HETATM   13  C   UNL     1     -12.363   9.907  71.008  1.00  0.00    -0.451 A  
HETATM   14  C   UNL     1     -11.351  11.322  69.331  1.00  0.00    -0.292 A  
HETATM   15  C   UNL     1     -12.467  10.944  70.082  1.00  0.00    -0.356 A  
HETATM   16  F   UNL     1     -11.529  12.256  68.387  1.00  0.00    -0.253 F  
BRANCH  11  17
HETATM   17  C   UNL     1      -8.985  11.049  68.624  1.00  0.00    -0.167 C  
HETATM   18  O   UNL     1      -7.955  11.513  69.109  1.00  0.00    -0.036 OA 
BRANCH  17  19
HETATM   19  C   UNL     1      -9.094  10.802  67.180  1.00  0.00    -0.153 A  
HETATM   20  C   UNL     1      -9.289  11.821  66.258  1.00  0.00    -0.225 A  
HETATM   21  N   UNL     1      -9.175  11.302  64.997  1.00  0.00    -0.347 NA 
HETATM   22  C   UNL     1      -8.950   9.957  65.074  1.00  0.00    -0.201 A  
HETATM   23  H   UNL     1      -9.246  11.837  64.132  1.00  0.00     0.000 HD 
HETATM   24  N   UNL     1      -8.717   9.162  64.015  1.00  0.00    -0.178 NA 
HETATM   25  C   UNL     1      -8.529   7.859  64.361  1.00  0.00     0.109 A  
HETATM   26  C   UNL     1      -8.623   7.307  65.642  1.00  0.00    -0.123 A  
HETATM   27  C   UNL     1      -8.913   8.209  66.682  1.00  0.00    -0.181 A  
HETATM   28  C   UNL     1      -9.012   9.589  66.412  1.00  0.00    -0.182 A  
BRANCH  26  29
HETATM   29  C   UNL     1      -8.385   5.874  65.927  1.00  0.00    -0.136 A  
HETATM   30  C   UNL     1      -9.177   4.861  65.354  1.00  0.00    -0.157 A  
HETATM   31  C   UNL     1      -8.900   3.506  65.575  1.00  0.00    -0.127 A  
HETATM   32  C   UNL     1      -7.817   3.138  66.369  1.00  0.00    -0.077 A  
HETATM   33  C   UNL     1      -7.025   4.114  66.959  1.00  0.00    -0.063 A  
HETATM   34 CL   UNL     1      -7.452   1.477  66.613  1.00  0.00    -0.055 Cl 
HETATM   35  C   UNL     1      -7.314   5.466  66.747  1.00  0.00    -0.086 A  
ENDBRANCH  26  29
ENDBRANCH  17  19
ENDBRANCH  11  17
ENDBRANCH   7   9
ENDBRANCH   4   7
ENDBRANCH   3   4
ENDBRANCH   2   3
TORSDOF 7
ENDMDL
MODEL      141
REMARK 921   NORMALIZED FREE ENERGY PREDICTED BY IDOCK:   -4.68 KCAL/MOL
REMARK 922        TOTAL FREE ENERGY PREDICTED BY IDOCK:   -8.35 KCAL/MOL
REMARK 923 INTER-LIGAND FREE ENERGY PREDICTED BY IDOCK:   -6.91 KCAL/MOL
REMARK 924 INTRA-LIGAND FREE ENERGY PREDICTED BY IDOCK:   -1.44 KCAL/MOL
REMARK 927      BINDING AFFINITY PREDICTED BY RF-SCORE:    0.00 PKD
ROOT
HETATM    1  C   UNL     1     -13.586  14.314  72.331  1.00  0.00    -0.599 C  
HETATM    2  C   UNL     1     -13.833  12.814  72.356  1.00  0.00    -0.360 C  
ENDROOT
BRANCH   2   3
HETATM    3  C   UNL     1     -12.615  12.031  71.875  1.00  0.00     0.057 C  
BRANCH   3   4
HETATM    4  S   UNL     1     -13.027  10.305  71.609  1.00  0.00    -0.483 S  
HETATM    5  O   UNL     1     -13.517  10.129  70.261  1.00  0.00    -0.004 OA 
HETATM    6  O   UNL     1     -13.762   9.827  72.757  1.00  0.00    -0.154 OA 
BRANCH   4   7
HETATM    7  N   UNL     1     -11.504   9.585  71.759  1.00  0.00    -0.359 N  
HETATM    8  H   UNL     1     -10.739  10.062  72.235  1.00  0.00     0.000 HD 
BRANCH   7   9
HETATM    9  C   UNL     1     -11.329   8.282  71.195  1.00  0.00    -0.263 A  
HETATM   10  C   UNL     1     -11.002   8.133  69.841  1.00  0.00    -0.168 A  
HETATM   11  C   UNL     1     -10.579   6.897  69.347  1.00  0.00    -0.254 A  
HETATM   12  F   UNL     1     -11.028   9.220  69.052  1.00  0.00    -0.231 F  
HETATM   13  C   UNL     1     -11.441   7.160  72.013  1.00  0.00    -0.310 A  
HETATM   14  C   UNL     1     -10.699   5.779  70.174  1.00  0.00    -0.320 A  
HETATM   15  C   UNL     1     -11.154   5.900  71.489  1.00  0.00    -0.314 A  
HETATM   16  F   UNL     1     -10.345   4.557  69.752  1.00  0.00    -0.310 F  
BRANCH  11  17
HETATM   17  C   UNL     1      -9.967   6.746  68.006  1.00  0.00    -0.144 C  
HETATM   18  O   UNL     1     -10.628   6.220  67.113  1.00  0.00    -0.229 OA 
BRANCH  17  19
HETATM   19  C   UNL     1      -8.608   7.241  67.748  1.00  0.00    -0.120 A  
HETATM   20  C   UNL     1      -7.501   6.404  67.708  1.00  0.00    -0.093 A  
HETATM   21  N   UNL     1      -6.420   7.124  67.278  1.00  0.00    -0.055 NA 
HETATM   22  C   UNL     1      -6.787   8.424  67.075  1.00  0.00    -0.070 A  
HETATM   23  H   UNL     1      -5.483   6.748  67.132  1.00  0.00     0.000 HD 
HETATM   24  N   UNL     1      -5.976   9.376  66.579  1.00  0.00    -0.058 NA 
HETATM   25  C   UNL     1      -6.583  10.590  66.480  1.00  0.00    -0.100 A  
HETATM   26  C   UNL     1      -7.878  10.919  66.891  1.00  0.00    -0.135 A  
HETATM   27  C   UNL     1      -8.638   9.869  67.437  1.00  0.00    -0.125 A  
HETATM   28  C   UNL     1      -8.112   8.561  67.470  1.00  0.00    -0.107 A  
BRANCH  26  29
HETATM   29  C   UNL     1      -8.462  12.270  66.726  1.00  0.00    -0.119 A  
HETATM   30  C   UNL     1      -7.864  13.411  67.293  1.00  0.00    -0.107 A  
HETATM   31  C   UNL     1      -8.386  14.693  67.073  1.00  0.00    -0.214 A  
HETATM   32  C   UNL     1      -9.514  14.856  66.274  1.00  0.00    -0.309 A  
HETATM   33  C   UNL     1     -10.135  13.748  65.713  1.00  0.00    -0.322 A  
HETATM   34 CL   UNL     1     -10.136  16.430  65.973  1.00  0.00    -0.352 Cl 
HETATM   35  C   UNL     1      -9.619  12.470  65.946  1.00  0.00    -0.174 A  
ENDBRANCH  26  29
ENDBRANCH  17  19
ENDBRANCH  11  17
ENDBRANCH   7   9
ENDBRANCH   4   7
ENDBRANCH   3   4
ENDBRANCH   2   3
TORSDOF 7
ENDMDL
MODEL      142
REMARK 921   NORMALIZED FREE ENERGY PREDICTED BY IDOCK:   -4.67 KCAL/MOL
REMARK 922        TOTAL FREE ENERGY PREDICTED BY IDOCK:   -8.34 KCAL/MOL
REMARK 923 INTER-LIGAND FREE ENERGY PREDICTED BY IDOCK:   -7.56 KCAL/MOL
REMARK 924 INTRA-LIGAND FREE ENERGY PREDICTED BY IDOCK:   -0.77 KCAL/MOL
REMARK 927      BINDING AFFINITY PREDICTED BY RF-SCORE:    0.00 PKD
ROOT
HETATM    1  C   UNL     1     -11.810  12.686  63.588  1.00  0.00    -0.606 C  
HETATM    2  C   UNL     1     -11.046  11.649  64.395  1.00  0.00    -0.382 C  
ENDROOT
BRANCH   2   3
HETATM    3  C   UNL     1     -11.398  11.712  65.878  1.00  0.00    -0.199 C  
BRANCH   3   4
HETATM    4  S   UNL     1     -10.316  10.650  66.839  1.00  0.00    -0.245 S  
HETATM    5  O   UNL     1      -8.938  10.950  66.518  1.00  0.00    -0.159 OA 
HETATM    6  O   UNL     1     -10.835   9.304  66.793  1.00  0.00    -0.112 OA 
BRANCH   4   7
HETATM    7  N   UNL     1     -10.661  11.177  68.409  1.00  0.00    -0.183 N  
HETATM    8  H   UNL     1     -11.270  11.978  68.575  1.00  0.00     0.000 HD 
BRANCH   7   9
HETATM    9  C   UNL     1     -10.068  10.460  69.494  1.00  0.00    -0.219 A  
HETATM   10  C   UNL     1     -10.872   9.812  70.441  1.00  0.00    -0.311 A  
HETATM   11  C   UNL     1     -10.312   8.905  71.343  1.00  0.00    -0.377 A  
HETATM   12  F   UNL     1     -12.198  10.024  70.407  1.00  0.00    -0.307 F  
HETATM   13  C   UNL     1      -8.681  10.369  69.579  1.00  0.00    -0.102 A  
HETATM   14  C   UNL     1      -8.921   8.825  71.422  1.00  0.00    -0.238 A  
HETATM   15  C   UNL     1      -8.106   9.571  70.568  1.00  0.00    -0.199 A  
HETATM   16  F   UNL     1      -8.317   8.000  72.290  1.00  0.00    -0.122 F  
BRANCH  11  17
HETATM   17  C   UNL     1     -11.140   7.998  72.173  1.00  0.00    -0.311 C  
HETATM   18  O   UNL     1     -12.241   8.390  72.554  1.00  0.00    -0.386 OA 
BRANCH  17  19
HETATM   19  C   UNL     1     -10.662   6.650  72.507  1.00  0.00    -0.259 A  
HETATM   20  C   UNL     1     -10.592   6.182  73.812  1.00  0.00    -0.244 A  
HETATM   21  N   UNL     1     -10.280   4.850  73.786  1.00  0.00    -0.185 NA 
HETATM   22  C   UNL     1     -10.103   4.446  72.493  1.00  0.00    -0.177 A  
HETATM   23  H   UNL     1     -10.192   4.250  74.606  1.00  0.00     0.000 HD 
HETATM   24  N   UNL     1      -9.861   3.178  72.117  1.00  0.00    -0.160 NA 
HETATM   25  C   UNL     1      -9.719   3.042  70.771  1.00  0.00    -0.070 A  
HETATM   26  C   UNL     1      -9.736   4.063  69.816  1.00  0.00    -0.254 A  
HETATM   27  C   UNL     1      -9.952   5.363  70.306  1.00  0.00    -0.298 A  
HETATM   28  C   UNL     1     -10.216   5.564  71.676  1.00  0.00    -0.265 A  
BRANCH  26  29
HETATM   29  C   UNL     1      -9.589   3.816  68.363  1.00  0.00    -0.172 A  
HETATM   30  C   UNL     1     -10.005   4.760  67.404  1.00  0.00    -0.204 A  
HETATM   31  C   UNL     1      -9.799   4.546  66.035  1.00  0.00    -0.240 A  
HETATM   32  C   UNL     1      -9.165   3.387  65.600  1.00  0.00    -0.154 A  
HETATM   33  C   UNL     1      -8.756   2.430  66.520  1.00  0.00    -0.128 A  
HETATM   34 CL   UNL     1      -8.877   3.138  63.923  1.00  0.00    -0.092 Cl 
HETATM   35  C   UNL     1      -8.976   2.641  67.885  1.00  0.00    -0.201 A  
ENDBRANCH  26  29
ENDBRANCH  17  19
ENDBRANCH  11  17
ENDBRANCH   7   9
ENDBRANCH   4   7
ENDBRANCH   3   4
ENDBRANCH   2   3
TORSDOF 7
ENDMDL
MODEL      143
REMARK 921   NORMALIZED FREE ENERGY PREDICTED BY IDOCK:   -4.63 KCAL/MOL
REMARK 922        TOTAL FREE ENERGY PREDICTED BY IDOCK:   -8.28 KCAL/MOL
REMARK 923 INTER-LIGAND FREE ENERGY PREDICTED BY IDOCK:   -5.66 KCAL/MOL
REMARK 924 INTRA-LIGAND FREE ENERGY PREDICTED BY IDOCK:   -2.62 KCAL/MOL
REMARK 927      BINDING AFFINITY PREDICTED BY RF-SCORE:    0.00 PKD
ROOT
HETATM    1  C   UNL     1      -8.890   8.117  65.854  1.00  0.00    -0.194 C  
HETATM    2  C   UNL     1     -10.003   7.718  66.810  1.00  0.00    -0.331 C  
ENDROOT
BRANCH   2   3
HETATM    3  C   UNL     1      -9.455   7.115  68.099  1.00  0.00    -0.132 C  
BRANCH   3   4
HETATM    4  S   UNL     1      -9.100   5.368  67.888  1.00  0.00    -0.110 S  
HETATM    5  O   UNL     1      -7.732   5.105  68.275  1.00  0.00    -0.082 OA 
HETATM    6  O   UNL     1      -9.627   4.944  66.614  1.00  0.00    -0.137 OA 
BRANCH   4   7
HETATM    7  N   UNL     1     -10.153   4.687  69.023  1.00  0.00    -0.112 N  
HETATM    8  H   UNL     1     -10.503   3.735  68.914  1.00  0.00     0.000 HD 
BRANCH   7   9
HETATM    9  C   UNL     1     -10.534   5.494  70.140  1.00  0.00    -0.300 A  
HETATM   10  C   UNL     1      -9.703   5.589  71.264  1.00  0.00    -0.166 A  
HETATM   11  C   UNL     1      -9.936   6.563  72.237  1.00  0.00    -0.176 A  
HETATM   12  F   UNL     1      -8.635   4.778  71.341  1.00  0.00    -0.106 F  
HETATM   13  C   UNL     1     -11.719   6.223  70.087  1.00  0.00    -0.274 A  
HETATM   14  C   UNL     1     -11.129   7.286  72.175  1.00  0.00    -0.246 A  
HETATM   15  C   UNL     1     -12.031   7.100  71.125  1.00  0.00    -0.381 A  
HETATM   16  F   UNL     1     -11.433   8.212  73.096  1.00  0.00    -0.440 F  
BRANCH  11  17
HETATM   17  C   UNL     1      -8.945   6.886  73.291  1.00  0.00    -0.129 C  
HETATM   18  O   UNL     1      -9.146   6.474  74.432  1.00  0.00    -0.160 OA 
BRANCH  17  19
HETATM   19  C   UNL     1      -7.739   7.658  72.968  1.00  0.00    -0.132 A  
HETATM   20  C   UNL     1      -6.556   7.533  73.684  1.00  0.00    -0.074 A  
HETATM   21  N   UNL     1      -5.576   8.241  73.042  1.00  0.00    -0.050 NA 
HETATM   22  C   UNL     1      -6.103   8.860  71.944  1.00  0.00    -0.075 A  
HETATM   23  H   UNL     1      -4.602   8.299  73.337  1.00  0.00     0.000 HD 
HETATM   24  N   UNL     1      -5.389   9.573  71.055  1.00  0.00    -0.041 NA 
HETATM   25  C   UNL     1      -6.152  10.090  70.055  1.00  0.00    -0.059 A  
HETATM   26  C   UNL     1      -7.541  10.002  69.925  1.00  0.00    -0.177 A  
HETATM   27  C   UNL     1      -8.209   9.273  70.925  1.00  0.00    -0.179 A  
HETATM   28  C   UNL     1      -7.471   8.617  71.931  1.00  0.00    -0.099 A  
BRANCH  26  29
HETATM   29  C   UNL     1      -8.288  10.585  68.786  1.00  0.00    -0.136 A  
HETATM   30  C   UNL     1      -9.686  10.746  68.820  1.00  0.00    -0.197 A  
HETATM   31  C   UNL     1     -10.375  11.362  67.766  1.00  0.00    -0.206 A  
HETATM   32  C   UNL     1      -9.674  11.836  66.662  1.00  0.00    -0.202 A  
HETATM   33  C   UNL     1      -8.295  11.680  66.593  1.00  0.00    -0.154 A  
HETATM   34 CL   UNL     1     -10.510  12.625  65.384  1.00  0.00    -0.298 Cl 
HETATM   35  C   UNL     1      -7.614  11.052  67.640  1.00  0.00    -0.104 A  
ENDBRANCH  26  29
ENDBRANCH  17  19
ENDBRANCH  11  17
ENDBRANCH   7   9
ENDBRANCH   4   7
ENDBRANCH   3   4
ENDBRANCH   2   3
TORSDOF 7
ENDMDL
MODEL      144
REMARK 921   NORMALIZED FREE ENERGY PREDICTED BY IDOCK:   -4.63 KCAL/MOL
REMARK 922        TOTAL FREE ENERGY PREDICTED BY IDOCK:   -8.28 KCAL/MOL
REMARK 923 INTER-LIGAND FREE ENERGY PREDICTED BY IDOCK:   -6.40 KCAL/MOL
REMARK 924 INTRA-LIGAND FREE ENERGY PREDICTED BY IDOCK:   -1.88 KCAL/MOL
REMARK 927      BINDING AFFINITY PREDICTED BY RF-SCORE:    0.00 PKD
ROOT
HETATM    1  C   UNL     1     -10.438  12.482  67.912  1.00  0.00    -0.226 C  
HETATM    2  C   UNL     1     -11.287  11.222  67.857  1.00  0.00    -0.367 C  
ENDROOT
BRANCH   2   3
HETATM    3  C   UNL     1     -10.617  10.121  67.043  1.00  0.00    -0.225 C  
BRANCH   3   4
HETATM    4  S   UNL     1     -10.270   8.688  68.067  1.00  0.00    -0.213 S  
HETATM    5  O   UNL     1      -8.900   8.744  68.526  1.00  0.00    -0.137 OA 
HETATM    6  O   UNL     1     -10.810   7.518  67.417  1.00  0.00    -0.267 OA 
BRANCH   4   7
HETATM    7  N   UNL     1     -11.316   8.963  69.368  1.00  0.00    -0.413 N  
HETATM    8  H   UNL     1     -12.186   9.481  69.245  1.00  0.00     0.000 HD 
BRANCH   7   9
HETATM    9  C   UNL     1     -10.936   8.443  70.645  1.00  0.00    -0.243 A  
HETATM   10  C   UNL     1     -11.484   7.242  71.113  1.00  0.00    -0.283 A  
HETATM   11  C   UNL     1     -10.934   6.600  72.226  1.00  0.00    -0.278 A  
HETATM   12  F   UNL     1     -12.492   6.685  70.423  1.00  0.00    -0.419 F  
HETATM   13  C   UNL     1      -9.982   9.117  71.403  1.00  0.00    -0.373 A  
HETATM   14  C   UNL     1      -9.981   7.286  72.980  1.00  0.00    -0.227 A  
HETATM   15  C   UNL     1      -9.526   8.548  72.591  1.00  0.00    -0.295 A  
HETATM   16  F   UNL     1      -9.438   6.744  74.079  1.00  0.00    -0.171 F  
BRANCH  11  17
HETATM   17  C   UNL     1     -11.291   5.210  72.597  1.00  0.00    -0.184 C  
HETATM   18  O   UNL     1     -12.410   4.992  73.057  1.00  0.00    -0.024 OA 
BRANCH  17  19
HETATM   19  C   UNL     1     -10.333   4.116  72.392  1.00  0.00    -0.217 A  
HETATM   20  C   UNL     1     -10.014   3.203  73.388  1.00  0.00    -0.112 A  
HETATM   21  N   UNL     1      -9.239   2.213  72.847  1.00  0.00    -0.073 NA 
HETATM   22  C   UNL     1      -9.009   2.482  71.527  1.00  0.00    -0.085 A  
HETATM   23  H   UNL     1      -8.886   1.400  73.351  1.00  0.00     0.000 HD 
HETATM   24  N   UNL     1      -8.344   1.668  70.689  1.00  0.00    -0.044 NA 
HETATM   25  C   UNL     1      -8.248   2.169  69.427  1.00  0.00    -0.044 A  
HETATM   26  C   UNL     1      -8.697   3.416  68.982  1.00  0.00    -0.142 A  
HETATM   27  C   UNL     1      -9.342   4.218  69.940  1.00  0.00    -0.232 A  
HETATM   28  C   UNL     1      -9.574   3.717  71.237  1.00  0.00    -0.243 A  
BRANCH  26  29
HETATM   29  C   UNL     1      -8.562   3.872  67.579  1.00  0.00    -0.111 A  
HETATM   30  C   UNL     1      -9.199   3.203  66.517  1.00  0.00    -0.155 A  
HETATM   31  C   UNL     1      -9.122   3.683  65.202  1.00  0.00    -0.143 A  
HETATM   32  C   UNL     1      -8.412   4.848  64.929  1.00  0.00    -0.144 A  
HETATM   33  C   UNL     1      -7.761   5.523  65.953  1.00  0.00    -0.091 A  
HETATM   34 CL   UNL     1      -8.346   5.460  63.323  1.00  0.00    -0.123 Cl 
HETATM   35  C   UNL     1      -7.829   5.033  67.261  1.00  0.00    -0.096 A  
ENDBRANCH  26  29
ENDBRANCH  17  19
ENDBRANCH  11  17
ENDBRANCH   7   9
ENDBRANCH   4   7
ENDBRANCH   3   4
ENDBRANCH   2   3
TORSDOF 7
ENDMDL
MODEL      145
REMARK 921   NORMALIZED FREE ENERGY PREDICTED BY IDOCK:   -4.62 KCAL/MOL
REMARK 922        TOTAL FREE ENERGY PREDICTED BY IDOCK:   -8.26 KCAL/MOL
REMARK 923 INTER-LIGAND FREE ENERGY PREDICTED BY IDOCK:   -6.92 KCAL/MOL
REMARK 924 INTRA-LIGAND FREE ENERGY PREDICTED BY IDOCK:   -1.35 KCAL/MOL
REMARK 927      BINDING AFFINITY PREDICTED BY RF-SCORE:    0.00 PKD
ROOT
HETATM    1  C   UNL     1      -6.782  20.035  65.276  1.00  0.00    -0.335 C  
HETATM    2  C   UNL     1      -7.304  18.651  65.628  1.00  0.00    -0.096 C  
ENDROOT
BRANCH   2   3
HETATM    3  C   UNL     1      -6.690  18.126  66.922  1.00  0.00    -0.186 C  
BRANCH   3   4
HETATM    4  S   UNL     1      -7.942  17.931  68.192  1.00  0.00    -0.273 S  
HETATM    5  O   UNL     1      -8.047  19.153  68.957  1.00  0.00    -0.318 OA 
HETATM    6  O   UNL     1      -7.757  16.647  68.826  1.00  0.00    -0.209 OA 
BRANCH   4   7
HETATM    7  N   UNL     1      -9.330  17.732  67.246  1.00  0.00    -0.250 N  
HETATM    8  H   UNL     1      -9.611  18.438  66.565  1.00  0.00     0.000 HD 
BRANCH   7   9
HETATM    9  C   UNL     1     -10.096  16.539  67.435  1.00  0.00    -0.279 A  
HETATM   10  C   UNL     1      -9.754  15.362  66.758  1.00  0.00    -0.240 A  
HETATM   11  C   UNL     1     -10.325  14.141  67.127  1.00  0.00    -0.265 A  
HETATM   12  F   UNL     1      -8.809  15.421  65.805  1.00  0.00    -0.326 F  
HETATM   13  C   UNL     1     -11.159  16.542  68.334  1.00  0.00    -0.333 A  
HETATM   14  C   UNL     1     -11.393  14.157  68.026  1.00  0.00    -0.299 A  
HETATM   15  C   UNL     1     -11.829  15.350  68.606  1.00  0.00    -0.317 A  
HETATM   16  F   UNL     1     -12.010  13.026  68.397  1.00  0.00    -0.339 F  
BRANCH  11  17
HETATM   17  C   UNL     1      -9.806  12.842  66.638  1.00  0.00    -0.250 C  
HETATM   18  O   UNL     1     -10.222  12.408  65.566  1.00  0.00    -0.265 OA 
BRANCH  17  19
HETATM   19  C   UNL     1      -8.797  12.106  67.410  1.00  0.00    -0.181 A  
HETATM   20  C   UNL     1      -7.984  12.716  68.356  1.00  0.00    -0.134 A  
HETATM   21  N   UNL     1      -7.280  11.750  69.021  1.00  0.00    -0.200 NA 
HETATM   22  C   UNL     1      -7.584  10.523  68.503  1.00  0.00    -0.097 A  
HETATM   23  H   UNL     1      -6.628  11.919  69.787  1.00  0.00     0.000 HD 
HETATM   24  N   UNL     1      -7.119   9.356  68.984  1.00  0.00    -0.065 NA 
HETATM   25  C   UNL     1      -7.567   8.278  68.285  1.00  0.00    -0.101 A  
HETATM   26  C   UNL     1      -8.367   8.293  67.138  1.00  0.00    -0.123 A  
HETATM   27  C   UNL     1      -8.770   9.561  66.684  1.00  0.00    -0.146 A  
HETATM   28  C   UNL     1      -8.434  10.714  67.421  1.00  0.00    -0.122 A  
BRANCH  26  29
HETATM   29  C   UNL     1      -8.823   7.062  66.452  1.00  0.00    -0.158 A  
HETATM   30  C   UNL     1      -8.020   6.400  65.504  1.00  0.00    -0.116 A  
HETATM   31  C   UNL     1      -8.431   5.198  64.913  1.00  0.00    -0.149 A  
HETATM   32  C   UNL     1      -9.653   4.632  65.265  1.00  0.00    -0.151 A  
HETATM   33  C   UNL     1     -10.474   5.269  66.187  1.00  0.00    -0.259 A  
HETATM   34 CL   UNL     1     -10.145   3.140  64.569  1.00  0.00    -0.090 Cl 
HETATM   35  C   UNL     1     -10.065   6.475  66.765  1.00  0.00    -0.239 A  
ENDBRANCH  26  29
ENDBRANCH  17  19
ENDBRANCH  11  17
ENDBRANCH   7   9
ENDBRANCH   4   7
ENDBRANCH   3   4
ENDBRANCH   2   3
TORSDOF 7
ENDMDL
MODEL      146
REMARK 921   NORMALIZED FREE ENERGY PREDICTED BY IDOCK:   -4.60 KCAL/MOL
REMARK 922        TOTAL FREE ENERGY PREDICTED BY IDOCK:   -8.23 KCAL/MOL
REMARK 923 INTER-LIGAND FREE ENERGY PREDICTED BY IDOCK:   -6.53 KCAL/MOL
REMARK 924 INTRA-LIGAND FREE ENERGY PREDICTED BY IDOCK:   -1.69 KCAL/MOL
REMARK 927      BINDING AFFINITY PREDICTED BY RF-SCORE:    0.00 PKD
ROOT
HETATM    1  C   UNL     1      -5.465   7.162  68.866  1.00  0.00    -0.018 C  
HETATM    2  C   UNL     1      -6.817   7.387  69.524  1.00  0.00    -0.049 C  
ENDROOT
BRANCH   2   3
HETATM    3  C   UNL     1      -7.604   8.499  68.837  1.00  0.00    -0.096 C  
BRANCH   3   4
HETATM    4  S   UNL     1      -7.621   9.986  69.841  1.00  0.00    -0.168 S  
HETATM    5  O   UNL     1      -7.562   9.624  71.239  1.00  0.00    -0.295 OA 
HETATM    6  O   UNL     1      -8.634  10.876  69.325  1.00  0.00    -0.103 OA 
BRANCH   4   7
HETATM    7  N   UNL     1      -6.161  10.704  69.377  1.00  0.00    -0.046 N  
HETATM    8  H   UNL     1      -5.408  10.151  68.968  1.00  0.00     0.000 HD 
BRANCH   7   9
HETATM    9  C   UNL     1      -6.022  12.112  69.580  1.00  0.00    -0.117 A  
HETATM   10  C   UNL     1      -6.273  13.008  68.533  1.00  0.00    -0.078 A  
HETATM   11  C   UNL     1      -6.391  14.377  68.786  1.00  0.00    -0.086 A  
HETATM   12  F   UNL     1      -6.476  12.514  67.301  1.00  0.00    -0.126 F  
HETATM   13  C   UNL     1      -5.677  12.592  70.841  1.00  0.00    -0.069 A  
HETATM   14  C   UNL     1      -6.040  14.848  70.053  1.00  0.00    -0.148 A  
HETATM   15  C   UNL     1      -5.657  13.968  71.068  1.00  0.00    -0.199 A  
HETATM   16  F   UNL     1      -6.096  16.153  70.353  1.00  0.00    -0.174 F  
BRANCH  11  17
HETATM   17  C   UNL     1      -6.920  15.327  67.779  1.00  0.00    -0.165 C  
HETATM   18  O   UNL     1      -6.301  15.475  66.727  1.00  0.00    -0.105 OA 
BRANCH  17  19
HETATM   19  C   UNL     1      -8.172  16.054  68.027  1.00  0.00    -0.151 A  
HETATM   20  C   UNL     1      -8.357  17.377  67.648  1.00  0.00    -0.211 A  
HETATM   21  N   UNL     1      -9.668  17.714  67.853  1.00  0.00    -0.285 NA 
HETATM   22  C   UNL     1     -10.334  16.652  68.397  1.00  0.00    -0.299 A  
HETATM   23  H   UNL     1     -10.084  18.619  67.635  1.00  0.00     0.000 HD 
HETATM   24  N   UNL     1     -11.655  16.630  68.649  1.00  0.00    -0.074 NA 
HETATM   25  C   UNL     1     -12.070  15.456  69.197  1.00  0.00    -0.242 A  
HETATM   26  C   UNL     1     -11.271  14.366  69.557  1.00  0.00    -0.294 A  
HETATM   27  C   UNL     1      -9.896  14.497  69.294  1.00  0.00    -0.021 A  
HETATM   28  C   UNL     1      -9.410  15.641  68.629  1.00  0.00    -0.201 A  
BRANCH  26  29
HETATM   29  C   UNL     1     -11.817  13.116  70.134  1.00  0.00    -0.328 A  
HETATM   30  C   UNL     1     -12.625  13.121  71.286  1.00  0.00    -0.382 A  
HETATM   31  C   UNL     1     -13.193  11.940  71.783  1.00  0.00    -0.426 A  
HETATM   32  C   UNL     1     -12.968  10.733  71.130  1.00  0.00    -0.371 A  
HETATM   33  C   UNL     1     -12.163  10.693  69.998  1.00  0.00    -0.373 A  
HETATM   34 CL   UNL     1     -13.692   9.288  71.715  1.00  0.00    -0.442 Cl 
HETATM   35  C   UNL     1     -11.587  11.871  69.514  1.00  0.00    -0.394 A  
ENDBRANCH  26  29
ENDBRANCH  17  19
ENDBRANCH  11  17
ENDBRANCH   7   9
ENDBRANCH   4   7
ENDBRANCH   3   4
ENDBRANCH   2   3
TORSDOF 7
ENDMDL
MODEL      147
REMARK 921   NORMALIZED FREE ENERGY PREDICTED BY IDOCK:   -4.56 KCAL/MOL
REMARK 922        TOTAL FREE ENERGY PREDICTED BY IDOCK:   -8.18 KCAL/MOL
REMARK 923 INTER-LIGAND FREE ENERGY PREDICTED BY IDOCK:   -7.40 KCAL/MOL
REMARK 924 INTRA-LIGAND FREE ENERGY PREDICTED BY IDOCK:   -0.78 KCAL/MOL
REMARK 927      BINDING AFFINITY PREDICTED BY RF-SCORE:    0.00 PKD
ROOT
HETATM    1  C   UNL     1      -6.845   5.902  67.846  1.00  0.00    -0.060 C  
HETATM    2  C   UNL     1      -6.650   5.688  66.353  1.00  0.00    -0.055 C  
ENDROOT
BRANCH   2   3
HETATM    3  C   UNL     1      -6.715   7.001  65.579  1.00  0.00    -0.052 C  
BRANCH   3   4
HETATM    4  S   UNL     1      -8.124   7.018  64.467  1.00  0.00    -0.014 S  
HETATM    5  O   UNL     1      -8.347   5.687  63.951  1.00  0.00    -0.124 OA 
HETATM    6  O   UNL     1      -8.007   8.164  63.597  1.00  0.00    -0.146 OA 
BRANCH   4   7
HETATM    7  N   UNL     1      -9.370   7.430  65.534  1.00  0.00    -0.281 N  
HETATM    8  H   UNL     1     -10.235   6.890  65.569  1.00  0.00     0.000 HD 
BRANCH   7   9
HETATM    9  C   UNL     1      -9.167   8.561  66.384  1.00  0.00    -0.199 A  
HETATM   10  C   UNL     1      -9.794   8.631  67.635  1.00  0.00    -0.180 A  
HETATM   11  C   UNL     1      -9.404   9.593  68.570  1.00  0.00    -0.138 A  
HETATM   12  F   UNL     1     -10.717   7.705  67.942  1.00  0.00    -0.260 F  
HETATM   13  C   UNL     1      -8.304   9.577  65.980  1.00  0.00    -0.123 A  
HETATM   14  C   UNL     1      -8.541  10.608  68.153  1.00  0.00    -0.123 A  
HETATM   15  C   UNL     1      -8.015  10.620  66.859  1.00  0.00    -0.124 A  
HETATM   16  F   UNL     1      -8.154  11.582  68.988  1.00  0.00    -0.137 F  
BRANCH  11  17
HETATM   17  C   UNL     1      -9.833   9.541  69.988  1.00  0.00    -0.233 C  
HETATM   18  O   UNL     1      -9.145   8.911  70.788  1.00  0.00    -0.174 OA 
BRANCH  17  19
HETATM   19  C   UNL     1     -11.041  10.252  70.426  1.00  0.00    -0.391 A  
HETATM   20  C   UNL     1     -11.990   9.674  71.259  1.00  0.00    -0.380 A  
HETATM   21  N   UNL     1     -12.896  10.633  71.626  1.00  0.00    -0.448 NA 
HETATM   22  C   UNL     1     -12.583  11.815  71.017  1.00  0.00    -0.310 A  
HETATM   23  H   UNL     1     -13.683  10.487  72.257  1.00  0.00     0.000 HD 
HETATM   24  N   UNL     1     -13.232  12.974  71.227  1.00  0.00    -0.180 NA 
HETATM   25  C   UNL     1     -12.728  14.004  70.494  1.00  0.00    -0.280 A  
HETATM   26  C   UNL     1     -11.699  13.939  69.550  1.00  0.00    -0.369 A  
HETATM   27  C   UNL     1     -11.108  12.676  69.367  1.00  0.00    -0.130 A  
HETATM   28  C   UNL     1     -11.506  11.589  70.170  1.00  0.00    -0.258 A  
BRANCH  26  29
HETATM   29  C   UNL     1     -11.203  15.122  68.809  1.00  0.00    -0.293 A  
HETATM   30  C   UNL     1     -11.092  15.127  67.406  1.00  0.00    -0.325 A  
HETATM   31  C   UNL     1     -10.687  16.274  66.710  1.00  0.00    -0.204 A  
HETATM   32  C   UNL     1     -10.393  17.441  67.408  1.00  0.00    -0.343 A  
HETATM   33  C   UNL     1     -10.480  17.465  68.794  1.00  0.00    -0.333 A  
HETATM   34 CL   UNL     1      -9.932  18.862  66.556  1.00  0.00    -0.395 Cl 
HETATM   35  C   UNL     1     -10.870  16.313  69.485  1.00  0.00    -0.342 A  
ENDBRANCH  26  29
ENDBRANCH  17  19
ENDBRANCH  11  17
ENDBRANCH   7   9
ENDBRANCH   4   7
ENDBRANCH   3   4
ENDBRANCH   2   3
TORSDOF 7
ENDMDL
MODEL      148
REMARK 921   NORMALIZED FREE ENERGY PREDICTED BY IDOCK:   -4.54 KCAL/MOL
REMARK 922        TOTAL FREE ENERGY PREDICTED BY IDOCK:   -8.15 KCAL/MOL
REMARK 923 INTER-LIGAND FREE ENERGY PREDICTED BY IDOCK:   -6.35 KCAL/MOL
REMARK 924 INTRA-LIGAND FREE ENERGY PREDICTED BY IDOCK:   -1.80 KCAL/MOL
REMARK 927      BINDING AFFINITY PREDICTED BY RF-SCORE:    0.00 PKD
ROOT
HETATM    1  C   UNL     1     -11.574  12.938  69.172  1.00  0.00    -0.375 C  
HETATM    2  C   UNL     1     -11.907  11.524  68.726  1.00  0.00    -0.394 C  
ENDROOT
BRANCH   2   3
HETATM    3  C   UNL     1     -10.861  10.972  67.761  1.00  0.00    -0.249 C  
BRANCH   3   4
HETATM    4  S   UNL     1     -10.379   9.306  68.223  1.00  0.00    -0.218 S  
HETATM    5  O   UNL     1      -9.034   9.324  68.753  1.00  0.00    -0.131 OA 
HETATM    6  O   UNL     1     -10.770   8.406  67.165  1.00  0.00    -0.291 OA 
BRANCH   4   7
HETATM    7  N   UNL     1     -11.477   8.988  69.470  1.00  0.00    -0.397 N  
HETATM    8  H   UNL     1     -12.470   9.199  69.365  1.00  0.00     0.000 HD 
BRANCH   7   9
HETATM    9  C   UNL     1     -10.963   8.414  70.674  1.00  0.00    -0.243 A  
HETATM   10  C   UNL     1     -11.284   7.097  71.026  1.00  0.00    -0.269 A  
HETATM   11  C   UNL     1     -10.590   6.448  72.050  1.00  0.00    -0.244 A  
HETATM   12  F   UNL     1     -12.214   6.449  70.305  1.00  0.00    -0.440 F  
HETATM   13  C   UNL     1     -10.103   9.160  71.477  1.00  0.00    -0.381 A  
HETATM   14  C   UNL     1      -9.732   7.206  72.850  1.00  0.00    -0.165 A  
HETATM   15  C   UNL     1      -9.510   8.560  72.587  1.00  0.00    -0.295 A  
HETATM   16  F   UNL     1      -9.062   6.656  73.872  1.00  0.00    -0.139 F  
BRANCH  11  17
HETATM   17  C   UNL     1     -10.695   4.988  72.279  1.00  0.00    -0.180 C  
HETATM   18  O   UNL     1     -11.512   4.579  73.102  1.00  0.00    -0.255 OA 
BRANCH  17  19
HETATM   19  C   UNL     1      -9.858   4.052  71.517  1.00  0.00    -0.251 A  
HETATM   20  C   UNL     1      -9.726   2.714  71.862  1.00  0.00    -0.151 A  
HETATM   21  N   UNL     1      -9.031   2.071  70.873  1.00  0.00    -0.069 NA 
HETATM   22  C   UNL     1      -8.671   2.969  69.909  1.00  0.00    -0.076 A  
HETATM   23  H   UNL     1      -8.815   1.075  70.858  1.00  0.00     0.000 HD 
HETATM   24  N   UNL     1      -8.043   2.646  68.764  1.00  0.00    -0.052 NA 
HETATM   25  C   UNL     1      -7.792   3.726  67.975  1.00  0.00    -0.073 A  
HETATM   26  C   UNL     1      -8.057   5.066  68.273  1.00  0.00    -0.086 A  
HETATM   27  C   UNL     1      -8.676   5.311  69.511  1.00  0.00    -0.114 A  
HETATM   28  C   UNL     1      -9.065   4.232  70.331  1.00  0.00    -0.171 A  
BRANCH  26  29
HETATM   29  C   UNL     1      -7.763   6.178  67.340  1.00  0.00    -0.094 A  
HETATM   30  C   UNL     1      -6.822   7.178  67.650  1.00  0.00    -0.074 A  
HETATM   31  C   UNL     1      -6.501   8.186  66.731  1.00  0.00    -0.056 A  
HETATM   32  C   UNL     1      -7.111   8.207  65.481  1.00  0.00    -0.067 A  
HETATM   33  C   UNL     1      -8.054   7.242  65.150  1.00  0.00    -0.128 A  
HETATM   34 CL   UNL     1      -6.693   9.421  64.337  1.00  0.00    -0.087 Cl 
HETATM   35  C   UNL     1      -8.382   6.246  66.076  1.00  0.00    -0.138 A  
ENDBRANCH  26  29
ENDBRANCH  17  19
ENDBRANCH  11  17
ENDBRANCH   7   9
ENDBRANCH   4   7
ENDBRANCH   3   4
ENDBRANCH   2   3
TORSDOF 7
ENDMDL
MODEL      149
REMARK 921   NORMALIZED FREE ENERGY PREDICTED BY IDOCK:   -4.52 KCAL/MOL
REMARK 922        TOTAL FREE ENERGY PREDICTED BY IDOCK:   -8.12 KCAL/MOL
REMARK 923 INTER-LIGAND FREE ENERGY PREDICTED BY IDOCK:   -6.36 KCAL/MOL
REMARK 924 INTRA-LIGAND FREE ENERGY PREDICTED BY IDOCK:   -1.76 KCAL/MOL
REMARK 927      BINDING AFFINITY PREDICTED BY RF-SCORE:    0.00 PKD
ROOT
HETATM    1  C   UNL     1      -8.186   4.604  63.326  1.00  0.00    -0.102 C  
HETATM    2  C   UNL     1      -7.251   4.058  64.393  1.00  0.00    -0.062 C  
ENDROOT
BRANCH   2   3
HETATM    3  C   UNL     1      -7.446   4.762  65.732  1.00  0.00    -0.081 C  
BRANCH   3   4
HETATM    4  S   UNL     1      -6.752   6.417  65.693  1.00  0.00    -0.049 S  
HETATM    5  O   UNL     1      -7.818   7.382  65.544  1.00  0.00    -0.100 OA 
HETATM    6  O   UNL     1      -5.601   6.410  64.822  1.00  0.00    -0.021 OA 
BRANCH   4   7
HETATM    7  N   UNL     1      -6.099   6.527  67.249  1.00  0.00    -0.027 N  
HETATM    8  H   UNL     1      -5.554   5.763  67.648  1.00  0.00     0.000 HD 
BRANCH   7   9
HETATM    9  C   UNL     1      -6.337   7.731  67.983  1.00  0.00    -0.050 A  
HETATM   10  C   UNL     1      -7.249   7.745  69.046  1.00  0.00    -0.080 A  
HETATM   11  C   UNL     1      -7.297   8.831  69.924  1.00  0.00    -0.052 A  
HETATM   12  F   UNL     1      -8.016   6.661  69.246  1.00  0.00    -0.103 F  
HETATM   13  C   UNL     1      -5.620   8.882  67.664  1.00  0.00    -0.039 A  
HETATM   14  C   UNL     1      -6.578   9.981  69.592  1.00  0.00    -0.062 A  
HETATM   15  C   UNL     1      -5.766  10.021  68.456  1.00  0.00    -0.041 A  
HETATM   16  F   UNL     1      -6.606  11.071  70.371  1.00  0.00    -0.153 F  
BRANCH  11  17
HETATM   17  C   UNL     1      -8.038   8.783  71.206  1.00  0.00    -0.154 C  
HETATM   18  O   UNL     1      -7.404   8.617  72.246  1.00  0.00    -0.241 OA 
BRANCH  17  19
HETATM   19  C   UNL     1      -9.496   8.957  71.230  1.00  0.00    -0.343 A  
HETATM   20  C   UNL     1     -10.320   8.258  72.103  1.00  0.00    -0.300 A  
HETATM   21  N   UNL     1     -11.589   8.761  72.007  1.00  0.00    -0.355 NA 
HETATM   22  C   UNL     1     -11.622   9.745  71.060  1.00  0.00    -0.376 A  
HETATM   23  H   UNL     1     -12.389   8.448  72.557  1.00  0.00     0.000 HD 
HETATM   24  N   UNL     1     -12.703  10.493  70.776  1.00  0.00    -0.366 NA 
HETATM   25  C   UNL     1     -12.475  11.401  69.789  1.00  0.00    -0.096 A  
HETATM   26  C   UNL     1     -11.300  11.561  69.048  1.00  0.00    -0.339 A  
HETATM   27  C   UNL     1     -10.236  10.706  69.387  1.00  0.00    -0.218 A  
HETATM   28  C   UNL     1     -10.366   9.815  70.472  1.00  0.00    -0.348 A  
BRANCH  26  29
HETATM   29  C   UNL     1     -11.137  12.594  68.000  1.00  0.00    -0.288 A  
HETATM   30  C   UNL     1     -12.238  13.291  67.466  1.00  0.00    -0.213 A  
HETATM   31  C   UNL     1     -12.066  14.314  66.525  1.00  0.00    -0.454 A  
HETATM   32  C   UNL     1     -10.787  14.665  66.106  1.00  0.00    -0.321 A  
HETATM   33  C   UNL     1      -9.681  13.987  66.603  1.00  0.00    -0.296 A  
HETATM   34 CL   UNL     1     -10.569  15.944  64.979  1.00  0.00    -0.425 Cl 
HETATM   35  C   UNL     1      -9.858  12.956  67.532  1.00  0.00    -0.208 A  
ENDBRANCH  26  29
ENDBRANCH  17  19
ENDBRANCH  11  17
ENDBRANCH   7   9
ENDBRANCH   4   7
ENDBRANCH   3   4
ENDBRANCH   2   3
TORSDOF 7
ENDMDL
MODEL      150
REMARK 921   NORMALIZED FREE ENERGY PREDICTED BY IDOCK:   -4.44 KCAL/MOL
REMARK 922        TOTAL FREE ENERGY PREDICTED BY IDOCK:   -8.01 KCAL/MOL
REMARK 923 INTER-LIGAND FREE ENERGY PREDICTED BY IDOCK:   -7.33 KCAL/MOL
REMARK 924 INTRA-LIGAND FREE ENERGY PREDICTED BY IDOCK:   -0.68 KCAL/MOL
REMARK 927      BINDING AFFINITY PREDICTED BY RF-SCORE:    0.00 PKD
ROOT
HETATM    1  C   UNL     1      -5.442   2.762  63.638  1.00  0.00    -0.009 C  
HETATM    2  C   UNL     1      -5.720   3.610  62.407  1.00  0.00    -0.012 C  
ENDROOT
BRANCH   2   3
HETATM    3  C   UNL     1      -5.299   5.062  62.612  1.00  0.00    -0.013 C  
BRANCH   3   4
HETATM    4  S   UNL     1      -6.227   5.815  63.951  1.00  0.00    -0.026 S  
HETATM    5  O   UNL     1      -5.505   5.645  65.192  1.00  0.00    -0.012 OA 
HETATM    6  O   UNL     1      -7.614   5.436  63.818  1.00  0.00    -0.063 OA 
BRANCH   4   7
HETATM    7  N   UNL     1      -6.192   7.442  63.491  1.00  0.00    -0.052 N  
HETATM    8  H   UNL     1      -5.376   7.842  63.029  1.00  0.00     0.000 HD 
BRANCH   7   9
HETATM    9  C   UNL     1      -7.349   8.235  63.772  1.00  0.00    -0.100 A  
HETATM   10  C   UNL     1      -7.720   8.504  65.096  1.00  0.00    -0.102 A  
HETATM   11  C   UNL     1      -8.681   9.477  65.378  1.00  0.00    -0.190 A  
HETATM   12  F   UNL     1      -7.075   7.864  66.085  1.00  0.00    -0.059 F  
HETATM   13  C   UNL     1      -8.081   8.778  62.719  1.00  0.00    -0.176 A  
HETATM   14  C   UNL     1      -9.411  10.012  64.315  1.00  0.00    -0.288 A  
HETATM   15  C   UNL     1      -9.136   9.646  62.995  1.00  0.00    -0.235 A  
HETATM   16  F   UNL     1     -10.372  10.925  64.517  1.00  0.00    -0.336 F  
BRANCH  11  17
HETATM   17  C   UNL     1      -8.912   9.991  66.749  1.00  0.00    -0.135 C  
HETATM   18  O   UNL     1      -8.487  11.108  67.038  1.00  0.00    -0.136 OA 
BRANCH  17  19
HETATM   19  C   UNL     1      -9.656   9.190  67.728  1.00  0.00    -0.173 A  
HETATM   20  C   UNL     1      -9.534   7.809  67.815  1.00  0.00    -0.143 A  
HETATM   21  N   UNL     1     -10.209   7.376  68.924  1.00  0.00    -0.191 NA 
HETATM   22  C   UNL     1     -10.805   8.439  69.542  1.00  0.00    -0.117 A  
HETATM   23  H   UNL     1     -10.260   6.409  69.241  1.00  0.00     0.000 HD 
HETATM   24  N   UNL     1     -11.483   8.365  70.701  1.00  0.00    -0.253 NA 
HETATM   25  C   UNL     1     -11.984   9.565  71.100  1.00  0.00    -0.348 A  
HETATM   26  C   UNL     1     -11.912  10.778  70.408  1.00  0.00    -0.448 A  
HETATM   27  C   UNL     1     -11.221  10.751  69.184  1.00  0.00    -0.323 A  
HETATM   28  C   UNL     1     -10.583   9.567  68.762  1.00  0.00    -0.240 A  
BRANCH  26  29
HETATM   29  C   UNL     1     -12.475  12.044  70.932  1.00  0.00    -0.384 A  
HETATM   30  C   UNL     1     -13.401  12.063  71.992  1.00  0.00    -0.447 A  
HETATM   31  C   UNL     1     -13.874  13.269  72.526  1.00  0.00    -0.554 A  
HETATM   32  C   UNL     1     -13.422  14.481  72.012  1.00  0.00    -0.384 A  
HETATM   33  C   UNL     1     -12.518  14.496  70.958  1.00  0.00    -0.412 A  
HETATM   34 CL   UNL     1     -13.972  15.962  72.688  1.00  0.00    -0.564 Cl 
HETATM   35  C   UNL     1     -12.060  13.289  70.419  1.00  0.00    -0.401 A  
ENDBRANCH  26  29
ENDBRANCH  17  19
ENDBRANCH  11  17
ENDBRANCH   7   9
ENDBRANCH   4   7
ENDBRANCH   3   4
ENDBRANCH   2   3
TORSDOF 7
ENDMDL
MODEL      151
REMARK 921   NORMALIZED FREE ENERGY PREDICTED BY IDOCK:   -4.41 KCAL/MOL
REMARK 922        TOTAL FREE ENERGY PREDICTED BY IDOCK:   -7.97 KCAL/MOL
REMARK 923 INTER-LIGAND FREE ENERGY PREDICTED BY IDOCK:   -7.37 KCAL/MOL
REMARK 924 INTRA-LIGAND FREE ENERGY PREDICTED BY IDOCK:   -0.60 KCAL/MOL
REMARK 927      BINDING AFFINITY PREDICTED BY RF-SCORE:    0.00 PKD
ROOT
HETATM    1  C   UNL     1     -10.128   4.544  72.897  1.00  0.00    -0.206 C  
HETATM    2  C   UNL     1     -11.237   5.579  72.799  1.00  0.00    -0.358 C  
ENDROOT
BRANCH   2   3
HETATM    3  C   UNL     1     -11.324   6.188  71.402  1.00  0.00    -0.275 C  
BRANCH   3   4
HETATM    4  S   UNL     1     -10.973   7.947  71.447  1.00  0.00    -0.237 S  
HETATM    5  O   UNL     1      -9.577   8.151  71.766  1.00  0.00    -0.160 OA 
HETATM    6  O   UNL     1     -12.027   8.607  72.179  1.00  0.00    -0.343 OA 
BRANCH   4   7
HETATM    7  N   UNL     1     -11.255   8.372  69.835  1.00  0.00    -0.444 N  
HETATM    8  H   UNL     1     -12.155   8.190  69.391  1.00  0.00     0.000 HD 
BRANCH   7   9
HETATM    9  C   UNL     1     -10.186   8.994  69.117  1.00  0.00    -0.205 A  
HETATM   10  C   UNL     1     -10.151   8.949  67.717  1.00  0.00    -0.210 A  
HETATM   11  C   UNL     1      -9.267   9.763  67.004  1.00  0.00    -0.166 A  
HETATM   12  F   UNL     1     -11.038   8.169  67.078  1.00  0.00    -0.313 F  
HETATM   13  C   UNL     1      -9.201   9.685  69.816  1.00  0.00    -0.237 A  
HETATM   14  C   UNL     1      -8.281  10.449  67.716  1.00  0.00    -0.110 A  
HETATM   15  C   UNL     1      -8.227  10.390  69.111  1.00  0.00    -0.157 A  
HETATM   16  F   UNL     1      -7.379  11.219  67.093  1.00  0.00    -0.100 F  
BRANCH  11  17
HETATM   17  C   UNL     1      -9.373   9.957  65.539  1.00  0.00    -0.223 C  
HETATM   18  O   UNL     1      -8.795   9.166  64.797  1.00  0.00    -0.193 OA 
BRANCH  17  19
HETATM   19  C   UNL     1     -10.175  11.058  64.990  1.00  0.00    -0.360 A  
HETATM   20  C   UNL     1     -11.208  10.854  64.085  1.00  0.00     0.466 A  
HETATM   21  N   UNL     1     -11.870  12.037  63.899  1.00  0.00    -0.435 NA 
HETATM   22  C   UNL     1     -11.267  13.020  64.631  1.00  0.00    -0.326 A  
HETATM   23  H   UNL     1     -12.689  12.166  63.304  1.00  0.00     0.000 HD 
HETATM   24  N   UNL     1     -11.717  14.284  64.727  1.00  0.00    -0.393 NA 
HETATM   25  C   UNL     1     -10.932  15.068  65.514  1.00  0.00    -0.358 A  
HETATM   26  C   UNL     1      -9.733  14.704  66.135  1.00  0.00    -0.344 A  
HETATM   27  C   UNL     1      -9.318  13.374  65.943  1.00  0.00     0.055 A  
HETATM   28  C   UNL     1     -10.138  12.476  65.230  1.00  0.00    -0.275 A  
BRANCH  26  29
HETATM   29  C   UNL     1      -8.952  15.625  66.992  1.00  0.00    -0.244 A  
HETATM   30  C   UNL     1      -9.566  16.430  67.970  1.00  0.00    -0.226 A  
HETATM   31  C   UNL     1      -8.810  17.246  68.822  1.00  0.00    -0.233 A  
HETATM   32  C   UNL     1      -7.423  17.266  68.715  1.00  0.00    -0.260 A  
HETATM   33  C   UNL     1      -6.788  16.494  67.751  1.00  0.00    -0.159 A  
HETATM   34 CL   UNL     1      -6.489  18.238  69.782  1.00  0.00    -0.138 Cl 
HETATM   35  C   UNL     1      -7.547  15.691  66.893  1.00  0.00    -0.201 A  
ENDBRANCH  26  29
ENDBRANCH  17  19
ENDBRANCH  11  17
ENDBRANCH   7   9
ENDBRANCH   4   7
ENDBRANCH   3   4
ENDBRANCH   2   3
TORSDOF 7
ENDMDL
MODEL      152
REMARK 921   NORMALIZED FREE ENERGY PREDICTED BY IDOCK:   -4.41 KCAL/MOL
REMARK 922        TOTAL FREE ENERGY PREDICTED BY IDOCK:   -7.96 KCAL/MOL
REMARK 923 INTER-LIGAND FREE ENERGY PREDICTED BY IDOCK:   -6.87 KCAL/MOL
REMARK 924 INTRA-LIGAND FREE ENERGY PREDICTED BY IDOCK:   -1.10 KCAL/MOL
REMARK 927      BINDING AFFINITY PREDICTED BY RF-SCORE:    0.00 PKD
ROOT
HETATM    1  C   UNL     1     -12.898  10.283  71.833  1.00  0.00    -0.528 C  
HETATM    2  C   UNL     1     -13.034  10.919  70.459  1.00  0.00    -0.212 C  
ENDROOT
BRANCH   2   3
HETATM    3  C   UNL     1     -11.700  11.451  69.946  1.00  0.00    -0.346 C  
BRANCH   3   4
HETATM    4  S   UNL     1     -11.767  13.230  69.715  1.00  0.00    -0.251 S  
HETATM    5  O   UNL     1     -11.920  13.877  70.998  1.00  0.00    -0.314 OA 
HETATM    6  O   UNL     1     -12.645  13.516  68.606  1.00  0.00     0.124 OA 
BRANCH   4   7
HETATM    7  N   UNL     1     -10.217  13.533  69.108  1.00  0.00    -0.424 N  
HETATM    8  H   UNL     1      -9.451  13.801  69.726  1.00  0.00     0.000 HD 
BRANCH   7   9
HETATM    9  C   UNL     1     -10.020  13.399  67.698  1.00  0.00    -0.229 A  
HETATM   10  C   UNL     1      -9.576  12.187  67.155  1.00  0.00    -0.194 A  
HETATM   11  C   UNL     1      -9.628  11.966  65.777  1.00  0.00    -0.241 A  
HETATM   12  F   UNL     1      -9.176  11.217  67.994  1.00  0.00    -0.141 F  
HETATM   13  C   UNL     1     -10.317  14.471  66.859  1.00  0.00    -0.264 A  
HETATM   14  C   UNL     1      -9.923  13.049  64.946  1.00  0.00    -0.130 A  
HETATM   15  C   UNL     1     -10.238  14.301  65.478  1.00  0.00    -0.379 A  
HETATM   16  F   UNL     1      -9.956  12.916  63.612  1.00  0.00    -0.355 F  
BRANCH  11  17
HETATM   17  C   UNL     1      -9.433  10.624  65.179  1.00  0.00    -0.227 C  
HETATM   18  O   UNL     1     -10.243  10.228  64.344  1.00  0.00    -0.298 OA 
BRANCH  17  19
HETATM   19  C   UNL     1      -8.279   9.800  65.561  1.00  0.00    -0.129 A  
HETATM   20  C   UNL     1      -7.049   9.891  64.922  1.00  0.00    -0.132 A  
HETATM   21  N   UNL     1      -6.139   9.135  65.610  1.00  0.00    -0.055 NA 
HETATM   22  C   UNL     1      -6.756   8.518  66.661  1.00  0.00    -0.068 A  
HETATM   23  H   UNL     1      -5.151   9.045  65.374  1.00  0.00     0.000 HD 
HETATM   24  N   UNL     1      -6.126   7.763  67.577  1.00  0.00    -0.048 NA 
HETATM   25  C   UNL     1      -6.969   7.258  68.519  1.00  0.00    -0.079 A  
HETATM   26  C   UNL     1      -8.360   7.398  68.564  1.00  0.00    -0.126 A  
HETATM   27  C   UNL     1      -8.936   8.170  67.539  1.00  0.00    -0.143 A  
HETATM   28  C   UNL     1      -8.112   8.813  66.594  1.00  0.00    -0.103 A  
BRANCH  26  29
HETATM   29  C   UNL     1      -9.198   6.825  69.642  1.00  0.00    -0.145 A  
HETATM   30  C   UNL     1      -9.658   5.495  69.597  1.00  0.00    -0.210 A  
HETATM   31  C   UNL     1     -10.392   4.941  70.655  1.00  0.00    -0.233 A  
HETATM   32  C   UNL     1     -10.671   5.707  71.782  1.00  0.00    -0.244 A  
HETATM   33  C   UNL     1     -10.242   7.027  71.851  1.00  0.00    -0.205 A  
HETATM   34 CL   UNL     1     -11.539   5.021  73.098  1.00  0.00    -0.373 Cl 
HETATM   35  C   UNL     1      -9.523   7.579  70.787  1.00  0.00    -0.163 A  
ENDBRANCH  26  29
ENDBRANCH  17  19
ENDBRANCH  11  17
ENDBRANCH   7   9
ENDBRANCH   4   7
ENDBRANCH   3   4
ENDBRANCH   2   3
TORSDOF 7
ENDMDL
MODEL      153
REMARK 921   NORMALIZED FREE ENERGY PREDICTED BY IDOCK:   -4.41 KCAL/MOL
REMARK 922        TOTAL FREE ENERGY PREDICTED BY IDOCK:   -7.96 KCAL/MOL
REMARK 923 INTER-LIGAND FREE ENERGY PREDICTED BY IDOCK:   -6.83 KCAL/MOL
REMARK 924 INTRA-LIGAND FREE ENERGY PREDICTED BY IDOCK:   -1.13 KCAL/MOL
REMARK 927      BINDING AFFINITY PREDICTED BY RF-SCORE:    0.00 PKD
ROOT
HETATM    1  C   UNL     1     -10.358   3.958  72.665  1.00  0.00    -0.228 C  
HETATM    2  C   UNL     1     -10.171   4.997  71.571  1.00  0.00    -0.273 C  
ENDROOT
BRANCH   2   3
HETATM    3  C   UNL     1      -8.847   5.741  71.716  1.00  0.00    -0.136 C  
BRANCH   3   4
HETATM    4  S   UNL     1      -9.077   7.506  71.490  1.00  0.00    -0.135 S  
HETATM    5  O   UNL     1      -7.952   8.214  72.059  1.00  0.00    -0.104 OA 
HETATM    6  O   UNL     1     -10.439   7.839  71.831  1.00  0.00    -0.209 OA 
BRANCH   4   7
HETATM    7  N   UNL     1      -9.027   7.623  69.804  1.00  0.00    -0.140 N  
HETATM    8  H   UNL     1      -9.065   6.791  69.216  1.00  0.00     0.000 HD 
BRANCH   7   9
HETATM    9  C   UNL     1      -8.931   8.930  69.233  1.00  0.00    -0.144 A  
HETATM   10  C   UNL     1     -10.035   9.510  68.595  1.00  0.00    -0.167 A  
HETATM   11  C   UNL     1     -10.032  10.868  68.268  1.00  0.00    -0.187 A  
HETATM   12  F   UNL     1     -11.122   8.751  68.380  1.00  0.00    -0.117 F  
HETATM   13  C   UNL     1      -7.742   9.645  69.354  1.00  0.00    -0.101 A  
HETATM   14  C   UNL     1      -8.833  11.574  68.390  1.00  0.00    -0.163 A  
HETATM   15  C   UNL     1      -7.686  10.963  68.902  1.00  0.00    -0.135 A  
HETATM   16  F   UNL     1      -8.750  12.871  68.061  1.00  0.00    -0.157 F  
BRANCH  11  17
HETATM   17  C   UNL     1     -11.258  11.587  67.848  1.00  0.00    -0.279 C  
HETATM   18  O   UNL     1     -12.163  11.735  68.667  1.00  0.00    -0.405 OA 
BRANCH  17  19
HETATM   19  C   UNL     1     -11.373  12.131  66.489  1.00  0.00    -0.405 A  
HETATM   20  C   UNL     1     -11.734  11.352  65.398  1.00  0.00     0.357 A  
HETATM   21  N   UNL     1     -11.924  12.170  64.317  1.00  0.00    -0.385 NA 
HETATM   22  C   UNL     1     -11.655  13.462  64.668  1.00  0.00    -0.355 A  
HETATM   23  H   UNL     1     -12.221  11.861  63.392  1.00  0.00     0.000 HD 
HETATM   24  N   UNL     1     -11.818  14.521  63.855  1.00  0.00    -0.241 NA 
HETATM   25  C   UNL     1     -11.474  15.699  64.443  1.00  0.00    -0.262 A  
HETATM   26  C   UNL     1     -10.934  15.874  65.721  1.00  0.00    -0.179 A  
HETATM   27  C   UNL     1     -10.759  14.705  66.483  1.00  0.00    -0.312 A  
HETATM   28  C   UNL     1     -11.195  13.464  65.978  1.00  0.00    -0.310 A  
BRANCH  26  29
HETATM   29  C   UNL     1     -10.604  17.203  66.286  1.00  0.00    -0.185 A  
HETATM   30  C   UNL     1     -10.641  18.373  65.504  1.00  0.00     0.025 A  
HETATM   31  C   UNL     1     -10.395  19.633  66.065  1.00  0.00    -0.620 A  
HETATM   32  C   UNL     1     -10.115  19.746  67.423  1.00  0.00    -0.422 A  
HETATM   33  C   UNL     1     -10.058  18.609  68.219  1.00  0.00    -0.431 A  
HETATM   34 CL   UNL     1      -9.849  21.294  68.123  1.00  0.00     0.330 Cl 
HETATM   35  C   UNL     1     -10.290  17.352  67.652  1.00  0.00    -0.355 A  
ENDBRANCH  26  29
ENDBRANCH  17  19
ENDBRANCH  11  17
ENDBRANCH   7   9
ENDBRANCH   4   7
ENDBRANCH   3   4
ENDBRANCH   2   3
TORSDOF 7
ENDMDL
MODEL      154
REMARK 921   NORMALIZED FREE ENERGY PREDICTED BY IDOCK:   -4.37 KCAL/MOL
REMARK 922        TOTAL FREE ENERGY PREDICTED BY IDOCK:   -7.91 KCAL/MOL
REMARK 923 INTER-LIGAND FREE ENERGY PREDICTED BY IDOCK:   -6.52 KCAL/MOL
REMARK 924 INTRA-LIGAND FREE ENERGY PREDICTED BY IDOCK:   -1.39 KCAL/MOL
REMARK 927      BINDING AFFINITY PREDICTED BY RF-SCORE:    0.00 PKD
ROOT
HETATM    1  C   UNL     1      -6.518  20.122  65.001  1.00  0.00    -0.330 C  
HETATM    2  C   UNL     1      -6.816  18.774  65.640  1.00  0.00    -0.289 C  
ENDROOT
BRANCH   2   3
HETATM    3  C   UNL     1      -6.334  18.714  67.086  1.00  0.00    -0.186 C  
BRANCH   3   4
HETATM    4  S   UNL     1      -7.722  18.604  68.219  1.00  0.00    -0.307 S  
HETATM    5  O   UNL     1      -8.015  19.915  68.751  1.00  0.00    -0.251 OA 
HETATM    6  O   UNL     1      -7.525  17.459  69.075  1.00  0.00    -0.247 OA 
BRANCH   4   7
HETATM    7  N   UNL     1      -8.958  18.129  67.166  1.00  0.00    -0.252 N  
HETATM    8  H   UNL     1      -9.205  18.693  66.353  1.00  0.00     0.000 HD 
BRANCH   7   9
HETATM    9  C   UNL     1      -9.645  16.910  67.458  1.00  0.00    -0.245 A  
HETATM   10  C   UNL     1      -9.124  15.681  67.032  1.00  0.00    -0.219 A  
HETATM   11  C   UNL     1      -9.640  14.482  67.528  1.00  0.00    -0.210 A  
HETATM   12  F   UNL     1      -8.068  15.687  66.202  1.00  0.00    -0.258 F  
HETATM   13  C   UNL     1     -10.817  16.946  68.211  1.00  0.00    -0.357 A  
HETATM   14  C   UNL     1     -10.817  14.530  68.278  1.00  0.00    -0.241 A  
HETATM   15  C   UNL     1     -11.421  15.749  68.595  1.00  0.00    -0.389 A  
HETATM   16  F   UNL     1     -11.387  13.414  68.755  1.00  0.00    -0.254 F  
BRANCH  11  17
HETATM   17  C   UNL     1      -8.959  13.181  67.327  1.00  0.00    -0.216 C  
HETATM   18  O   UNL     1      -9.340  12.453  66.413  1.00  0.00    -0.232 OA 
BRANCH  17  19
HETATM   19  C   UNL     1      -7.837  12.788  68.188  1.00  0.00    -0.146 A  
HETATM   20  C   UNL     1      -6.829  13.670  68.555  1.00  0.00    -0.098 A  
HETATM   21  N   UNL     1      -6.034  13.066  69.491  1.00  0.00    -0.102 NA 
HETATM   22  C   UNL     1      -6.475  11.792  69.713  1.00  0.00    -0.094 A  
HETATM   23  H   UNL     1      -5.234  13.499  69.952  1.00  0.00     0.000 HD 
HETATM   24  N   UNL     1      -5.957  10.956  70.629  1.00  0.00    -0.268 NA 
HETATM   25  C   UNL     1      -6.572   9.742  70.647  1.00  0.00    -0.113 A  
HETATM   26  C   UNL     1      -7.589   9.302  69.794  1.00  0.00    -0.082 A  
HETATM   27  C   UNL     1      -8.037  10.230  68.839  1.00  0.00    -0.123 A  
HETATM   28  C   UNL     1      -7.522  11.542  68.834  1.00  0.00    -0.106 A  
BRANCH  26  29
HETATM   29  C   UNL     1      -8.212   7.963  69.900  1.00  0.00    -0.120 A  
HETATM   30  C   UNL     1      -9.445   7.667  69.288  1.00  0.00    -0.158 A  
HETATM   31  C   UNL     1      -9.993   6.378  69.336  1.00  0.00    -0.184 A  
HETATM   32  C   UNL     1      -9.311   5.358  69.992  1.00  0.00    -0.148 A  
HETATM   33  C   UNL     1      -8.099   5.621  70.618  1.00  0.00    -0.116 A  
HETATM   34 CL   UNL     1      -9.962   3.767  70.022  1.00  0.00    -0.085 Cl 
HETATM   35  C   UNL     1      -7.564   6.912  70.579  1.00  0.00    -0.091 A  
ENDBRANCH  26  29
ENDBRANCH  17  19
ENDBRANCH  11  17
ENDBRANCH   7   9
ENDBRANCH   4   7
ENDBRANCH   3   4
ENDBRANCH   2   3
TORSDOF 7
ENDMDL
MODEL      155
REMARK 921   NORMALIZED FREE ENERGY PREDICTED BY IDOCK:   -4.36 KCAL/MOL
REMARK 922        TOTAL FREE ENERGY PREDICTED BY IDOCK:   -7.89 KCAL/MOL
REMARK 923 INTER-LIGAND FREE ENERGY PREDICTED BY IDOCK:   -6.91 KCAL/MOL
REMARK 924 INTRA-LIGAND FREE ENERGY PREDICTED BY IDOCK:   -0.99 KCAL/MOL
REMARK 927      BINDING AFFINITY PREDICTED BY RF-SCORE:    0.00 PKD
ROOT
HETATM    1  C   UNL     1     -11.711  15.999  72.618  1.00  0.00    -0.513 C  
HETATM    2  C   UNL     1     -12.238  15.614  71.244  1.00  0.00    -0.470 C  
ENDROOT
BRANCH   2   3
HETATM    3  C   UNL     1     -11.109  15.238  70.289  1.00  0.00    -0.293 C  
BRANCH   3   4
HETATM    4  S   UNL     1     -10.802  16.556  69.110  1.00  0.00    -0.318 S  
HETATM    5  O   UNL     1     -10.108  17.640  69.768  1.00  0.00     0.114 OA 
HETATM    6  O   UNL     1     -12.005  16.774  68.343  1.00  0.00     0.321 OA 
BRANCH   4   7
HETATM    7  N   UNL     1      -9.754  15.783  68.031  1.00  0.00    -0.211 N  
HETATM    8  H   UNL     1      -8.890  16.229  67.722  1.00  0.00     0.000 HD 
BRANCH   7   9
HETATM    9  C   UNL     1     -10.123  14.482  67.566  1.00  0.00    -0.228 A  
HETATM   10  C   UNL     1      -9.402  13.352  67.973  1.00  0.00    -0.217 A  
HETATM   11  C   UNL     1      -9.903  12.070  67.738  1.00  0.00    -0.190 A  
HETATM   12  F   UNL     1      -8.263  13.532  68.661  1.00  0.00    -0.148 F  
HETATM   13  C   UNL     1     -11.236  14.339  66.740  1.00  0.00    -0.337 A  
HETATM   14  C   UNL     1     -11.017  11.938  66.906  1.00  0.00    -0.289 A  
HETATM   15  C   UNL     1     -11.664  13.060  66.385  1.00  0.00    -0.444 A  
HETATM   16  F   UNL     1     -11.529  10.735  66.611  1.00  0.00    -0.207 F  
BRANCH  11  17
HETATM   17  C   UNL     1      -9.328  10.863  68.378  1.00  0.00    -0.172 C  
HETATM   18  O   UNL     1      -8.154  10.579  68.149  1.00  0.00    -0.108 OA 
BRANCH  17  19
HETATM   19  C   UNL     1     -10.140  10.043  69.287  1.00  0.00    -0.226 A  
HETATM   20  C   UNL     1     -10.897  10.590  70.314  1.00  0.00    -0.174 A  
HETATM   21  N   UNL     1     -11.669   9.603  70.865  1.00  0.00    -0.310 NA 
HETATM   22  C   UNL     1     -11.402   8.414  70.247  1.00  0.00    -0.129 A  
HETATM   23  H   UNL     1     -12.341   9.734  71.621  1.00  0.00     0.000 HD 
HETATM   24  N   UNL     1     -12.046   7.262  70.503  1.00  0.00    -0.175 NA 
HETATM   25  C   UNL     1     -11.586   6.221  69.756  1.00  0.00    -0.260 A  
HETATM   26  C   UNL     1     -10.519   6.240  68.853  1.00  0.00    -0.280 A  
HETATM   27  C   UNL     1      -9.878   7.480  68.682  1.00  0.00    -0.169 A  
HETATM   28  C   UNL     1     -10.370   8.625  69.341  1.00  0.00    -0.221 A  
BRANCH  26  29
HETATM   29  C   UNL     1     -10.100   5.056  68.068  1.00  0.00    -0.169 A  
HETATM   30  C   UNL     1     -10.067   5.072  66.661  1.00  0.00    -0.276 A  
HETATM   31  C   UNL     1      -9.602   3.970  65.931  1.00  0.00    -0.195 A  
HETATM   32  C   UNL     1      -9.154   2.833  66.597  1.00  0.00    -0.136 A  
HETATM   33  C   UNL     1      -9.188   2.782  67.985  1.00  0.00    -0.253 A  
HETATM   34 CL   UNL     1      -8.550   1.493  65.706  1.00  0.00    -0.101 Cl 
HETATM   35  C   UNL     1      -9.665   3.879  68.709  1.00  0.00    -0.119 A  
ENDBRANCH  26  29
ENDBRANCH  17  19
ENDBRANCH  11  17
ENDBRANCH   7   9
ENDBRANCH   4   7
ENDBRANCH   3   4
ENDBRANCH   2   3
TORSDOF 7
ENDMDL
MODEL      156
REMARK 921   NORMALIZED FREE ENERGY PREDICTED BY IDOCK:   -4.30 KCAL/MOL
REMARK 922        TOTAL FREE ENERGY PREDICTED BY IDOCK:   -7.82 KCAL/MOL
REMARK 923 INTER-LIGAND FREE ENERGY PREDICTED BY IDOCK:   -6.06 KCAL/MOL
REMARK 924 INTRA-LIGAND FREE ENERGY PREDICTED BY IDOCK:   -1.76 KCAL/MOL
REMARK 927      BINDING AFFINITY PREDICTED BY RF-SCORE:    0.00 PKD
ROOT
HETATM    1  C   UNL     1     -13.482  14.868  71.023  1.00  0.00    -0.428 C  
HETATM    2  C   UNL     1     -12.246  14.022  71.282  1.00  0.00    -0.392 C  
ENDROOT
BRANCH   2   3
HETATM    3  C   UNL     1     -12.074  12.932  70.230  1.00  0.00    -0.302 C  
BRANCH   3   4
HETATM    4  S   UNL     1     -12.644  11.347  70.849  1.00  0.00    -0.310 S  
HETATM    5  O   UNL     1     -13.377  10.659  69.810  1.00  0.00     0.090 OA 
HETATM    6  O   UNL     1     -13.195  11.542  72.169  1.00  0.00    -0.505 OA 
BRANCH   4   7
HETATM    7  N   UNL     1     -11.172  10.560  71.123  1.00  0.00    -0.161 N  
HETATM    8  H   UNL     1     -10.331  11.084  71.366  1.00  0.00     0.000 HD 
BRANCH   7   9
HETATM    9  C   UNL     1     -11.150   9.136  71.002  1.00  0.00    -0.305 A  
HETATM   10  C   UNL     1     -10.899   8.533  69.762  1.00  0.00    -0.175 A  
HETATM   11  C   UNL     1     -10.621   7.167  69.683  1.00  0.00    -0.249 A  
HETATM   12  F   UNL     1     -10.855   9.311  68.669  1.00  0.00    -0.241 F  
HETATM   13  C   UNL     1     -11.334   8.348  72.135  1.00  0.00    -0.437 A  
HETATM   14  C   UNL     1     -10.812   6.386  70.825  1.00  0.00    -0.267 A  
HETATM   15  C   UNL     1     -11.194   6.964  72.037  1.00  0.00    -0.292 A  
HETATM   16  F   UNL     1     -10.597   5.063  70.810  1.00  0.00    -0.304 F  
BRANCH  11  17
HETATM   17  C   UNL     1     -10.086   6.535  68.453  1.00  0.00    -0.160 C  
HETATM   18  O   UNL     1     -10.880   6.139  67.602  1.00  0.00    -0.282 OA 
BRANCH  17  19
HETATM   19  C   UNL     1      -8.637   6.413  68.249  1.00  0.00    -0.114 A  
HETATM   20  C   UNL     1      -8.026   5.210  67.919  1.00  0.00    -0.095 A  
HETATM   21  N   UNL     1      -6.711   5.451  67.626  1.00  0.00    -0.054 NA 
HETATM   22  C   UNL     1      -6.439   6.778  67.797  1.00  0.00    -0.050 A  
HETATM   23  H   UNL     1      -6.037   4.747  67.326  1.00  0.00     0.000 HD 
HETATM   24  N   UNL     1      -5.256   7.355  67.520  1.00  0.00    -0.023 NA 
HETATM   25  C   UNL     1      -5.243   8.690  67.784  1.00  0.00    -0.035 A  
HETATM   26  C   UNL     1      -6.274   9.446  68.349  1.00  0.00    -0.052 A  
HETATM   27  C   UNL     1      -7.459   8.749  68.645  1.00  0.00    -0.092 A  
HETATM   28  C   UNL     1      -7.582   7.389  68.298  1.00  0.00    -0.114 A  
BRANCH  26  29
HETATM   29  C   UNL     1      -6.175  10.905  68.584  1.00  0.00    -0.043 A  
HETATM   30  C   UNL     1      -5.874  11.433  69.854  1.00  0.00    -0.109 A  
HETATM   31  C   UNL     1      -5.714  12.812  70.050  1.00  0.00    -0.136 A  
HETATM   32  C   UNL     1      -5.845  13.686  68.976  1.00  0.00    -0.077 A  
HETATM   33  C   UNL     1      -6.156  13.197  67.714  1.00  0.00    -0.154 A  
HETATM   34 CL   UNL     1      -5.614  15.374  69.206  1.00  0.00    -0.096 Cl 
HETATM   35  C   UNL     1      -6.328  11.822  67.525  1.00  0.00    -0.095 A  
ENDBRANCH  26  29
ENDBRANCH  17  19
ENDBRANCH  11  17
ENDBRANCH   7   9
ENDBRANCH   4   7
ENDBRANCH   3   4
ENDBRANCH   2   3
TORSDOF 7
ENDMDL
MODEL      157
REMARK 921   NORMALIZED FREE ENERGY PREDICTED BY IDOCK:   -4.29 KCAL/MOL
REMARK 922        TOTAL FREE ENERGY PREDICTED BY IDOCK:   -7.80 KCAL/MOL
REMARK 923 INTER-LIGAND FREE ENERGY PREDICTED BY IDOCK:   -6.72 KCAL/MOL
REMARK 924 INTRA-LIGAND FREE ENERGY PREDICTED BY IDOCK:   -1.08 KCAL/MOL
REMARK 927      BINDING AFFINITY PREDICTED BY RF-SCORE:    0.00 PKD
ROOT
HETATM    1  C   UNL     1     -12.494  10.416  71.574  1.00  0.00    -0.508 C  
HETATM    2  C   UNL     1     -11.926   9.091  72.055  1.00  0.00    -0.433 C  
ENDROOT
BRANCH   2   3
HETATM    3  C   UNL     1     -10.419   9.006  71.837  1.00  0.00    -0.303 C  
BRANCH   3   4
HETATM    4  S   UNL     1      -9.694   7.724  72.863  1.00  0.00    -0.276 S  
HETATM    5  O   UNL     1     -10.746   6.979  73.518  1.00  0.00    -0.349 OA 
HETATM    6  O   UNL     1      -8.591   8.294  73.599  1.00  0.00    -0.250 OA 
BRANCH   4   7
HETATM    7  N   UNL     1      -8.956   6.754  71.691  1.00  0.00    -0.137 N  
HETATM    8  H   UNL     1      -8.187   6.129  71.930  1.00  0.00     0.000 HD 
BRANCH   7   9
HETATM    9  C   UNL     1      -9.449   6.843  70.352  1.00  0.00    -0.169 A  
HETATM   10  C   UNL     1      -8.591   7.190  69.300  1.00  0.00    -0.137 A  
HETATM   11  C   UNL     1      -8.995   7.029  67.973  1.00  0.00    -0.126 A  
HETATM   12  F   UNL     1      -7.349   7.605  69.598  1.00  0.00    -0.078 F  
HETATM   13  C   UNL     1     -10.783   6.536  70.090  1.00  0.00    -0.305 A  
HETATM   14  C   UNL     1     -10.335   6.725  67.723  1.00  0.00    -0.198 A  
HETATM   15  C   UNL     1     -11.233   6.508  68.771  1.00  0.00    -0.319 A  
HETATM   16  F   UNL     1     -10.798   6.590  66.472  1.00  0.00    -0.323 F  
BRANCH  11  17
HETATM   17  C   UNL     1      -8.047   7.119  66.838  1.00  0.00    -0.116 C  
HETATM   18  O   UNL     1      -8.076   6.244  65.976  1.00  0.00    -0.109 OA 
BRANCH  17  19
HETATM   19  C   UNL     1      -7.112   8.247  66.737  1.00  0.00    -0.077 A  
HETATM   20  C   UNL     1      -5.842   8.121  66.189  1.00  0.00    -0.040 A  
HETATM   21  N   UNL     1      -5.286   9.367  66.076  1.00  0.00    -0.039 NA 
HETATM   22  C   UNL     1      -6.149  10.301  66.576  1.00  0.00    -0.071 A  
HETATM   23  H   UNL     1      -4.369   9.568  65.679  1.00  0.00     0.000 HD 
HETATM   24  N   UNL     1      -5.936  11.628  66.545  1.00  0.00    -0.161 NA 
HETATM   25  C   UNL     1      -6.946  12.340  67.114  1.00  0.00    -0.102 A  
HETATM   26  C   UNL     1      -8.082  11.829  67.749  1.00  0.00    -0.143 A  
HETATM   27  C   UNL     1      -8.199  10.428  67.770  1.00  0.00    -0.110 A  
HETATM   28  C   UNL     1      -7.245   9.631  67.104  1.00  0.00    -0.087 A  
BRANCH  26  29
HETATM   29  C   UNL     1      -9.143  12.686  68.327  1.00  0.00    -0.181 A  
HETATM   30  C   UNL     1      -8.948  14.063  68.545  1.00  0.00    -0.160 A  
HETATM   31  C   UNL     1      -9.981  14.878  69.027  1.00  0.00    -0.235 A  
HETATM   32  C   UNL     1     -11.231  14.330  69.293  1.00  0.00    -0.273 A  
HETATM   33  C   UNL     1     -11.451  12.972  69.101  1.00  0.00    -0.353 A  
HETATM   34 CL   UNL     1     -12.512  15.333  69.850  1.00  0.00    -0.315 Cl 
HETATM   35  C   UNL     1     -10.414  12.160  68.632  1.00  0.00    -0.237 A  
ENDBRANCH  26  29
ENDBRANCH  17  19
ENDBRANCH  11  17
ENDBRANCH   7   9
ENDBRANCH   4   7
ENDBRANCH   3   4
ENDBRANCH   2   3
TORSDOF 7
ENDMDL
MODEL      158
REMARK 921   NORMALIZED FREE ENERGY PREDICTED BY IDOCK:   -4.28 KCAL/MOL
REMARK 922        TOTAL FREE ENERGY PREDICTED BY IDOCK:   -7.78 KCAL/MOL
REMARK 923 INTER-LIGAND FREE ENERGY PREDICTED BY IDOCK:   -7.28 KCAL/MOL
REMARK 924 INTRA-LIGAND FREE ENERGY PREDICTED BY IDOCK:   -0.51 KCAL/MOL
REMARK 927      BINDING AFFINITY PREDICTED BY RF-SCORE:    0.00 PKD
ROOT
HETATM    1  C   UNL     1      -9.431  15.856  69.889  1.00  0.00     0.113 C  
HETATM    2  C   UNL     1     -10.883  16.024  70.307  1.00  0.00    -0.327 C  
ENDROOT
BRANCH   2   3
HETATM    3  C   UNL     1     -11.250  15.101  71.464  1.00  0.00    -0.262 C  
BRANCH   3   4
HETATM    4  S   UNL     1     -12.979  14.625  71.381  1.00  0.00    -0.358 S  
HETATM    5  O   UNL     1     -13.772  15.764  70.979  1.00  0.00    -0.539 OA 
HETATM    6  O   UNL     1     -13.297  13.848  72.555  1.00  0.00    -0.484 OA 
BRANCH   4   7
HETATM    7  N   UNL     1     -12.939  13.490  70.128  1.00  0.00     0.084 N  
HETATM    8  H   UNL     1     -13.110  13.765  69.160  1.00  0.00     0.000 HD 
BRANCH   7   9
HETATM    9  C   UNL     1     -12.658  12.131  70.473  1.00  0.00    -0.102 A  
HETATM   10  C   UNL     1     -11.730  11.388  69.732  1.00  0.00    -0.344 A  
HETATM   11  C   UNL     1     -11.261  10.162  70.210  1.00  0.00    -0.387 A  
HETATM   12  F   UNL     1     -11.246  11.917  68.597  1.00  0.00    -0.215 F  
HETATM   13  C   UNL     1     -13.279  11.563  71.582  1.00  0.00    -0.389 A  
HETATM   14  C   UNL     1     -11.894   9.600  71.321  1.00  0.00    -0.381 A  
HETATM   15  C   UNL     1     -12.916  10.279  71.988  1.00  0.00    -0.503 A  
HETATM   16  F   UNL     1     -11.518   8.411  71.811  1.00  0.00    -0.286 F  
BRANCH  11  17
HETATM   17  C   UNL     1     -10.093   9.472  69.614  1.00  0.00    -0.212 C  
HETATM   18  O   UNL     1      -8.965   9.868  69.901  1.00  0.00    -0.211 OA 
BRANCH  17  19
HETATM   19  C   UNL     1     -10.284   8.322  68.720  1.00  0.00    -0.226 A  
HETATM   20  C   UNL     1     -10.757   8.453  67.422  1.00  0.00    -0.155 A  
HETATM   21  N   UNL     1     -10.659   7.241  66.793  1.00  0.00    -0.501 NA 
HETATM   22  C   UNL     1     -10.171   6.311  67.666  1.00  0.00    -0.169 A  
HETATM   23  H   UNL     1     -10.913   7.060  65.822  1.00  0.00     0.000 HD 
HETATM   24  N   UNL     1      -9.886   5.038  67.341  1.00  0.00    -0.165 NA 
HETATM   25  C   UNL     1      -9.418   4.314  68.394  1.00  0.00    -0.155 A  
HETATM   26  C   UNL     1      -9.285   4.744  69.718  1.00  0.00    -0.180 A  
HETATM   27  C   UNL     1      -9.648   6.079  69.972  1.00  0.00    -0.194 A  
HETATM   28  C   UNL     1     -10.037   6.918  68.908  1.00  0.00    -0.174 A  
BRANCH  26  29
HETATM   29  C   UNL     1      -8.747   3.887  70.799  1.00  0.00    -0.118 A  
HETATM   30  C   UNL     1      -7.458   3.325  70.729  1.00  0.00    -0.040 A  
HETATM   31  C   UNL     1      -6.932   2.573  71.788  1.00  0.00    -0.030 A  
HETATM   32  C   UNL     1      -7.686   2.375  72.941  1.00  0.00    -0.046 A  
HETATM   33  C   UNL     1      -8.966   2.904  73.034  1.00  0.00    -0.097 A  
HETATM   34 CL   UNL     1      -7.031   1.483  74.256  1.00  0.00    -0.022 Cl 
HETATM   35  C   UNL     1      -9.492   3.643  71.970  1.00  0.00    -0.199 A  
ENDBRANCH  26  29
ENDBRANCH  17  19
ENDBRANCH  11  17
ENDBRANCH   7   9
ENDBRANCH   4   7
ENDBRANCH   3   4
ENDBRANCH   2   3
TORSDOF 7
ENDMDL
MODEL      159
REMARK 921   NORMALIZED FREE ENERGY PREDICTED BY IDOCK:   -4.27 KCAL/MOL
REMARK 922        TOTAL FREE ENERGY PREDICTED BY IDOCK:   -7.77 KCAL/MOL
REMARK 923 INTER-LIGAND FREE ENERGY PREDICTED BY IDOCK:   -6.55 KCAL/MOL
REMARK 924 INTRA-LIGAND FREE ENERGY PREDICTED BY IDOCK:   -1.23 KCAL/MOL
REMARK 927      BINDING AFFINITY PREDICTED BY RF-SCORE:    0.00 PKD
ROOT
HETATM    1  C   UNL     1      -5.576  18.701  66.943  1.00  0.00    -0.156 C  
HETATM    2  C   UNL     1      -6.984  18.529  66.395  1.00  0.00    -0.257 C  
ENDROOT
BRANCH   2   3
HETATM    3  C   UNL     1      -7.311  17.065  66.121  1.00  0.00    -0.190 C  
BRANCH   3   4
HETATM    4  S   UNL     1      -9.044  16.725  66.442  1.00  0.00    -0.292 S  
HETATM    5  O   UNL     1      -9.580  15.910  65.375  1.00  0.00    -0.383 OA 
HETATM    6  O   UNL     1      -9.681  17.949  66.862  1.00  0.00    -0.285 OA 
BRANCH   4   7
HETATM    7  N   UNL     1      -8.933  15.805  67.857  1.00  0.00    -0.180 N  
HETATM    8  H   UNL     1      -9.194  16.196  68.763  1.00  0.00     0.000 HD 
BRANCH   7   9
HETATM    9  C   UNL     1      -8.460  14.461  67.739  1.00  0.00    -0.173 A  
HETATM   10  C   UNL     1      -9.365  13.400  67.609  1.00  0.00    -0.217 A  
HETATM   11  C   UNL     1      -8.917  12.130  67.237  1.00  0.00    -0.184 A  
HETATM   12  F   UNL     1     -10.674  13.649  67.771  1.00  0.00    -0.236 F  
HETATM   13  C   UNL     1      -7.090  14.217  67.709  1.00  0.00    -0.185 A  
HETATM   14  C   UNL     1      -7.541  11.895  67.213  1.00  0.00    -0.154 A  
HETATM   15  C   UNL     1      -6.630  12.921  67.475  1.00  0.00    -0.160 A  
HETATM   16  F   UNL     1      -7.043  10.691  66.898  1.00  0.00    -0.089 F  
BRANCH  11  17
HETATM   17  C   UNL     1      -9.845  11.051  66.822  1.00  0.00    -0.197 C  
HETATM   18  O   UNL     1     -10.301  11.073  65.681  1.00  0.00    -0.246 OA 
BRANCH  17  19
HETATM   19  C   UNL     1     -10.187   9.966  67.750  1.00  0.00    -0.241 A  
HETATM   20  C   UNL     1     -10.787  10.195  68.982  1.00  0.00    -0.224 A  
HETATM   21  N   UNL     1     -11.136   8.991  69.532  1.00  0.00    -0.428 NA 
HETATM   22  C   UNL     1     -10.741   7.978  68.705  1.00  0.00    -0.045 A  
HETATM   23  H   UNL     1     -11.617   8.869  70.422  1.00  0.00     0.000 HD 
HETATM   24  N   UNL     1     -11.001   6.676  68.918  1.00  0.00    -0.272 NA 
HETATM   25  C   UNL     1     -10.492   5.868  67.948  1.00  0.00    -0.236 A  
HETATM   26  C   UNL     1      -9.712   6.255  66.854  1.00  0.00    -0.184 A  
HETATM   27  C   UNL     1      -9.456   7.633  66.737  1.00  0.00    -0.244 A  
HETATM   28  C   UNL     1     -10.042   8.539  67.644  1.00  0.00    -0.271 A  
BRANCH  26  29
HETATM   29  C   UNL     1      -9.215   5.303  65.835  1.00  0.00    -0.166 A  
HETATM   30  C   UNL     1      -9.544   3.934  65.875  1.00  0.00    -0.185 A  
HETATM   31  C   UNL     1      -9.126   3.055  64.868  1.00  0.00    -0.144 A  
HETATM   32  C   UNL     1      -8.377   3.531  63.796  1.00  0.00    -0.090 A  
HETATM   33  C   UNL     1      -8.025   4.873  63.735  1.00  0.00    -0.095 A  
HETATM   34 CL   UNL     1      -7.893   2.462  62.540  1.00  0.00    -0.057 Cl 
HETATM   35  C   UNL     1      -8.433   5.745  64.750  1.00  0.00    -0.079 A  
ENDBRANCH  26  29
ENDBRANCH  17  19
ENDBRANCH  11  17
ENDBRANCH   7   9
ENDBRANCH   4   7
ENDBRANCH   3   4
ENDBRANCH   2   3
TORSDOF 7
ENDMDL
MODEL      160
REMARK 921   NORMALIZED FREE ENERGY PREDICTED BY IDOCK:   -4.26 KCAL/MOL
REMARK 922        TOTAL FREE ENERGY PREDICTED BY IDOCK:   -7.76 KCAL/MOL
REMARK 923 INTER-LIGAND FREE ENERGY PREDICTED BY IDOCK:   -7.02 KCAL/MOL
REMARK 924 INTRA-LIGAND FREE ENERGY PREDICTED BY IDOCK:   -0.74 KCAL/MOL
REMARK 927      BINDING AFFINITY PREDICTED BY RF-SCORE:    0.00 PKD
ROOT
HETATM    1  C   UNL     1     -11.816  10.565  70.539  1.00  0.00    -0.442 C  
HETATM    2  C   UNL     1     -12.005  10.980  69.088  1.00  0.00    -0.394 C  
ENDROOT
BRANCH   2   3
HETATM    3  C   UNL     1     -10.973  12.019  68.658  1.00  0.00    -0.240 C  
BRANCH   3   4
HETATM    4  S   UNL     1     -11.617  13.052  67.338  1.00  0.00    -0.372 S  
HETATM    5  O   UNL     1     -12.132  14.281  67.897  1.00  0.00    -0.345 OA 
HETATM    6  O   UNL     1     -12.404  12.227  66.453  1.00  0.00    -0.531 OA 
BRANCH   4   7
HETATM    7  N   UNL     1     -10.205  13.372  66.464  1.00  0.00    -0.276 N  
HETATM    8  H   UNL     1      -9.635  14.194  66.665  1.00  0.00     0.000 HD 
BRANCH   7   9
HETATM    9  C   UNL     1      -9.840  12.451  65.434  1.00  0.00    -0.183 A  
HETATM   10  C   UNL     1      -8.967  11.390  65.707  1.00  0.00    -0.151 A  
HETATM   11  C   UNL     1      -8.811  10.348  64.790  1.00  0.00    -0.211 A  
HETATM   12  F   UNL     1      -8.350  11.359  66.899  1.00  0.00    -0.134 F  
HETATM   13  C   UNL     1     -10.395  12.587  64.164  1.00  0.00    -0.416 A  
HETATM   14  C   UNL     1      -9.368  10.497  63.519  1.00  0.00    -0.293 A  
HETATM   15  C   UNL     1     -10.132  11.620  63.194  1.00  0.00    -0.409 A  
HETATM   16  F   UNL     1      -9.227   9.551  62.579  1.00  0.00    -0.260 F  
BRANCH  11  17
HETATM   17  C   UNL     1      -8.122   9.082  65.137  1.00  0.00    -0.130 C  
HETATM   18  O   UNL     1      -8.386   8.072  64.488  1.00  0.00    -0.133 OA 
BRANCH  17  19
HETATM   19  C   UNL     1      -7.127   9.047  66.216  1.00  0.00    -0.086 A  
HETATM   20  C   UNL     1      -5.869   9.622  66.094  1.00  0.00    -0.061 A  
HETATM   21  N   UNL     1      -5.245   9.580  67.312  1.00  0.00    -0.036 NA 
HETATM   22  C   UNL     1      -6.052   8.953  68.218  1.00  0.00    -0.053 A  
HETATM   23  H   UNL     1      -4.320   9.959  67.512  1.00  0.00     0.000 HD 
HETATM   24  N   UNL     1      -5.766   8.814  69.525  1.00  0.00    -0.034 NA 
HETATM   25  C   UNL     1      -6.733   8.145  70.211  1.00  0.00    -0.037 A  
HETATM   26  C   UNL     1      -7.892   7.568  69.683  1.00  0.00    -0.119 A  
HETATM   27  C   UNL     1      -8.086   7.727  68.300  1.00  0.00    -0.124 A  
HETATM   28  C   UNL     1      -7.181   8.502  67.546  1.00  0.00    -0.084 A  
BRANCH  26  29
HETATM   29  C   UNL     1      -8.900   6.871  70.514  1.00  0.00    -0.155 A  
HETATM   30  C   UNL     1      -9.125   5.485  70.403  1.00  0.00    -0.164 A  
HETATM   31  C   UNL     1     -10.032   4.824  71.242  1.00  0.00    -0.270 A  
HETATM   32  C   UNL     1     -10.726   5.537  72.214  1.00  0.00    -0.231 A  
HETATM   33  C   UNL     1     -10.537   6.907  72.340  1.00  0.00    -0.240 A  
HETATM   34 CL   UNL     1     -11.812   4.724  73.269  1.00  0.00    -0.235 Cl 
HETATM   35  C   UNL     1      -9.641   7.566  71.491  1.00  0.00    -0.171 A  
ENDBRANCH  26  29
ENDBRANCH  17  19
ENDBRANCH  11  17
ENDBRANCH   7   9
ENDBRANCH   4   7
ENDBRANCH   3   4
ENDBRANCH   2   3
TORSDOF 7
ENDMDL
MODEL      161
REMARK 921   NORMALIZED FREE ENERGY PREDICTED BY IDOCK:   -4.24 KCAL/MOL
REMARK 922        TOTAL FREE ENERGY PREDICTED BY IDOCK:   -7.72 KCAL/MOL
REMARK 923 INTER-LIGAND FREE ENERGY PREDICTED BY IDOCK:   -7.62 KCAL/MOL
REMARK 924 INTRA-LIGAND FREE ENERGY PREDICTED BY IDOCK:   -0.10 KCAL/MOL
REMARK 927      BINDING AFFINITY PREDICTED BY RF-SCORE:    0.00 PKD
ROOT
HETATM    1  C   UNL     1      -5.900   7.088  69.344  1.00  0.00    -0.018 C  
HETATM    2  C   UNL     1      -7.218   6.344  69.484  1.00  0.00    -0.078 C  
ENDROOT
BRANCH   2   3
HETATM    3  C   UNL     1      -7.357   5.236  68.443  1.00  0.00    -0.071 C  
BRANCH   3   4
HETATM    4  S   UNL     1      -7.966   5.892  66.888  1.00  0.00    -0.102 S  
HETATM    5  O   UNL     1      -8.678   4.855  66.174  1.00  0.00    -0.115 OA 
HETATM    6  O   UNL     1      -6.912   6.658  66.268  1.00  0.00    -0.059 OA 
BRANCH   4   7
HETATM    7  N   UNL     1      -9.062   7.057  67.437  1.00  0.00    -0.123 N  
HETATM    8  H   UNL     1      -9.838   6.805  68.050  1.00  0.00     0.000 HD 
BRANCH   7   9
HETATM    9  C   UNL     1      -8.861   8.408  67.012  1.00  0.00    -0.134 A  
HETATM   10  C   UNL     1      -9.922   9.323  67.031  1.00  0.00    -0.224 A  
HETATM   11  C   UNL     1      -9.681  10.689  66.868  1.00  0.00    -0.213 A  
HETATM   12  F   UNL     1     -11.158   8.865  67.288  1.00  0.00    -0.278 F  
HETATM   13  C   UNL     1      -7.590   8.822  66.621  1.00  0.00    -0.089 A  
HETATM   14  C   UNL     1      -8.404  11.092  66.472  1.00  0.00    -0.166 A  
HETATM   15  C   UNL     1      -7.370  10.165  66.320  1.00  0.00    -0.112 A  
HETATM   16  F   UNL     1      -8.113  12.384  66.264  1.00  0.00     0.039 F  
BRANCH  11  17
HETATM   17  C   UNL     1     -10.713  11.716  67.148  1.00  0.00    -0.247 C  
HETATM   18  O   UNL     1     -11.071  11.887  68.311  1.00  0.00    -0.208 OA 
BRANCH  17  19
HETATM   19  C   UNL     1     -11.272  12.526  66.058  1.00  0.00    -0.354 A  
HETATM   20  C   UNL     1     -12.212  12.032  65.163  1.00  0.00     0.001 A  
HETATM   21  N   UNL     1     -12.663  13.063  64.385  1.00  0.00    -0.691 NA 
HETATM   22  C   UNL     1     -12.007  14.213  64.723  1.00  0.00    -0.431 A  
HETATM   23  H   UNL     1     -13.378  12.986  63.662  1.00  0.00     0.000 HD 
HETATM   24  N   UNL     1     -12.271  15.423  64.198  1.00  0.00    -0.551 NA 
HETATM   25  C   UNL     1     -11.473  16.404  64.700  1.00  0.00    -0.091 A  
HETATM   26  C   UNL     1     -10.423  16.251  65.610  1.00  0.00    -0.386 A  
HETATM   27  C   UNL     1     -10.193  14.942  66.072  1.00  0.00    -0.317 A  
HETATM   28  C   UNL     1     -11.050  13.895  65.679  1.00  0.00    -0.298 A  
BRANCH  26  29
HETATM   29  C   UNL     1      -9.616  17.385  66.116  1.00  0.00    -0.213 A  
HETATM   30  C   UNL     1      -8.209  17.349  66.128  1.00  0.00    -0.237 A  
HETATM   31  C   UNL     1      -7.455  18.454  66.544  1.00  0.00    -0.265 A  
HETATM   32  C   UNL     1      -8.096  19.620  66.949  1.00  0.00    -0.287 A  
HETATM   33  C   UNL     1      -9.484  19.682  66.962  1.00  0.00    -0.450 A  
HETATM   34 CL   UNL     1      -7.174  20.991  67.425  1.00  0.00    -0.411 Cl 
HETATM   35  C   UNL     1     -10.233  18.572  66.560  1.00  0.00    -0.440 A  
ENDBRANCH  26  29
ENDBRANCH  17  19
ENDBRANCH  11  17
ENDBRANCH   7   9
ENDBRANCH   4   7
ENDBRANCH   3   4
ENDBRANCH   2   3
TORSDOF 7
ENDMDL
MODEL      162
REMARK 921   NORMALIZED FREE ENERGY PREDICTED BY IDOCK:   -4.22 KCAL/MOL
REMARK 922        TOTAL FREE ENERGY PREDICTED BY IDOCK:   -7.70 KCAL/MOL
REMARK 923 INTER-LIGAND FREE ENERGY PREDICTED BY IDOCK:   -6.55 KCAL/MOL
REMARK 924 INTRA-LIGAND FREE ENERGY PREDICTED BY IDOCK:   -1.14 KCAL/MOL
REMARK 927      BINDING AFFINITY PREDICTED BY RF-SCORE:    0.00 PKD
ROOT
HETATM    1  C   UNL     1      -9.424   2.841  68.024  1.00  0.00    -0.212 C  
HETATM    2  C   UNL     1      -9.578   4.106  67.196  1.00  0.00    -0.229 C  
ENDROOT
BRANCH   2   3
HETATM    3  C   UNL     1      -8.395   5.051  67.379  1.00  0.00    -0.106 C  
BRANCH   3   4
HETATM    4  S   UNL     1      -6.970   4.481  66.448  1.00  0.00    -0.060 S  
HETATM    5  O   UNL     1      -7.412   3.884  65.208  1.00  0.00    -0.078 OA 
HETATM    6  O   UNL     1      -6.078   3.793  67.351  1.00  0.00    -0.027 OA 
BRANCH   4   7
HETATM    7  N   UNL     1      -6.189   5.946  66.127  1.00  0.00    -0.039 N  
HETATM    8  H   UNL     1      -5.211   6.089  66.378  1.00  0.00     0.000 HD 
BRANCH   7   9
HETATM    9  C   UNL     1      -6.950   6.976  65.491  1.00  0.00    -0.056 A  
HETATM   10  C   UNL     1      -7.368   8.100  66.215  1.00  0.00    -0.078 A  
HETATM   11  C   UNL     1      -7.879   9.219  65.554  1.00  0.00    -0.099 A  
HETATM   12  F   UNL     1      -7.191   8.106  67.547  1.00  0.00    -0.082 F  
HETATM   13  C   UNL     1      -7.235   6.878  64.131  1.00  0.00    -0.068 A  
HETATM   14  C   UNL     1      -8.164   9.108  64.192  1.00  0.00    -0.162 A  
HETATM   15  C   UNL     1      -7.873   7.938  63.487  1.00  0.00    -0.138 A  
HETATM   16  F   UNL     1      -8.689  10.131  63.503  1.00  0.00    -0.155 F  
BRANCH  11  17
HETATM   17  C   UNL     1      -8.078  10.521  66.234  1.00  0.00    -0.142 C  
HETATM   18  O   UNL     1      -7.104  11.249  66.409  1.00  0.00    -0.126 OA 
BRANCH  17  19
HETATM   19  C   UNL     1      -9.419  10.939  66.663  1.00  0.00    -0.204 A  
HETATM   20  C   UNL     1     -10.424  10.031  66.971  1.00  0.00    -0.238 A  
HETATM   21  N   UNL     1     -11.486  10.713  67.500  1.00  0.00    -0.527 NA 
HETATM   22  C   UNL     1     -11.214  12.052  67.507  1.00  0.00    -0.294 A  
HETATM   23  H   UNL     1     -12.349  10.288  67.838  1.00  0.00     0.000 HD 
HETATM   24  N   UNL     1     -12.021  12.991  68.031  1.00  0.00    -0.337 NA 
HETATM   25  C   UNL     1     -11.521  14.250  67.904  1.00  0.00    -0.315 A  
HETATM   26  C   UNL     1     -10.342  14.626  67.252  1.00  0.00    -0.256 A  
HETATM   27  C   UNL     1      -9.585  13.580  66.697  1.00  0.00    -0.282 A  
HETATM   28  C   UNL     1      -9.986  12.242  66.885  1.00  0.00    -0.223 A  
BRANCH  26  29
HETATM   29  C   UNL     1      -9.867  16.027  67.180  1.00  0.00    -0.236 A  
HETATM   30  C   UNL     1     -10.269  16.894  66.146  1.00  0.00    -0.352 A  
HETATM   31  C   UNL     1      -9.869  18.237  66.126  1.00  0.00    -0.264 A  
HETATM   32  C   UNL     1      -9.065  18.739  67.144  1.00  0.00    -0.284 A  
HETATM   33  C   UNL     1      -8.640  17.904  68.171  1.00  0.00    -0.265 A  
HETATM   34 CL   UNL     1      -8.602  20.394  67.142  1.00  0.00    -0.412 Cl 
HETATM   35  C   UNL     1      -9.031  16.561  68.180  1.00  0.00    -0.207 A  
ENDBRANCH  26  29
ENDBRANCH  17  19
ENDBRANCH  11  17
ENDBRANCH   7   9
ENDBRANCH   4   7
ENDBRANCH   3   4
ENDBRANCH   2   3
TORSDOF 7
ENDMDL
MODEL      163
REMARK 921   NORMALIZED FREE ENERGY PREDICTED BY IDOCK:   -4.18 KCAL/MOL
REMARK 922        TOTAL FREE ENERGY PREDICTED BY IDOCK:   -7.65 KCAL/MOL
REMARK 923 INTER-LIGAND FREE ENERGY PREDICTED BY IDOCK:   -7.82 KCAL/MOL
REMARK 924 INTRA-LIGAND FREE ENERGY PREDICTED BY IDOCK:    0.18 KCAL/MOL
REMARK 927      BINDING AFFINITY PREDICTED BY RF-SCORE:    0.00 PKD
ROOT
HETATM    1  C   UNL     1      -8.293  19.897  69.101  1.00  0.00     0.093 C  
HETATM    2  C   UNL     1      -9.722  19.379  69.153  1.00  0.00    -0.404 C  
ENDROOT
BRANCH   2   3
HETATM    3  C   UNL     1     -10.217  18.943  67.777  1.00  0.00    -0.393 C  
BRANCH   3   4
HETATM    4  S   UNL     1      -9.667  17.277  67.398  1.00  0.00    -0.264 S  
HETATM    5  O   UNL     1      -8.368  17.331  66.765  1.00  0.00    -0.216 OA 
HETATM    6  O   UNL     1     -10.770  16.551  66.816  1.00  0.00    -0.267 OA 
BRANCH   4   7
HETATM    7  N   UNL     1      -9.514  16.627  68.952  1.00  0.00    -0.253 N  
HETATM    8  H   UNL     1      -8.708  16.845  69.539  1.00  0.00     0.000 HD 
BRANCH   7   9
HETATM    9  C   UNL     1     -10.555  15.763  69.414  1.00  0.00    -0.255 A  
HETATM   10  C   UNL     1     -10.670  14.460  68.913  1.00  0.00    -0.253 A  
HETATM   11  C   UNL     1     -11.509  13.533  69.536  1.00  0.00    -0.318 A  
HETATM   12  F   UNL     1      -9.897  14.102  67.874  1.00  0.00    -0.207 F  
HETATM   13  C   UNL     1     -11.430  16.209  70.401  1.00  0.00    -0.344 A  
HETATM   14  C   UNL     1     -12.384  13.992  70.522  1.00  0.00    -0.367 A  
HETATM   15  C   UNL     1     -12.368  15.327  70.935  1.00  0.00    -0.433 A  
HETATM   16  F   UNL     1     -13.240  13.164  71.137  1.00  0.00    -0.340 F  
BRANCH  11  17
HETATM   17  C   UNL     1     -11.464  12.085  69.222  1.00  0.00    -0.301 C  
HETATM   18  O   UNL     1     -11.595  11.280  70.142  1.00  0.00    -0.310 OA 
BRANCH  17  19
HETATM   19  C   UNL     1     -11.293  11.628  67.837  1.00  0.00    -0.369 A  
HETATM   20  C   UNL     1     -11.761  12.350  66.747  1.00  0.00    -0.362 A  
HETATM   21  N   UNL     1     -11.301  11.763  65.600  1.00  0.00    -0.279 NA 
HETATM   22  C   UNL     1     -10.576  10.648  65.915  1.00  0.00    -0.108 A  
HETATM   23  H   UNL     1     -11.472  12.104  64.655  1.00  0.00     0.000 HD 
HETATM   24  N   UNL     1      -9.923   9.886  65.020  1.00  0.00    -0.270 NA 
HETATM   25  C   UNL     1      -9.282   8.830  65.590  1.00  0.00    -0.180 A  
HETATM   26  C   UNL     1      -9.304   8.461  66.938  1.00  0.00    -0.221 A  
HETATM   27  C   UNL     1     -10.048   9.293  67.793  1.00  0.00    -0.253 A  
HETATM   28  C   UNL     1     -10.648  10.465  67.290  1.00  0.00    -0.322 A  
BRANCH  26  29
HETATM   29  C   UNL     1      -8.557   7.300  67.473  1.00  0.00    -0.122 A  
HETATM   30  C   UNL     1      -7.867   7.361  68.699  1.00  0.00    -0.122 A  
HETATM   31  C   UNL     1      -7.222   6.236  69.229  1.00  0.00    -0.086 A  
HETATM   32  C   UNL     1      -7.261   5.025  68.545  1.00  0.00    -0.062 A  
HETATM   33  C   UNL     1      -7.921   4.936  67.326  1.00  0.00    -0.095 A  
HETATM   34 CL   UNL     1      -6.501   3.634  69.209  1.00  0.00    -0.033 Cl 
HETATM   35  C   UNL     1      -8.552   6.065  66.794  1.00  0.00    -0.110 A  
ENDBRANCH  26  29
ENDBRANCH  17  19
ENDBRANCH  11  17
ENDBRANCH   7   9
ENDBRANCH   4   7
ENDBRANCH   3   4
ENDBRANCH   2   3
TORSDOF 7
ENDMDL
MODEL      164
REMARK 921   NORMALIZED FREE ENERGY PREDICTED BY IDOCK:   -4.17 KCAL/MOL
REMARK 922        TOTAL FREE ENERGY PREDICTED BY IDOCK:   -7.63 KCAL/MOL
REMARK 923 INTER-LIGAND FREE ENERGY PREDICTED BY IDOCK:   -6.25 KCAL/MOL
REMARK 924 INTRA-LIGAND FREE ENERGY PREDICTED BY IDOCK:   -1.38 KCAL/MOL
REMARK 927      BINDING AFFINITY PREDICTED BY RF-SCORE:    0.00 PKD
ROOT
HETATM    1  C   UNL     1      -8.610  14.888  67.267  1.00  0.00    -0.232 C  
HETATM    2  C   UNL     1      -8.844  13.734  68.229  1.00  0.00    -0.185 C  
ENDROOT
BRANCH   2   3
HETATM    3  C   UNL     1      -8.725  12.382  67.532  1.00  0.00    -0.179 C  
BRANCH   3   4
HETATM    4  S   UNL     1      -7.132  11.627  67.866  1.00  0.00    -0.088 S  
HETATM    5  O   UNL     1      -7.211  10.853  69.084  1.00  0.00    -0.096 OA 
HETATM    6  O   UNL     1      -6.102  12.617  67.656  1.00  0.00    -0.116 OA 
BRANCH   4   7
HETATM    7  N   UNL     1      -6.986  10.587  66.540  1.00  0.00    -0.107 N  
HETATM    8  H   UNL     1      -6.355  10.801  65.768  1.00  0.00     0.000 HD 
BRANCH   7   9
HETATM    9  C   UNL     1      -7.779   9.397  66.542  1.00  0.00    -0.094 A  
HETATM   10  C   UNL     1      -7.432   8.314  67.360  1.00  0.00    -0.094 A  
HETATM   11  C   UNL     1      -8.330   7.264  67.563  1.00  0.00    -0.116 A  
HETATM   12  F   UNL     1      -6.255   8.349  68.005  1.00  0.00    -0.046 F  
HETATM   13  C   UNL     1      -8.927   9.337  65.757  1.00  0.00    -0.234 A  
HETATM   14  C   UNL     1      -9.477   7.212  66.767  1.00  0.00    -0.169 A  
HETATM   15  C   UNL     1      -9.763   8.225  65.849  1.00  0.00     0.019 A  
HETATM   16  F   UNL     1     -10.363   6.214  66.885  1.00  0.00    -0.194 F  
BRANCH  11  17
HETATM   17  C   UNL     1      -8.132   6.241  68.618  1.00  0.00    -0.109 C  
HETATM   18  O   UNL     1      -7.061   5.639  68.659  1.00  0.00    -0.062 OA 
BRANCH  17  19
HETATM   19  C   UNL     1      -9.185   5.977  69.606  1.00  0.00    -0.148 A  
HETATM   20  C   UNL     1      -9.366   4.733  70.194  1.00  0.00    -0.155 A  
HETATM   21  N   UNL     1     -10.300   4.847  71.188  1.00  0.00    -0.189 NA 
HETATM   22  C   UNL     1     -10.764   6.131  71.235  1.00  0.00    -0.256 A  
HETATM   23  H   UNL     1     -10.603   4.090  71.800  1.00  0.00     0.000 HD 
HETATM   24  N   UNL     1     -11.635   6.593  72.150  1.00  0.00    -0.286 NA 
HETATM   25  C   UNL     1     -11.941   7.907  71.975  1.00  0.00    -0.319 A  
HETATM   26  C   UNL     1     -11.501   8.742  70.943  1.00  0.00    -0.330 A  
HETATM   27  C   UNL     1     -10.627   8.160  70.008  1.00  0.00    -0.239 A  
HETATM   28  C   UNL     1     -10.181   6.835  70.190  1.00  0.00    -0.215 A  
BRANCH  26  29
HETATM   29  C   UNL     1     -11.875  10.172  70.843  1.00  0.00    -0.468 A  
HETATM   30  C   UNL     1     -11.286  11.028  69.893  1.00  0.00    -0.327 A  
HETATM   31  C   UNL     1     -11.696  12.362  69.761  1.00  0.00    -0.361 A  
HETATM   32  C   UNL     1     -12.711  12.860  70.572  1.00  0.00    -0.017 A  
HETATM   33  C   UNL     1     -13.302  12.044  71.528  1.00  0.00    -0.123 A  
HETATM   34 CL   UNL     1     -13.242  14.485  70.388  1.00  0.00    -0.149 Cl 
HETATM   35  C   UNL     1     -12.880  10.718  71.666  1.00  0.00    -0.562 A  
ENDBRANCH  26  29
ENDBRANCH  17  19
ENDBRANCH  11  17
ENDBRANCH   7   9
ENDBRANCH   4   7
ENDBRANCH   3   4
ENDBRANCH   2   3
TORSDOF 7
ENDMDL
MODEL      165
REMARK 921   NORMALIZED FREE ENERGY PREDICTED BY IDOCK:   -4.17 KCAL/MOL
REMARK 922        TOTAL FREE ENERGY PREDICTED BY IDOCK:   -7.62 KCAL/MOL
REMARK 923 INTER-LIGAND FREE ENERGY PREDICTED BY IDOCK:   -6.31 KCAL/MOL
REMARK 924 INTRA-LIGAND FREE ENERGY PREDICTED BY IDOCK:   -1.31 KCAL/MOL
REMARK 927      BINDING AFFINITY PREDICTED BY RF-SCORE:    0.00 PKD
ROOT
HETATM    1  C   UNL     1      -9.878   5.941  74.261  1.00  0.00    -0.230 C  
HETATM    2  C   UNL     1      -9.768   6.301  72.788  1.00  0.00    -0.162 C  
ENDROOT
BRANCH   2   3
HETATM    3  C   UNL     1     -10.966   5.795  71.990  1.00  0.00    -0.260 C  
BRANCH   3   4
HETATM    4  S   UNL     1     -11.803   7.151  71.164  1.00  0.00    -0.341 S  
HETATM    5  O   UNL     1     -13.167   7.233  71.634  1.00  0.00    -0.367 OA 
HETATM    6  O   UNL     1     -11.482   7.099  69.757  1.00  0.00    -0.172 OA 
BRANCH   4   7
HETATM    7  N   UNL     1     -10.922   8.473  71.743  1.00  0.00    -0.282 N  
HETATM    8  H   UNL     1     -10.167   8.350  72.418  1.00  0.00     0.000 HD 
BRANCH   7   9
HETATM    9  C   UNL     1     -11.274   9.770  71.254  1.00  0.00    -0.347 A  
HETATM   10  C   UNL     1     -10.703  10.261  70.072  1.00  0.00    -0.292 A  
HETATM   11  C   UNL     1     -11.226  11.399  69.454  1.00  0.00    -0.333 A  
HETATM   12  F   UNL     1      -9.699   9.569  69.509  1.00  0.00    -0.158 F  
HETATM   13  C   UNL     1     -12.224  10.526  71.936  1.00  0.00     0.026 A  
HETATM   14  C   UNL     1     -12.175  12.152  70.148  1.00  0.00    -0.231 A  
HETATM   15  C   UNL     1     -12.653  11.737  71.394  1.00  0.00    -0.367 A  
HETATM   16  F   UNL     1     -12.693  13.274  69.629  1.00  0.00    -0.172 F  
BRANCH  11  17
HETATM   17  C   UNL     1     -10.845  11.801  68.079  1.00  0.00    -0.213 C  
HETATM   18  O   UNL     1     -11.736  12.000  67.256  1.00  0.00    -0.481 OA 
BRANCH  17  19
HETATM   19  C   UNL     1      -9.433  11.982  67.720  1.00  0.00    -0.190 A  
HETATM   20  C   UNL     1      -8.679  13.061  68.164  1.00  0.00    -0.190 A  
HETATM   21  N   UNL     1      -7.372  12.860  67.812  1.00  0.00    -0.119 NA 
HETATM   22  C   UNL     1      -7.261  11.692  67.111  1.00  0.00    -0.145 A  
HETATM   23  H   UNL     1      -6.599  13.485  68.037  1.00  0.00     0.000 HD 
HETATM   24  N   UNL     1      -6.099  11.167  66.685  1.00  0.00    -0.119 NA 
HETATM   25  C   UNL     1      -6.262  10.000  66.005  1.00  0.00    -0.079 A  
HETATM   26  C   UNL     1      -7.471   9.380  65.677  1.00  0.00    -0.095 A  
HETATM   27  C   UNL     1      -8.637  10.024  66.128  1.00  0.00    -0.142 A  
HETATM   28  C   UNL     1      -8.539  11.178  66.931  1.00  0.00    -0.148 A  
BRANCH  26  29
HETATM   29  C   UNL     1      -7.551   8.094  64.946  1.00  0.00    -0.098 A  
HETATM   30  C   UNL     1      -7.611   6.859  65.619  1.00  0.00    -0.089 A  
HETATM   31  C   UNL     1      -7.756   5.654  64.919  1.00  0.00    -0.099 A  
HETATM   32  C   UNL     1      -7.851   5.663  63.531  1.00  0.00    -0.101 A  
HETATM   33  C   UNL     1      -7.781   6.864  62.837  1.00  0.00    -0.107 A  
HETATM   34 CL   UNL     1      -8.065   4.190  62.672  1.00  0.00    -0.073 Cl 
HETATM   35  C   UNL     1      -7.623   8.064  63.539  1.00  0.00    -0.133 A  
ENDBRANCH  26  29
ENDBRANCH  17  19
ENDBRANCH  11  17
ENDBRANCH   7   9
ENDBRANCH   4   7
ENDBRANCH   3   4
ENDBRANCH   2   3
TORSDOF 7
ENDMDL
MODEL      166
REMARK 921   NORMALIZED FREE ENERGY PREDICTED BY IDOCK:   -4.14 KCAL/MOL
REMARK 922        TOTAL FREE ENERGY PREDICTED BY IDOCK:   -7.59 KCAL/MOL
REMARK 923 INTER-LIGAND FREE ENERGY PREDICTED BY IDOCK:   -6.46 KCAL/MOL
REMARK 924 INTRA-LIGAND FREE ENERGY PREDICTED BY IDOCK:   -1.13 KCAL/MOL
REMARK 927      BINDING AFFINITY PREDICTED BY RF-SCORE:    0.00 PKD
ROOT
HETATM    1  C   UNL     1     -10.104  15.836  69.680  1.00  0.00    -0.289 C  
HETATM    2  C   UNL     1     -11.279  16.138  70.597  1.00  0.00    -0.371 C  
ENDROOT
BRANCH   2   3
HETATM    3  C   UNL     1     -11.131  15.453  71.952  1.00  0.00    -0.160 C  
BRANCH   3   4
HETATM    4  S   UNL     1     -12.737  15.132  72.687  1.00  0.00    -0.420 S  
HETATM    5  O   UNL     1     -13.394  16.387  72.974  1.00  0.00    -0.276 OA 
HETATM    6  O   UNL     1     -12.586  14.103  73.688  1.00  0.00    -0.238 OA 
BRANCH   4   7
HETATM    7  N   UNL     1     -13.525  14.357  71.407  1.00  0.00    -0.353 N  
HETATM    8  H   UNL     1     -14.318  14.792  70.934  1.00  0.00     0.000 HD 
BRANCH   7   9
HETATM    9  C   UNL     1     -13.042  13.070  71.013  1.00  0.00    -0.022 A  
HETATM   10  C   UNL     1     -12.528  12.869  69.725  1.00  0.00     0.088 A  
HETATM   11  C   UNL     1     -11.824  11.703  69.418  1.00  0.00    -0.408 A  
HETATM   12  F   UNL     1     -12.659  13.854  68.822  1.00  0.00    -0.301 F  
HETATM   13  C   UNL     1     -13.042  12.026  71.934  1.00  0.00    -0.475 A  
HETATM   14  C   UNL     1     -11.834  10.661  70.348  1.00  0.00    -0.349 A  
HETATM   15  C   UNL     1     -12.462  10.806  71.587  1.00  0.00    -0.381 A  
HETATM   16  F   UNL     1     -11.208   9.501  70.103  1.00  0.00    -0.241 F  
BRANCH  11  17
HETATM   17  C   UNL     1     -11.033  11.557  68.173  1.00  0.00    -0.228 C  
HETATM   18  O   UNL     1     -11.629  11.528  67.098  1.00  0.00    -0.516 OA 
BRANCH  17  19
HETATM   19  C   UNL     1      -9.568  11.478  68.226  1.00  0.00    -0.189 A  
HETATM   20  C   UNL     1      -8.786  12.457  68.824  1.00  0.00     0.154 A  
HETATM   21  N   UNL     1      -7.490  12.019  68.869  1.00  0.00    -0.254 NA 
HETATM   22  C   UNL     1      -7.400  10.791  68.276  1.00  0.00    -0.086 A  
HETATM   23  H   UNL     1      -6.710  12.530  69.281  1.00  0.00     0.000 HD 
HETATM   24  N   UNL     1      -6.279  10.052  68.221  1.00  0.00    -0.049 NA 
HETATM   25  C   UNL     1      -6.454   8.870  67.570  1.00  0.00    -0.061 A  
HETATM   26  C   UNL     1      -7.617   8.424  66.935  1.00  0.00    -0.091 A  
HETATM   27  C   UNL     1      -8.728   9.284  67.008  1.00  0.00    -0.131 A  
HETATM   28  C   UNL     1      -8.650  10.474  67.759  1.00  0.00    -0.118 A  
BRANCH  26  29
HETATM   29  C   UNL     1      -7.721   7.108  66.264  1.00  0.00    -0.100 A  
HETATM   30  C   UNL     1      -6.590   6.447  65.748  1.00  0.00    -0.047 A  
HETATM   31  C   UNL     1      -6.689   5.171  65.176  1.00  0.00    -0.048 A  
HETATM   32  C   UNL     1      -7.922   4.530  65.118  1.00  0.00    -0.098 A  
HETATM   33  C   UNL     1      -9.059   5.162  65.606  1.00  0.00    -0.161 A  
HETATM   34 CL   UNL     1      -8.042   2.951  64.451  1.00  0.00    -0.082 Cl 
HETATM   35  C   UNL     1      -8.958   6.441  66.163  1.00  0.00    -0.162 A  
ENDBRANCH  26  29
ENDBRANCH  17  19
ENDBRANCH  11  17
ENDBRANCH   7   9
ENDBRANCH   4   7
ENDBRANCH   3   4
ENDBRANCH   2   3
TORSDOF 7
ENDMDL
MODEL      167
REMARK 921   NORMALIZED FREE ENERGY PREDICTED BY IDOCK:   -4.10 KCAL/MOL
REMARK 922        TOTAL FREE ENERGY PREDICTED BY IDOCK:   -7.54 KCAL/MOL
REMARK 923 INTER-LIGAND FREE ENERGY PREDICTED BY IDOCK:   -5.95 KCAL/MOL
REMARK 924 INTRA-LIGAND FREE ENERGY PREDICTED BY IDOCK:   -1.59 KCAL/MOL
REMARK 927      BINDING AFFINITY PREDICTED BY RF-SCORE:    0.00 PKD
ROOT
HETATM    1  C   UNL     1      -9.313  15.623  65.812  1.00  0.00    -0.303 C  
HETATM    2  C   UNL     1      -9.350  14.125  66.065  1.00  0.00    -0.108 C  
ENDROOT
BRANCH   2   3
HETATM    3  C   UNL     1     -10.376  13.425  65.179  1.00  0.00    -0.336 C  
BRANCH   3   4
HETATM    4  S   UNL     1     -10.475  11.676  65.571  1.00  0.00    -0.283 S  
HETATM    5  O   UNL     1      -9.680  10.925  64.627  1.00  0.00    -0.235 OA 
HETATM    6  O   UNL     1     -11.854  11.345  65.842  1.00  0.00    -0.140 OA 
BRANCH   4   7
HETATM    7  N   UNL     1      -9.733  11.646  67.091  1.00  0.00    -0.181 N  
HETATM    8  H   UNL     1      -8.731  11.809  67.192  1.00  0.00     0.000 HD 
BRANCH   7   9
HETATM    9  C   UNL     1     -10.560  11.383  68.227  1.00  0.00    -0.195 A  
HETATM   10  C   UNL     1     -10.665  10.085  68.744  1.00  0.00    -0.223 A  
HETATM   11  C   UNL     1     -11.254   9.865  69.991  1.00  0.00    -0.327 A  
HETATM   12  F   UNL     1     -10.116   9.074  68.052  1.00  0.00    -0.177 F  
HETATM   13  C   UNL     1     -11.228  12.436  68.847  1.00  0.00    -0.330 A  
HETATM   14  C   UNL     1     -11.924  10.927  70.602  1.00  0.00    -0.368 A  
HETATM   15  C   UNL     1     -11.938  12.198  70.023  1.00  0.00    -0.391 A  
HETATM   16  F   UNL     1     -12.541  10.776  71.782  1.00  0.00    -0.461 F  
BRANCH  11  17
HETATM   17  C   UNL     1     -11.148   8.568  70.701  1.00  0.00    -0.252 C  
HETATM   18  O   UNL     1     -12.135   7.837  70.741  1.00  0.00    -0.226 OA 
BRANCH  17  19
HETATM   19  C   UNL     1      -9.880   8.159  71.319  1.00  0.00    -0.207 A  
HETATM   20  C   UNL     1      -9.616   8.332  72.671  1.00  0.00    -0.282 A  
HETATM   21  N   UNL     1      -8.440   7.701  72.974  1.00  0.00    -0.131 NA 
HETATM   22  C   UNL     1      -7.909   7.153  71.841  1.00  0.00    -0.092 A  
HETATM   23  H   UNL     1      -8.024   7.647  73.903  1.00  0.00     0.000 HD 
HETATM   24  N   UNL     1      -6.796   6.400  71.808  1.00  0.00    -0.063 NA 
HETATM   25  C   UNL     1      -6.475   5.981  70.554  1.00  0.00    -0.037 A  
HETATM   26  C   UNL     1      -7.133   6.308  69.364  1.00  0.00    -0.073 A  
HETATM   27  C   UNL     1      -8.262   7.136  69.491  1.00  0.00    -0.132 A  
HETATM   28  C   UNL     1      -8.716   7.519  70.770  1.00  0.00    -0.140 A  
BRANCH  26  29
HETATM   29  C   UNL     1      -6.721   5.788  68.040  1.00  0.00    -0.054 A  
HETATM   30  C   UNL     1      -7.437   4.766  67.389  1.00  0.00    -0.082 A  
HETATM   31  C   UNL     1      -7.079   4.329  66.106  1.00  0.00    -0.067 A  
HETATM   32  C   UNL     1      -6.001   4.914  65.449  1.00  0.00    -0.022 A  
HETATM   33  C   UNL     1      -5.266   5.915  66.071  1.00  0.00    -0.009 A  
HETATM   34 CL   UNL     1      -5.582   4.406  63.861  1.00  0.00    -0.013 Cl 
HETATM   35  C   UNL     1      -5.618   6.338  67.356  1.00  0.00    -0.009 A  
ENDBRANCH  26  29
ENDBRANCH  17  19
ENDBRANCH  11  17
ENDBRANCH   7   9
ENDBRANCH   4   7
ENDBRANCH   3   4
ENDBRANCH   2   3
TORSDOF 7
ENDMDL
MODEL      168
REMARK 921   NORMALIZED FREE ENERGY PREDICTED BY IDOCK:   -4.08 KCAL/MOL
REMARK 922        TOTAL FREE ENERGY PREDICTED BY IDOCK:   -7.51 KCAL/MOL
REMARK 923 INTER-LIGAND FREE ENERGY PREDICTED BY IDOCK:   -6.20 KCAL/MOL
REMARK 924 INTRA-LIGAND FREE ENERGY PREDICTED BY IDOCK:   -1.30 KCAL/MOL
REMARK 927      BINDING AFFINITY PREDICTED BY RF-SCORE:    0.00 PKD
ROOT
HETATM    1  C   UNL     1     -12.352  13.209  65.184  1.00  0.00    -0.525 C  
HETATM    2  C   UNL     1     -11.199  12.366  65.707  1.00  0.00    -0.370 C  
ENDROOT
BRANCH   2   3
HETATM    3  C   UNL     1     -11.468  11.852  67.118  1.00  0.00    -0.319 C  
BRANCH   3   4
HETATM    4  S   UNL     1     -10.109  10.833  67.697  1.00  0.00    -0.182 S  
HETATM    5  O   UNL     1      -8.854  11.450  67.331  1.00  0.00    -0.146 OA 
HETATM    6  O   UNL     1     -10.402   9.455  67.382  1.00  0.00    -0.228 OA 
BRANCH   4   7
HETATM    7  N   UNL     1     -10.324  10.933  69.372  1.00  0.00    -0.373 N  
HETATM    8  H   UNL     1     -10.993  11.585  69.780  1.00  0.00     0.000 HD 
BRANCH   7   9
HETATM    9  C   UNL     1      -9.534  10.070  70.194  1.00  0.00    -0.071 A  
HETATM   10  C   UNL     1     -10.147   9.204  71.109  1.00  0.00    -0.314 A  
HETATM   11  C   UNL     1      -9.413   8.186  71.722  1.00  0.00    -0.249 A  
HETATM   12  F   UNL     1     -11.467   9.326  71.320  1.00  0.00    -0.309 F  
HETATM   13  C   UNL     1      -8.149  10.061  70.047  1.00  0.00    -0.154 A  
HETATM   14  C   UNL     1      -8.024   8.190  71.571  1.00  0.00    -0.117 A  
HETATM   15  C   UNL     1      -7.390   9.136  70.763  1.00  0.00    -0.120 A  
HETATM   16  F   UNL     1      -7.256   7.263  72.160  1.00  0.00    -0.066 F  
BRANCH  11  17
HETATM   17  C   UNL     1     -10.058   7.086  72.477  1.00  0.00    -0.177 C  
HETATM   18  O   UNL     1     -10.777   7.372  73.433  1.00  0.00    -0.379 OA 
BRANCH  17  19
HETATM   19  C   UNL     1      -9.861   5.689  72.072  1.00  0.00    -0.197 A  
HETATM   20  C   UNL     1     -10.138   4.619  72.911  1.00  0.00    -0.159 A  
HETATM   21  N   UNL     1     -10.022   3.457  72.197  1.00  0.00    -0.165 NA 
HETATM   22  C   UNL     1      -9.634   3.742  70.918  1.00  0.00    -0.186 A  
HETATM   23  H   UNL     1     -10.198   2.521  72.563  1.00  0.00     0.000 HD 
HETATM   24  N   UNL     1      -9.503   2.829  69.941  1.00  0.00    -0.128 NA 
HETATM   25  C   UNL     1      -9.099   3.370  68.760  1.00  0.00    -0.145 A  
HETATM   26  C   UNL     1      -8.764   4.706  68.518  1.00  0.00    -0.113 A  
HETATM   27  C   UNL     1      -8.891   5.581  69.611  1.00  0.00    -0.120 A  
HETATM   28  C   UNL     1      -9.409   5.110  70.835  1.00  0.00    -0.199 A  
BRANCH  26  29
HETATM   29  C   UNL     1      -8.349   5.210  67.189  1.00  0.00    -0.107 A  
HETATM   30  C   UNL     1      -7.932   4.341  66.162  1.00  0.00    -0.098 A  
HETATM   31  C   UNL     1      -7.608   4.823  64.887  1.00  0.00    -0.077 A  
HETATM   32  C   UNL     1      -7.703   6.183  64.613  1.00  0.00    -0.101 A  
HETATM   33  C   UNL     1      -8.098   7.068  65.608  1.00  0.00    -0.129 A  
HETATM   34 CL   UNL     1      -7.341   6.773  63.039  1.00  0.00    -0.067 Cl 
HETATM   35  C   UNL     1      -8.407   6.585  66.884  1.00  0.00    -0.113 A  
ENDBRANCH  26  29
ENDBRANCH  17  19
ENDBRANCH  11  17
ENDBRANCH   7   9
ENDBRANCH   4   7
ENDBRANCH   3   4
ENDBRANCH   2   3
TORSDOF 7
ENDMDL
MODEL      169
REMARK 921   NORMALIZED FREE ENERGY PREDICTED BY IDOCK:   -4.06 KCAL/MOL
REMARK 922        TOTAL FREE ENERGY PREDICTED BY IDOCK:   -7.47 KCAL/MOL
REMARK 923 INTER-LIGAND FREE ENERGY PREDICTED BY IDOCK:   -6.10 KCAL/MOL
REMARK 924 INTRA-LIGAND FREE ENERGY PREDICTED BY IDOCK:   -1.37 KCAL/MOL
REMARK 927      BINDING AFFINITY PREDICTED BY RF-SCORE:    0.00 PKD
ROOT
HETATM    1  C   UNL     1     -13.388  15.471  71.724  1.00  0.00    -0.577 C  
HETATM    2  C   UNL     1     -12.640  14.894  70.533  1.00  0.00    -0.414 C  
ENDROOT
BRANCH   2   3
HETATM    3  C   UNL     1     -12.207  15.981  69.555  1.00  0.00     0.019 C  
BRANCH   3   4
HETATM    4  S   UNL     1     -10.536  15.688  68.970  1.00  0.00    -0.245 S  
HETATM    5  O   UNL     1     -10.034  14.459  69.543  1.00  0.00     0.021 OA 
HETATM    6  O   UNL     1      -9.798  16.925  69.051  1.00  0.00    -0.259 OA 
BRANCH   4   7
HETATM    7  N   UNL     1     -10.809  15.472  67.315  1.00  0.00    -0.313 N  
HETATM    8  H   UNL     1     -11.034  16.262  66.709  1.00  0.00     0.000 HD 
BRANCH   7   9
HETATM    9  C   UNL     1     -10.711  14.144  66.795  1.00  0.00    -0.286 A  
HETATM   10  C   UNL     1      -9.465  13.514  66.686  1.00  0.00    -0.265 A  
HETATM   11  C   UNL     1      -9.384  12.143  66.428  1.00  0.00    -0.225 A  
HETATM   12  F   UNL     1      -8.358  14.239  66.914  1.00  0.00    -0.215 F  
HETATM   13  C   UNL     1     -11.871  13.460  66.438  1.00  0.00    -0.441 A  
HETATM   14  C   UNL     1     -10.553  11.469  66.068  1.00  0.00    -0.261 A  
HETATM   15  C   UNL     1     -11.786  12.125  66.044  1.00  0.00    -0.388 A  
HETATM   16  F   UNL     1     -10.542  10.161  65.774  1.00  0.00    -0.279 F  
BRANCH  11  17
HETATM   17  C   UNL     1      -8.121  11.381  66.572  1.00  0.00    -0.141 C  
HETATM   18  O   UNL     1      -7.445  11.168  65.568  1.00  0.00     0.108 OA 
BRANCH  17  19
HETATM   19  C   UNL     1      -7.679  10.916  67.893  1.00  0.00    -0.104 A  
HETATM   20  C   UNL     1      -7.234  11.783  68.882  1.00  0.00    -0.107 A  
HETATM   21  N   UNL     1      -7.062  11.077  70.042  1.00  0.00    -0.421 NA 
HETATM   22  C   UNL     1      -7.344   9.759  69.821  1.00  0.00    -0.116 A  
HETATM   23  H   UNL     1      -6.768  11.474  70.934  1.00  0.00     0.000 HD 
HETATM   24  N   UNL     1      -7.345   8.810  70.775  1.00  0.00    -0.069 NA 
HETATM   25  C   UNL     1      -7.654   7.576  70.294  1.00  0.00    -0.090 A  
HETATM   26  C   UNL     1      -7.888   7.227  68.960  1.00  0.00    -0.118 A  
HETATM   27  C   UNL     1      -7.824   8.277  68.027  1.00  0.00    -0.118 A  
HETATM   28  C   UNL     1      -7.617   9.600  68.468  1.00  0.00    -0.080 A  
BRANCH  26  29
HETATM   29  C   UNL     1      -8.237   5.853  68.531  1.00  0.00    -0.109 A  
HETATM   30  C   UNL     1      -7.321   4.788  68.633  1.00  0.00    -0.065 A  
HETATM   31  C   UNL     1      -7.684   3.479  68.289  1.00  0.00    -0.060 A  
HETATM   32  C   UNL     1      -8.974   3.211  67.843  1.00  0.00    -0.152 A  
HETATM   33  C   UNL     1      -9.896   4.242  67.718  1.00  0.00    -0.132 A  
HETATM   34 CL   UNL     1      -9.434   1.600  67.454  1.00  0.00    -0.066 Cl 
HETATM   35  C   UNL     1      -9.526   5.549  68.049  1.00  0.00    -0.129 A  
ENDBRANCH  26  29
ENDBRANCH  17  19
ENDBRANCH  11  17
ENDBRANCH   7   9
ENDBRANCH   4   7
ENDBRANCH   3   4
ENDBRANCH   2   3
TORSDOF 7
ENDMDL
MODEL      170
REMARK 921   NORMALIZED FREE ENERGY PREDICTED BY IDOCK:   -4.05 KCAL/MOL
REMARK 922        TOTAL FREE ENERGY PREDICTED BY IDOCK:   -7.45 KCAL/MOL
REMARK 923 INTER-LIGAND FREE ENERGY PREDICTED BY IDOCK:   -6.08 KCAL/MOL
REMARK 924 INTRA-LIGAND FREE ENERGY PREDICTED BY IDOCK:   -1.37 KCAL/MOL
REMARK 927      BINDING AFFINITY PREDICTED BY RF-SCORE:    0.00 PKD
ROOT
HETATM    1  C   UNL     1     -13.256  10.200  72.091  1.00  0.00    -0.463 C  
HETATM    2  C   UNL     1     -12.870  10.250  70.621  1.00  0.00    -0.362 C  
ENDROOT
BRANCH   2   3
HETATM    3  C   UNL     1     -11.477  10.839  70.420  1.00  0.00    -0.307 C  
BRANCH   3   4
HETATM    4  S   UNL     1     -11.456  11.974  69.029  1.00  0.00    -0.324 S  
HETATM    5  O   UNL     1     -11.857  13.289  69.475  1.00  0.00    -0.299 OA 
HETATM    6  O   UNL     1     -12.081  11.327  67.901  1.00  0.00    -0.634 OA 
BRANCH   4   7
HETATM    7  N   UNL     1      -9.809  11.981  68.647  1.00  0.00    -0.358 N  
HETATM    8  H   UNL     1      -9.137  12.499  69.213  1.00  0.00     0.000 HD 
BRANCH   7   9
HETATM    9  C   UNL     1      -9.392  11.235  67.500  1.00  0.00    -0.162 A  
HETATM   10  C   UNL     1      -9.082   9.873  67.614  1.00  0.00    -0.131 A  
HETATM   11  C   UNL     1      -8.927   9.084  66.472  1.00  0.00    -0.177 A  
HETATM   12  F   UNL     1      -9.017   9.331  68.841  1.00  0.00    -0.129 F  
HETATM   13  C   UNL     1      -9.338  11.860  66.257  1.00  0.00    -0.234 A  
HETATM   14  C   UNL     1      -8.872   9.722  65.231  1.00  0.00    -0.175 A  
HETATM   15  C   UNL     1      -9.047  11.104  65.122  1.00  0.00    -0.161 A  
HETATM   16  F   UNL     1      -8.691   9.030  64.098  1.00  0.00    -0.193 F  
BRANCH  11  17
HETATM   17  C   UNL     1      -8.872   7.604  66.531  1.00  0.00    -0.147 C  
HETATM   18  O   UNL     1      -9.820   6.962  66.086  1.00  0.00    -0.007 OA 
BRANCH  17  19
HETATM   19  C   UNL     1      -7.694   6.925  67.085  1.00  0.00    -0.108 A  
HETATM   20  C   UNL     1      -6.402   7.193  66.652  1.00  0.00    -0.047 A  
HETATM   21  N   UNL     1      -5.519   6.540  67.470  1.00  0.00    -0.008 NA 
HETATM   22  C   UNL     1      -6.208   5.818  68.403  1.00  0.00    -0.032 A  
HETATM   23  H   UNL     1      -4.503   6.585  67.394  1.00  0.00     0.000 HD 
HETATM   24  N   UNL     1      -5.636   5.123  69.402  1.00  0.00    -0.008 NA 
HETATM   25  C   UNL     1      -6.543   4.485  70.191  1.00  0.00    -0.036 A  
HETATM   26  C   UNL     1      -7.929   4.444  70.014  1.00  0.00    -0.059 A  
HETATM   27  C   UNL     1      -8.433   5.165  68.918  1.00  0.00    -0.090 A  
HETATM   28  C   UNL     1      -7.563   5.938  68.122  1.00  0.00    -0.089 A  
BRANCH  26  29
HETATM   29  C   UNL     1      -8.843   3.735  70.940  1.00  0.00    -0.135 A  
HETATM   30  C   UNL     1      -9.150   2.370  70.780  1.00  0.00    -0.182 A  
HETATM   31  C   UNL     1      -9.961   1.693  71.700  1.00  0.00    -0.207 A  
HETATM   32  C   UNL     1     -10.473   2.368  72.803  1.00  0.00    -0.148 A  
HETATM   33  C   UNL     1     -10.200   3.718  72.981  1.00  0.00    -0.229 A  
HETATM   34 CL   UNL     1     -11.438   1.532  73.954  1.00  0.00    -0.260 Cl 
HETATM   35  C   UNL     1      -9.402   4.394  72.053  1.00  0.00    -0.180 A  
ENDBRANCH  26  29
ENDBRANCH  17  19
ENDBRANCH  11  17
ENDBRANCH   7   9
ENDBRANCH   4   7
ENDBRANCH   3   4
ENDBRANCH   2   3
TORSDOF 7
ENDMDL
MODEL      171
REMARK 921   NORMALIZED FREE ENERGY PREDICTED BY IDOCK:   -4.02 KCAL/MOL
REMARK 922        TOTAL FREE ENERGY PREDICTED BY IDOCK:   -7.41 KCAL/MOL
REMARK 923 INTER-LIGAND FREE ENERGY PREDICTED BY IDOCK:   -6.05 KCAL/MOL
REMARK 924 INTRA-LIGAND FREE ENERGY PREDICTED BY IDOCK:   -1.36 KCAL/MOL
REMARK 927      BINDING AFFINITY PREDICTED BY RF-SCORE:    0.00 PKD
ROOT
HETATM    1  C   UNL     1     -12.043  15.245  69.552  1.00  0.00    -0.320 C  
HETATM    2  C   UNL     1     -11.852  14.058  68.623  1.00  0.00    -0.396 C  
ENDROOT
BRANCH   2   3
HETATM    3  C   UNL     1     -11.566  14.499  67.191  1.00  0.00    -0.388 C  
BRANCH   3   4
HETATM    4  S   UNL     1     -11.917  13.175  66.031  1.00  0.00    -0.442 S  
HETATM    5  O   UNL     1     -12.876  13.634  65.051  1.00  0.00    -0.690 OA 
HETATM    6  O   UNL     1     -12.110  11.953  66.774  1.00  0.00    -0.593 OA 
BRANCH   4   7
HETATM    7  N   UNL     1     -10.404  12.982  65.298  1.00  0.00    -0.300 N  
HETATM    8  H   UNL     1     -10.140  13.531  64.480  1.00  0.00     0.000 HD 
BRANCH   7   9
HETATM    9  C   UNL     1      -9.510  12.022  65.867  1.00  0.00    -0.197 A  
HETATM   10  C   UNL     1      -9.135  10.885  65.141  1.00  0.00    -0.196 A  
HETATM   11  C   UNL     1      -8.075  10.085  65.576  1.00  0.00    -0.137 A  
HETATM   12  F   UNL     1      -9.761  10.629  63.981  1.00  0.00    -0.250 F  
HETATM   13  C   UNL     1      -8.978  12.248  67.134  1.00  0.00    -0.192 A  
HETATM   14  C   UNL     1      -7.551  10.318  66.849  1.00  0.00    -0.105 A  
HETATM   15  C   UNL     1      -8.016  11.373  67.638  1.00  0.00    -0.123 A  
HETATM   16  F   UNL     1      -6.558   9.566  67.343  1.00  0.00    -0.066 F  
BRANCH  11  17
HETATM   17  C   UNL     1      -7.464   9.041  64.719  1.00  0.00    -0.102 C  
HETATM   18  O   UNL     1      -6.537   9.359  63.977  1.00  0.00    -0.090 OA 
BRANCH  17  19
HETATM   19  C   UNL     1      -7.942   7.654  64.779  1.00  0.00    -0.137 A  
HETATM   20  C   UNL     1      -8.361   6.956  63.654  1.00  0.00     0.212 A  
HETATM   21  N   UNL     1      -8.577   5.650  64.002  1.00  0.00    -0.331 NA 
HETATM   22  C   UNL     1      -8.349   5.488  65.339  1.00  0.00    -0.142 A  
HETATM   23  H   UNL     1      -8.865   4.911  63.361  1.00  0.00     0.000 HD 
HETATM   24  N   UNL     1      -8.400   4.309  65.982  1.00  0.00    -0.109 NA 
HETATM   25  C   UNL     1      -8.138   4.419  67.313  1.00  0.00    -0.101 A  
HETATM   26  C   UNL     1      -7.903   5.597  68.029  1.00  0.00    -0.097 A  
HETATM   27  C   UNL     1      -7.911   6.786  67.279  1.00  0.00    -0.110 A  
HETATM   28  C   UNL     1      -8.067   6.736  65.879  1.00  0.00    -0.123 A  
BRANCH  26  29
HETATM   29  C   UNL     1      -7.608   5.618  69.480  1.00  0.00    -0.072 A  
HETATM   30  C   UNL     1      -8.369   6.388  70.381  1.00  0.00    -0.126 A  
HETATM   31  C   UNL     1      -8.125   6.347  71.761  1.00  0.00    -0.105 A  
HETATM   32  C   UNL     1      -7.120   5.528  72.265  1.00  0.00    -0.087 A  
HETATM   33  C   UNL     1      -6.343   4.767  71.400  1.00  0.00    -0.019 A  
HETATM   34 CL   UNL     1      -6.842   5.447  73.959  1.00  0.00    -0.076 Cl 
HETATM   35  C   UNL     1      -6.581   4.821  70.023  1.00  0.00    -0.036 A  
ENDBRANCH  26  29
ENDBRANCH  17  19
ENDBRANCH  11  17
ENDBRANCH   7   9
ENDBRANCH   4   7
ENDBRANCH   3   4
ENDBRANCH   2   3
TORSDOF 7
ENDMDL
MODEL      172
REMARK 921   NORMALIZED FREE ENERGY PREDICTED BY IDOCK:   -4.00 KCAL/MOL
REMARK 922        TOTAL FREE ENERGY PREDICTED BY IDOCK:   -7.38 KCAL/MOL
REMARK 923 INTER-LIGAND FREE ENERGY PREDICTED BY IDOCK:   -6.14 KCAL/MOL
REMARK 924 INTRA-LIGAND FREE ENERGY PREDICTED BY IDOCK:   -1.25 KCAL/MOL
REMARK 927      BINDING AFFINITY PREDICTED BY RF-SCORE:    0.00 PKD
ROOT
HETATM    1  C   UNL     1     -10.378  20.502  67.022  1.00  0.00    -0.189 C  
HETATM    2  C   UNL     1     -10.836  19.054  66.937  1.00  0.00    -0.393 C  
ENDROOT
BRANCH   2   3
HETATM    3  C   UNL     1      -9.762  18.154  66.335  1.00  0.00    -0.327 C  
BRANCH   3   4
HETATM    4  S   UNL     1      -9.691  16.579  67.193  1.00  0.00    -0.251 S  
HETATM    5  O   UNL     1     -10.663  16.570  68.263  1.00  0.00    -0.314 OA 
HETATM    6  O   UNL     1      -8.306  16.241  67.417  1.00  0.00    -0.160 OA 
BRANCH   4   7
HETATM    7  N   UNL     1     -10.185  15.524  65.967  1.00  0.00    -0.307 N  
HETATM    8  H   UNL     1     -10.155  15.802  64.986  1.00  0.00     0.000 HD 
BRANCH   7   9
HETATM    9  C   UNL     1     -10.647  14.228  66.356  1.00  0.00    -0.286 A  
HETATM   10  C   UNL     1      -9.773  13.133  66.358  1.00  0.00    -0.269 A  
HETATM   11  C   UNL     1     -10.139  11.935  66.975  1.00  0.00    -0.226 A  
HETATM   12  F   UNL     1      -8.549  13.290  65.826  1.00  0.00     0.452 F  
HETATM   13  C   UNL     1     -11.965  14.067  66.777  1.00  0.00    -0.473 A  
HETATM   14  C   UNL     1     -11.464  11.784  67.390  1.00  0.00    -0.305 A  
HETATM   15  C   UNL     1     -12.381  12.830  67.268  1.00  0.00     0.218 A  
HETATM   16  F   UNL     1     -11.892  10.648  67.958  1.00  0.00    -0.348 F  
BRANCH  11  17
HETATM   17  C   UNL     1      -9.165  10.851  67.245  1.00  0.00    -0.151 C  
HETATM   18  O   UNL     1      -8.557  10.859  68.312  1.00  0.00    -0.127 OA 
BRANCH  17  19
HETATM   19  C   UNL     1      -8.956   9.777  66.264  1.00  0.00    -0.180 A  
HETATM   20  C   UNL     1      -8.610  10.026  64.943  1.00  0.00    -0.173 A  
HETATM   21  N   UNL     1      -8.318   8.837  64.333  1.00  0.00    -0.206 NA 
HETATM   22  C   UNL     1      -8.505   7.811  65.216  1.00  0.00    -0.084 A  
HETATM   23  H   UNL     1      -8.008   8.731  63.367  1.00  0.00     0.000 HD 
HETATM   24  N   UNL     1      -8.232   6.521  64.953  1.00  0.00    -0.126 NA 
HETATM   25  C   UNL     1      -8.512   5.696  65.998  1.00  0.00    -0.132 A  
HETATM   26  C   UNL     1      -9.089   6.054  67.221  1.00  0.00    -0.111 A  
HETATM   27  C   UNL     1      -9.379   7.419  67.390  1.00  0.00    -0.154 A  
HETATM   28  C   UNL     1      -9.015   8.346  66.392  1.00  0.00    -0.207 A  
BRANCH  26  29
HETATM   29  C   UNL     1      -9.342   5.085  68.312  1.00  0.00    -0.160 A  
HETATM   30  C   UNL     1      -9.288   3.695  68.098  1.00  0.00    -0.236 A  
HETATM   31  C   UNL     1      -9.461   2.788  69.152  1.00  0.00    -0.155 A  
HETATM   32  C   UNL     1      -9.683   3.257  70.443  1.00  0.00    -0.055 A  
HETATM   33  C   UNL     1      -9.755   4.623  70.684  1.00  0.00    -0.277 A  
HETATM   34 CL   UNL     1      -9.859   2.148  71.745  1.00  0.00    -0.215 Cl 
HETATM   35  C   UNL     1      -9.596   5.524  69.627  1.00  0.00    -0.210 A  
ENDBRANCH  26  29
ENDBRANCH  17  19
ENDBRANCH  11  17
ENDBRANCH   7   9
ENDBRANCH   4   7
ENDBRANCH   3   4
ENDBRANCH   2   3
TORSDOF 7
ENDMDL
MODEL      173
REMARK 921   NORMALIZED FREE ENERGY PREDICTED BY IDOCK:   -3.99 KCAL/MOL
REMARK 922        TOTAL FREE ENERGY PREDICTED BY IDOCK:   -7.38 KCAL/MOL
REMARK 923 INTER-LIGAND FREE ENERGY PREDICTED BY IDOCK:   -6.28 KCAL/MOL
REMARK 924 INTRA-LIGAND FREE ENERGY PREDICTED BY IDOCK:   -1.10 KCAL/MOL
REMARK 927      BINDING AFFINITY PREDICTED BY RF-SCORE:    0.00 PKD
ROOT
HETATM    1  C   UNL     1      -5.978  19.216  66.577  1.00  0.00    -0.178 C  
HETATM    2  C   UNL     1      -6.670  19.110  67.926  1.00  0.00    -0.247 C  
ENDROOT
BRANCH   2   3
HETATM    3  C   UNL     1      -7.781  18.065  67.914  1.00  0.00    -0.230 C  
BRANCH   3   4
HETATM    4  S   UNL     1      -7.099  16.406  67.864  1.00  0.00    -0.142 S  
HETATM    5  O   UNL     1      -5.948  16.332  68.736  1.00  0.00    -0.111 OA 
HETATM    6  O   UNL     1      -7.042  15.974  66.488  1.00  0.00    -0.169 OA 
BRANCH   4   7
HETATM    7  N   UNL     1      -8.373  15.514  68.528  1.00  0.00    -0.153 N  
HETATM    8  H   UNL     1      -8.601  15.578  69.520  1.00  0.00     0.000 HD 
BRANCH   7   9
HETATM    9  C   UNL     1      -9.119  14.669  67.649  1.00  0.00    -0.193 A  
HETATM   10  C   UNL     1      -8.647  13.391  67.322  1.00  0.00    -0.213 A  
HETATM   11  C   UNL     1      -9.480  12.470  66.683  1.00  0.00    -0.242 A  
HETATM   12  F   UNL     1      -7.407  13.048  67.709  1.00  0.00    -0.089 F  
HETATM   13  C   UNL     1     -10.345  15.106  67.153  1.00  0.00    -0.263 A  
HETATM   14  C   UNL     1     -10.704  12.921  66.186  1.00  0.00    -0.272 A  
HETATM   15  C   UNL     1     -11.126  14.237  66.392  1.00  0.00    -0.325 A  
HETATM   16  F   UNL     1     -11.537  12.099  65.532  1.00  0.00    -0.370 F  
BRANCH  11  17
HETATM   17  C   UNL     1      -9.130  11.035  66.560  1.00  0.00    -0.173 C  
HETATM   18  O   UNL     1      -8.455  10.674  65.598  1.00  0.00    -0.171 OA 
BRANCH  17  19
HETATM   19  C   UNL     1      -9.560  10.074  67.584  1.00  0.00    -0.171 A  
HETATM   20  C   UNL     1      -9.958  10.462  68.856  1.00  0.00    -0.199 A  
HETATM   21  N   UNL     1     -10.462   9.372  69.512  1.00  0.00    -0.210 NA 
HETATM   22  C   UNL     1     -10.365   8.270  68.710  1.00  0.00    -0.205 A  
HETATM   23  H   UNL     1     -10.850   9.380  70.455  1.00  0.00     0.000 HD 
HETATM   24  N   UNL     1     -10.839   7.053  69.028  1.00  0.00    -0.209 NA 
HETATM   25  C   UNL     1     -10.610   6.125  68.060  1.00  0.00    -0.268 A  
HETATM   26  C   UNL     1      -9.904   6.310  66.867  1.00  0.00    -0.196 A  
HETATM   27  C   UNL     1      -9.407   7.606  66.640  1.00  0.00    -0.239 A  
HETATM   28  C   UNL     1      -9.701   8.643  67.548  1.00  0.00    -0.212 A  
BRANCH  26  29
HETATM   29  C   UNL     1      -9.718   5.241  65.860  1.00  0.00    -0.125 A  
HETATM   30  C   UNL     1     -10.808   4.667  65.177  1.00  0.00    -0.025 A  
HETATM   31  C   UNL     1     -10.616   3.705  64.176  1.00  0.00    -0.246 A  
HETATM   32  C   UNL     1      -9.328   3.305  63.835  1.00  0.00    -0.125 A  
HETATM   33  C   UNL     1      -8.233   3.842  64.500  1.00  0.00    -0.094 A  
HETATM   34 CL   UNL     1      -9.086   2.152  62.583  1.00  0.00    -0.087 Cl 
HETATM   35  C   UNL     1      -8.430   4.792  65.508  1.00  0.00    -0.127 A  
ENDBRANCH  26  29
ENDBRANCH  17  19
ENDBRANCH  11  17
ENDBRANCH   7   9
ENDBRANCH   4   7
ENDBRANCH   3   4
ENDBRANCH   2   3
TORSDOF 7
ENDMDL
MODEL      174
REMARK 921   NORMALIZED FREE ENERGY PREDICTED BY IDOCK:   -3.98 KCAL/MOL
REMARK 922        TOTAL FREE ENERGY PREDICTED BY IDOCK:   -7.36 KCAL/MOL
REMARK 923 INTER-LIGAND FREE ENERGY PREDICTED BY IDOCK:   -6.87 KCAL/MOL
REMARK 924 INTRA-LIGAND FREE ENERGY PREDICTED BY IDOCK:   -0.49 KCAL/MOL
REMARK 927      BINDING AFFINITY PREDICTED BY RF-SCORE:    0.00 PKD
ROOT
HETATM    1  C   UNL     1      -8.324   2.195  64.985  1.00  0.00    -0.087 C  
HETATM    2  C   UNL     1      -8.476   2.467  66.473  1.00  0.00    -0.099 C  
ENDROOT
BRANCH   2   3
HETATM    3  C   UNL     1      -9.263   3.747  66.738  1.00  0.00    -0.177 C  
BRANCH   3   4
HETATM    4  S   UNL     1      -8.254   4.952  67.605  1.00  0.00    -0.105 S  
HETATM    5  O   UNL     1      -6.939   4.999  67.005  1.00  0.00    -0.061 OA 
HETATM    6  O   UNL     1      -8.439   4.769  69.025  1.00  0.00    -0.081 OA 
BRANCH   4   7
HETATM    7  N   UNL     1      -9.089   6.381  67.256  1.00  0.00    -0.116 N  
HETATM    8  H   UNL     1      -9.786   6.756  67.900  1.00  0.00     0.000 HD 
BRANCH   7   9
HETATM    9  C   UNL     1      -8.784   7.043  66.026  1.00  0.00    -0.144 A  
HETATM   10  C   UNL     1      -9.038   8.412  65.875  1.00  0.00    -0.171 A  
HETATM   11  C   UNL     1      -8.512   9.114  64.788  1.00  0.00    -0.194 A  
HETATM   12  F   UNL     1      -9.727   9.046  66.838  1.00  0.00    -0.190 F  
HETATM   13  C   UNL     1      -8.189   6.326  64.991  1.00  0.00    -0.132 A  
HETATM   14  C   UNL     1      -7.921   8.385  63.754  1.00  0.00    -0.159 A  
HETATM   15  C   UNL     1      -7.784   6.998  63.838  1.00  0.00    -0.119 A  
HETATM   16  F   UNL     1      -7.427   8.992  62.666  1.00  0.00    -0.100 F  
BRANCH  11  17
HETATM   17  C   UNL     1      -8.517  10.595  64.722  1.00  0.00    -0.100 C  
HETATM   18  O   UNL     1      -7.505  11.202  65.065  1.00  0.00     0.356 OA 
BRANCH  17  19
HETATM   19  C   UNL     1      -9.699  11.314  64.231  1.00  0.00    -0.295 A  
HETATM   20  C   UNL     1     -10.641  10.726  63.398  1.00  0.00     0.103 A  
HETATM   21  N   UNL     1     -11.701  11.582  63.258  1.00  0.00    -0.867 NA 
HETATM   22  C   UNL     1     -11.452  12.735  63.949  1.00  0.00    -0.444 A  
HETATM   23  H   UNL     1     -12.545  11.389  62.721  1.00  0.00     0.000 HD 
HETATM   24  N   UNL     1     -12.326  13.749  64.077  1.00  0.00    -0.679 NA 
HETATM   25  C   UNL     1     -11.833  14.784  64.809  1.00  0.00    -0.423 A  
HETATM   26  C   UNL     1     -10.547  14.897  65.346  1.00  0.00    -0.391 A  
HETATM   27  C   UNL     1      -9.688  13.805  65.125  1.00  0.00     0.014 A  
HETATM   28  C   UNL     1     -10.167  12.653  64.469  1.00  0.00    -0.331 A  
BRANCH  26  29
HETATM   29  C   UNL     1     -10.103  16.060  66.149  1.00  0.00    -0.346 A  
HETATM   30  C   UNL     1     -11.021  16.928  66.769  1.00  0.00     0.132 A  
HETATM   31  C   UNL     1     -10.590  17.984  67.583  1.00  0.00    -0.413 A  
HETATM   32  C   UNL     1      -9.231  18.185  67.798  1.00  0.00    -0.263 A  
HETATM   33  C   UNL     1      -8.299  17.354  67.189  1.00  0.00    -0.232 A  
HETATM   34 CL   UNL     1      -8.699  19.457  68.825  1.00  0.00    -0.402 Cl 
HETATM   35  C   UNL     1      -8.733  16.310  66.366  1.00  0.00    -0.354 A  
ENDBRANCH  26  29
ENDBRANCH  17  19
ENDBRANCH  11  17
ENDBRANCH   7   9
ENDBRANCH   4   7
ENDBRANCH   3   4
ENDBRANCH   2   3
TORSDOF 7
ENDMDL
MODEL      175
REMARK 921   NORMALIZED FREE ENERGY PREDICTED BY IDOCK:   -3.92 KCAL/MOL
REMARK 922        TOTAL FREE ENERGY PREDICTED BY IDOCK:   -7.27 KCAL/MOL
REMARK 923 INTER-LIGAND FREE ENERGY PREDICTED BY IDOCK:   -5.77 KCAL/MOL
REMARK 924 INTRA-LIGAND FREE ENERGY PREDICTED BY IDOCK:   -1.50 KCAL/MOL
REMARK 927      BINDING AFFINITY PREDICTED BY RF-SCORE:    0.00 PKD
ROOT
HETATM    1  C   UNL     1      -7.228   2.133  64.684  1.00  0.00    -0.054 C  
HETATM    2  C   UNL     1      -7.289   3.548  65.235  1.00  0.00    -0.072 C  
ENDROOT
BRANCH   2   3
HETATM    3  C   UNL     1      -5.970   3.963  65.879  1.00  0.00    -0.023 C  
BRANCH   3   4
HETATM    4  S   UNL     1      -6.231   5.248  67.105  1.00  0.00    -0.032 S  
HETATM    5  O   UNL     1      -5.623   6.478  66.650  1.00  0.00    -0.013 OA 
HETATM    6  O   UNL     1      -5.957   4.699  68.411  1.00  0.00    -0.024 OA 
BRANCH   4   7
HETATM    7  N   UNL     1      -7.916   5.397  67.059  1.00  0.00    -0.101 N  
HETATM    8  H   UNL     1      -8.520   4.577  67.120  1.00  0.00     0.000 HD 
BRANCH   7   9
HETATM    9  C   UNL     1      -8.461   6.712  66.932  1.00  0.00    -0.115 A  
HETATM   10  C   UNL     1      -8.710   7.490  68.070  1.00  0.00    -0.121 A  
HETATM   11  C   UNL     1      -8.994   8.852  67.948  1.00  0.00    -0.142 A  
HETATM   12  F   UNL     1      -8.591   6.916  69.278  1.00  0.00    -0.128 F  
HETATM   13  C   UNL     1      -8.702   7.235  65.664  1.00  0.00    -0.092 A  
HETATM   14  C   UNL     1      -9.238   9.365  66.672  1.00  0.00    -0.153 A  
HETATM   15  C   UNL     1      -9.122   8.559  65.537  1.00  0.00    -0.150 A  
HETATM   16  F   UNL     1      -9.550  10.655  66.486  1.00  0.00    -0.186 F  
BRANCH  11  17
HETATM   17  C   UNL     1      -8.996   9.770  69.112  1.00  0.00    -0.161 C  
HETATM   18  O   UNL     1      -7.936   9.979  69.698  1.00  0.00    -0.139 OA 
BRANCH  17  19
HETATM   19  C   UNL     1     -10.236  10.435  69.534  1.00  0.00    -0.258 A  
HETATM   20  C   UNL     1     -11.241   9.774  70.228  1.00  0.00    -0.288 A  
HETATM   21  N   UNL     1     -12.175  10.691  70.628  1.00  0.00    -0.332 NA 
HETATM   22  C   UNL     1     -11.823  11.931  70.175  1.00  0.00    -0.308 A  
HETATM   23  H   UNL     1     -13.007  10.481  71.179  1.00  0.00     0.000 HD 
HETATM   24  N   UNL     1     -12.491  13.063  70.460  1.00  0.00    -0.276 NA 
HETATM   25  C   UNL     1     -11.938  14.164  69.882  1.00  0.00    -0.338 A  
HETATM   26  C   UNL     1     -10.842  14.198  69.015  1.00  0.00    -0.273 A  
HETATM   27  C   UNL     1     -10.234  12.960  68.741  1.00  0.00    -0.105 A  
HETATM   28  C   UNL     1     -10.685  11.793  69.391  1.00  0.00    -0.049 A  
BRANCH  26  29
HETATM   29  C   UNL     1     -10.297  15.452  68.446  1.00  0.00    -0.229 A  
HETATM   30  C   UNL     1      -8.923  15.612  68.182  1.00  0.00    -0.179 A  
HETATM   31  C   UNL     1      -8.428  16.776  67.579  1.00  0.00    -0.203 A  
HETATM   32  C   UNL     1      -9.301  17.798  67.221  1.00  0.00    -0.254 A  
HETATM   33  C   UNL     1     -10.660  17.676  67.481  1.00  0.00    -0.345 A  
HETATM   34 CL   UNL     1      -8.702  19.212  66.448  1.00  0.00    -0.326 Cl 
HETATM   35  C   UNL     1     -11.148  16.519  68.096  1.00  0.00    -0.303 A  
ENDBRANCH  26  29
ENDBRANCH  17  19
ENDBRANCH  11  17
ENDBRANCH   7   9
ENDBRANCH   4   7
ENDBRANCH   3   4
ENDBRANCH   2   3
TORSDOF 7
ENDMDL
MODEL      176
REMARK 921   NORMALIZED FREE ENERGY PREDICTED BY IDOCK:   -3.89 KCAL/MOL
REMARK 922        TOTAL FREE ENERGY PREDICTED BY IDOCK:   -7.23 KCAL/MOL
REMARK 923 INTER-LIGAND FREE ENERGY PREDICTED BY IDOCK:   -5.23 KCAL/MOL
REMARK 924 INTRA-LIGAND FREE ENERGY PREDICTED BY IDOCK:   -2.00 KCAL/MOL
REMARK 927      BINDING AFFINITY PREDICTED BY RF-SCORE:    0.00 PKD
ROOT
HETATM    1  C   UNL     1      -9.289  12.916  67.701  1.00  0.00    -0.195 C  
HETATM    2  C   UNL     1      -8.993  11.591  68.384  1.00  0.00    -0.173 C  
ENDROOT
BRANCH   2   3
HETATM    3  C   UNL     1      -7.524  11.200  68.251  1.00  0.00    -0.094 C  
BRANCH   3   4
HETATM    4  S   UNL     1      -6.977  10.271  69.687  1.00  0.00    -0.131 S  
HETATM    5  O   UNL     1      -6.179  11.126  70.537  1.00  0.00    -0.271 OA 
HETATM    6  O   UNL     1      -6.506   8.980  69.245  1.00  0.00    -0.044 OA 
BRANCH   4   7
HETATM    7  N   UNL     1      -8.455   9.942  70.439  1.00  0.00    -0.290 N  
HETATM    8  H   UNL     1      -9.266  10.544  70.296  1.00  0.00     0.000 HD 
BRANCH   7   9
HETATM    9  C   UNL     1      -8.527   8.789  71.282  1.00  0.00    -0.186 A  
HETATM   10  C   UNL     1      -9.480   7.791  71.040  1.00  0.00    -0.155 A  
HETATM   11  C   UNL     1      -9.392   6.557  71.686  1.00  0.00    -0.147 A  
HETATM   12  F   UNL     1     -10.428   8.021  70.116  1.00  0.00    -0.206 F  
HETATM   13  C   UNL     1      -7.612   8.641  72.321  1.00  0.00    -0.044 A  
HETATM   14  C   UNL     1      -8.474   6.421  72.729  1.00  0.00    -0.121 A  
HETATM   15  C   UNL     1      -7.607   7.463  73.067  1.00  0.00    -0.099 A  
HETATM   16  F   UNL     1      -8.361   5.275  73.416  1.00  0.00    -0.111 F  
BRANCH  11  17
HETATM   17  C   UNL     1     -10.199   5.384  71.272  1.00  0.00    -0.223 C  
HETATM   18  O   UNL     1     -11.241   5.143  71.878  1.00  0.00    -0.064 OA 
BRANCH  17  19
HETATM   19  C   UNL     1      -9.771   4.548  70.144  1.00  0.00    -0.287 A  
HETATM   20  C   UNL     1      -9.693   3.164  70.224  1.00  0.00    -0.018 A  
HETATM   21  N   UNL     1      -9.437   2.664  68.976  1.00  0.00    -0.140 NA 
HETATM   22  C   UNL     1      -9.306   3.694  68.088  1.00  0.00    -0.180 A  
HETATM   23  H   UNL     1      -9.357   1.674  68.744  1.00  0.00     0.000 HD 
HETATM   24  N   UNL     1      -9.126   3.540  66.764  1.00  0.00    -0.152 NA 
HETATM   25  C   UNL     1      -9.019   4.724  66.103  1.00  0.00    -0.122 A  
HETATM   26  C   UNL     1      -9.013   6.004  66.665  1.00  0.00    -0.129 A  
HETATM   27  C   UNL     1      -9.164   6.065  68.062  1.00  0.00    -0.115 A  
HETATM   28  C   UNL     1      -9.389   4.884  68.798  1.00  0.00    -0.184 A  
BRANCH  26  29
HETATM   29  C   UNL     1      -8.909   7.243  65.860  1.00  0.00    -0.136 A  
HETATM   30  C   UNL     1      -8.144   7.299  64.679  1.00  0.00    -0.081 A  
HETATM   31  C   UNL     1      -8.108   8.455  63.888  1.00  0.00    -0.143 A  
HETATM   32  C   UNL     1      -8.844   9.575  64.261  1.00  0.00    -0.213 A  
HETATM   33  C   UNL     1      -9.598   9.556  65.428  1.00  0.00    -0.342 A  
HETATM   34 CL   UNL     1      -8.831  10.982  63.274  1.00  0.00    -0.149 Cl 
HETATM   35  C   UNL     1      -9.620   8.404  66.221  1.00  0.00    -0.286 A  
ENDBRANCH  26  29
ENDBRANCH  17  19
ENDBRANCH  11  17
ENDBRANCH   7   9
ENDBRANCH   4   7
ENDBRANCH   3   4
ENDBRANCH   2   3
TORSDOF 7
ENDMDL
MODEL      177
REMARK 921   NORMALIZED FREE ENERGY PREDICTED BY IDOCK:   -3.73 KCAL/MOL
REMARK 922        TOTAL FREE ENERGY PREDICTED BY IDOCK:   -7.01 KCAL/MOL
REMARK 923 INTER-LIGAND FREE ENERGY PREDICTED BY IDOCK:   -5.68 KCAL/MOL
REMARK 924 INTRA-LIGAND FREE ENERGY PREDICTED BY IDOCK:   -1.33 KCAL/MOL
REMARK 927      BINDING AFFINITY PREDICTED BY RF-SCORE:    0.00 PKD
ROOT
HETATM    1  C   UNL     1      -8.399   8.355  64.574  1.00  0.00    -0.125 C  
HETATM    2  C   UNL     1      -8.743   7.890  65.981  1.00  0.00    -0.182 C  
ENDROOT
BRANCH   2   3
HETATM    3  C   UNL     1      -7.528   7.313  66.700  1.00  0.00    -0.088 C  
BRANCH   3   4
HETATM    4  S   UNL     1      -7.145   5.668  66.092  1.00  0.00    -0.069 S  
HETATM    5  O   UNL     1      -5.719   5.447  66.167  1.00  0.00    -0.016 OA 
HETATM    6  O   UNL     1      -7.890   5.443  64.877  1.00  0.00    -0.091 OA 
BRANCH   4   7
HETATM    7  N   UNL     1      -7.929   4.710  67.245  1.00  0.00    -0.101 N  
HETATM    8  H   UNL     1      -7.695   3.724  67.360  1.00  0.00     0.000 HD 
BRANCH   7   9
HETATM    9  C   UNL     1      -8.931   5.332  68.053  1.00  0.00    -0.109 A  
HETATM   10  C   UNL     1      -8.603   5.867  69.305  1.00  0.00    -0.112 A  
HETATM   11  C   UNL     1      -9.503   6.695  69.980  1.00  0.00    -0.161 A  
HETATM   12  F   UNL     1      -7.378   5.629  69.802  1.00  0.00    -0.062 F  
HETATM   13  C   UNL     1     -10.231   5.446  67.566  1.00  0.00    -0.243 A  
HETATM   14  C   UNL     1     -10.804   6.799  69.485  1.00  0.00    -0.273 A  
HETATM   15  C   UNL     1     -11.179   6.157  68.302  1.00  0.00    -0.192 A  
HETATM   16  F   UNL     1     -11.728   7.549  70.101  1.00  0.00    -0.235 F  
BRANCH  11  17
HETATM   17  C   UNL     1      -9.110   7.499  71.162  1.00  0.00    -0.147 C  
HETATM   18  O   UNL     1      -9.574   7.197  72.259  1.00  0.00    -0.143 OA 
BRANCH  17  19
HETATM   19  C   UNL     1      -8.163   8.613  71.023  1.00  0.00    -0.179 A  
HETATM   20  C   UNL     1      -6.950   8.654  71.697  1.00  0.00    -0.085 A  
HETATM   21  N   UNL     1      -6.224   9.717  71.233  1.00  0.00    -0.263 NA 
HETATM   22  C   UNL     1      -6.954  10.397  70.298  1.00  0.00    -0.096 A  
HETATM   23  H   UNL     1      -5.283   9.965  71.537  1.00  0.00     0.000 HD 
HETATM   24  N   UNL     1      -6.498  11.447  69.594  1.00  0.00    -0.123 NA 
HETATM   25  C   UNL     1      -7.424  11.948  68.731  1.00  0.00    -0.100 A  
HETATM   26  C   UNL     1      -8.748  11.526  68.580  1.00  0.00    -0.138 A  
HETATM   27  C   UNL     1      -9.148  10.448  69.389  1.00  0.00    -0.170 A  
HETATM   28  C   UNL     1      -8.211   9.810  70.227  1.00  0.00    -0.178 A  
BRANCH  26  29
HETATM   29  C   UNL     1      -9.682  12.122  67.597  1.00  0.00    -0.188 A  
HETATM   30  C   UNL     1     -10.390  11.332  66.672  1.00  0.00    -0.279 A  
HETATM   31  C   UNL     1     -11.324  11.899  65.794  1.00  0.00    -0.354 A  
HETATM   32  C   UNL     1     -11.570  13.268  65.831  1.00  0.00    -0.347 A  
HETATM   33  C   UNL     1     -10.877  14.076  66.723  1.00  0.00    -0.294 A  
HETATM   34 CL   UNL     1     -12.740  13.962  64.780  1.00  0.00    -0.305 Cl 
HETATM   35  C   UNL     1      -9.937  13.508  67.588  1.00  0.00    -0.229 A  
ENDBRANCH  26  29
ENDBRANCH  17  19
ENDBRANCH  11  17
ENDBRANCH   7   9
ENDBRANCH   4   7
ENDBRANCH   3   4
ENDBRANCH   2   3
TORSDOF 7
ENDMDL
MODEL      178
REMARK 921   NORMALIZED FREE ENERGY PREDICTED BY IDOCK:   -3.71 KCAL/MOL
REMARK 922        TOTAL FREE ENERGY PREDICTED BY IDOCK:   -6.98 KCAL/MOL
REMARK 923 INTER-LIGAND FREE ENERGY PREDICTED BY IDOCK:   -6.76 KCAL/MOL
REMARK 924 INTRA-LIGAND FREE ENERGY PREDICTED BY IDOCK:   -0.22 KCAL/MOL
REMARK 927      BINDING AFFINITY PREDICTED BY RF-SCORE:    0.00 PKD
ROOT
HETATM    1  C   UNL     1      -6.465   6.216  73.227  1.00  0.00    -0.069 C  
HETATM    2  C   UNL     1      -6.428   6.891  71.865  1.00  0.00    -0.049 C  
ENDROOT
BRANCH   2   3
HETATM    3  C   UNL     1      -7.317   6.175  70.853  1.00  0.00    -0.080 C  
BRANCH   3   4
HETATM    4  S   UNL     1      -9.011   6.083  71.441  1.00  0.00    -0.143 S  
HETATM    5  O   UNL     1      -9.125   5.019  72.413  1.00  0.00    -0.132 OA 
HETATM    6  O   UNL     1      -9.896   6.179  70.306  1.00  0.00    -0.165 OA 
BRANCH   4   7
HETATM    7  N   UNL     1      -9.163   7.579  72.216  1.00  0.00    -0.134 N  
HETATM    8  H   UNL     1      -8.468   7.897  72.892  1.00  0.00     0.000 HD 
BRANCH   7   9
HETATM    9  C   UNL     1     -10.300   8.381  71.889  1.00  0.00    -0.283 A  
HETATM   10  C   UNL     1     -10.230   9.325  70.856  1.00  0.00    -0.301 A  
HETATM   11  C   UNL     1     -11.392   9.922  70.362  1.00  0.00    -0.376 A  
HETATM   12  F   UNL     1      -9.034   9.580  70.301  1.00  0.00    -0.193 F  
HETATM   13  C   UNL     1     -11.497   8.188  72.575  1.00  0.00    -0.470 A  
HETATM   14  C   UNL     1     -12.585   9.723  71.060  1.00  0.00    -0.314 A  
HETATM   15  C   UNL     1     -12.636   8.886  72.177  1.00  0.00    -0.467 A  
HETATM   16  F   UNL     1     -13.730  10.294  70.662  1.00  0.00    -0.329 F  
BRANCH  11  17
HETATM   17  C   UNL     1     -11.408  10.709  69.106  1.00  0.00    -0.273 C  
HETATM   18  O   UNL     1     -12.449  11.277  68.781  1.00  0.00    -0.444 OA 
BRANCH  17  19
HETATM   19  C   UNL     1     -10.196  10.826  68.285  1.00  0.00    -0.187 A  
HETATM   20  C   UNL     1      -9.433  11.985  68.237  1.00  0.00    -0.199 A  
HETATM   21  N   UNL     1      -8.287  11.729  67.533  1.00  0.00    -0.147 NA 
HETATM   22  C   UNL     1      -8.304  10.438  67.085  1.00  0.00    -0.126 A  
HETATM   23  H   UNL     1      -7.536  12.398  67.369  1.00  0.00     0.000 HD 
HETATM   24  N   UNL     1      -7.292   9.848  66.424  1.00  0.00    -0.098 NA 
HETATM   25  C   UNL     1      -7.562   8.559  66.083  1.00  0.00    -0.089 A  
HETATM   26  C   UNL     1      -8.759   7.867  66.292  1.00  0.00    -0.174 A  
HETATM   27  C   UNL     1      -9.776   8.578  66.952  1.00  0.00    -0.286 A  
HETATM   28  C   UNL     1      -9.528   9.881  67.431  1.00  0.00    -0.173 A  
BRANCH  26  29
HETATM   29  C   UNL     1      -8.956   6.452  65.900  1.00  0.00    -0.111 A  
HETATM   30  C   UNL     1      -8.185   5.848  64.889  1.00  0.00    -0.135 A  
HETATM   31  C   UNL     1      -8.332   4.490  64.574  1.00  0.00    -0.115 A  
HETATM   32  C   UNL     1      -9.249   3.710  65.271  1.00  0.00    -0.152 A  
HETATM   33  C   UNL     1     -10.035   4.281  66.264  1.00  0.00    -0.229 A  
HETATM   34 CL   UNL     1      -9.407   2.037  64.912  1.00  0.00    -0.118 Cl 
HETATM   35  C   UNL     1      -9.895   5.639  66.566  1.00  0.00    -0.195 A  
ENDBRANCH  26  29
ENDBRANCH  17  19
ENDBRANCH  11  17
ENDBRANCH   7   9
ENDBRANCH   4   7
ENDBRANCH   3   4
ENDBRANCH   2   3
TORSDOF 7
ENDMDL
MODEL      179
REMARK 921   NORMALIZED FREE ENERGY PREDICTED BY IDOCK:   -3.69 KCAL/MOL
REMARK 922        TOTAL FREE ENERGY PREDICTED BY IDOCK:   -6.95 KCAL/MOL
REMARK 923 INTER-LIGAND FREE ENERGY PREDICTED BY IDOCK:   -6.20 KCAL/MOL
REMARK 924 INTRA-LIGAND FREE ENERGY PREDICTED BY IDOCK:   -0.75 KCAL/MOL
REMARK 927      BINDING AFFINITY PREDICTED BY RF-SCORE:    0.00 PKD
ROOT
HETATM    1  C   UNL     1      -9.626   2.996  68.148  1.00  0.00    -0.128 C  
HETATM    2  C   UNL     1      -8.877   4.309  67.986  1.00  0.00    -0.129 C  
ENDROOT
BRANCH   2   3
HETATM    3  C   UNL     1      -8.522   4.929  69.334  1.00  0.00    -0.087 C  
BRANCH   3   4
HETATM    4  S   UNL     1      -6.743   4.983  69.566  1.00  0.00    -0.053 S  
HETATM    5  O   UNL     1      -6.087   4.508  68.369  1.00  0.00    -0.029 OA 
HETATM    6  O   UNL     1      -6.435   4.447  70.870  1.00  0.00    -0.027 OA 
BRANCH   4   7
HETATM    7  N   UNL     1      -6.492   6.648  69.729  1.00  0.00    -0.042 N  
HETATM    8  H   UNL     1      -5.996   7.030  70.535  1.00  0.00     0.000 HD 
BRANCH   7   9
HETATM    9  C   UNL     1      -6.999   7.499  68.698  1.00  0.00    -0.079 A  
HETATM   10  C   UNL     1      -7.720   8.655  69.023  1.00  0.00    -0.095 A  
HETATM   11  C   UNL     1      -7.992   9.617  68.047  1.00  0.00    -0.097 A  
HETATM   12  F   UNL     1      -8.071   8.853  70.304  1.00  0.00    -0.085 F  
HETATM   13  C   UNL     1      -6.733   7.195  67.366  1.00  0.00    -0.068 A  
HETATM   14  C   UNL     1      -7.724   9.300  66.714  1.00  0.00    -0.094 A  
HETATM   15  C   UNL     1      -7.125   8.086  66.368  1.00  0.00    -0.074 A  
HETATM   16  F   UNL     1      -7.993  10.163  65.724  1.00  0.00    -0.118 F  
BRANCH  11  17
HETATM   17  C   UNL     1      -8.503  10.967  68.384  1.00  0.00    -0.141 C  
HETATM   18  O   UNL     1      -7.897  11.634  69.220  1.00  0.00     0.041 OA 
BRANCH  17  19
HETATM   19  C   UNL     1      -9.694  11.501  67.711  1.00  0.00    -0.180 A  
HETATM   20  C   UNL     1     -10.831  10.739  67.484  1.00  0.00    -0.288 A  
HETATM   21  N   UNL     1     -11.819  11.555  67.003  1.00  0.00    -0.530 NA 
HETATM   22  C   UNL     1     -11.339  12.827  66.872  1.00  0.00    -0.321 A  
HETATM   23  H   UNL     1     -12.769  11.259  66.777  1.00  0.00     0.000 HD 
HETATM   24  N   UNL     1     -12.079  13.885  66.495  1.00  0.00    -0.439 NA 
HETATM   25  C   UNL     1     -11.361  15.040  66.437  1.00  0.00    -0.275 A  
HETATM   26  C   UNL     1      -9.988  15.189  66.658  1.00  0.00    -0.261 A  
HETATM   27  C   UNL     1      -9.289  14.020  67.005  1.00  0.00    -0.256 A  
HETATM   28  C   UNL     1      -9.987  12.809  67.190  1.00  0.00    -0.218 A  
BRANCH  26  29
HETATM   29  C   UNL     1      -9.294  16.495  66.589  1.00  0.00    -0.279 A  
HETATM   30  C   UNL     1      -7.889  16.588  66.555  1.00  0.00    -0.338 A  
HETATM   31  C   UNL     1      -7.244  17.824  66.420  1.00  0.00    -0.308 A  
HETATM   32  C   UNL     1      -7.993  18.991  66.308  1.00  0.00    -0.287 A  
HETATM   33  C   UNL     1      -9.380  18.934  66.352  1.00  0.00    -0.343 A  
HETATM   34 CL   UNL     1      -7.206  20.506  66.106  1.00  0.00    -0.237 Cl 
HETATM   35  C   UNL     1     -10.020  17.699  66.501  1.00  0.00    -0.332 A  
ENDBRANCH  26  29
ENDBRANCH  17  19
ENDBRANCH  11  17
ENDBRANCH   7   9
ENDBRANCH   4   7
ENDBRANCH   3   4
ENDBRANCH   2   3
TORSDOF 7
ENDMDL
MODEL      180
REMARK 921   NORMALIZED FREE ENERGY PREDICTED BY IDOCK:   -3.65 KCAL/MOL
REMARK 922        TOTAL FREE ENERGY PREDICTED BY IDOCK:   -6.89 KCAL/MOL
REMARK 923 INTER-LIGAND FREE ENERGY PREDICTED BY IDOCK:   -6.26 KCAL/MOL
REMARK 924 INTRA-LIGAND FREE ENERGY PREDICTED BY IDOCK:   -0.64 KCAL/MOL
REMARK 927      BINDING AFFINITY PREDICTED BY RF-SCORE:    0.00 PKD
ROOT
HETATM    1  C   UNL     1      -9.283   3.442  67.891  1.00  0.00    -0.237 C  
HETATM    2  C   UNL     1      -9.787   4.865  67.706  1.00  0.00    -0.196 C  
ENDROOT
BRANCH   2   3
HETATM    3  C   UNL     1      -8.685   5.892  67.947  1.00  0.00    -0.104 C  
BRANCH   3   4
HETATM    4  S   UNL     1      -7.196   5.459  67.043  1.00  0.00    -0.079 S  
HETATM    5  O   UNL     1      -7.557   4.933  65.745  1.00  0.00    -0.084 OA 
HETATM    6  O   UNL     1      -6.308   4.751  67.933  1.00  0.00    -0.034 OA 
BRANCH   4   7
HETATM    7  N   UNL     1      -6.478   6.979  66.860  1.00  0.00    -0.052 N  
HETATM    8  H   UNL     1      -5.491   7.125  67.068  1.00  0.00     0.000 HD 
BRANCH   7   9
HETATM    9  C   UNL     1      -7.306   8.052  66.402  1.00  0.00    -0.083 A  
HETATM   10  C   UNL     1      -7.332   9.272  67.091  1.00  0.00    -0.091 A  
HETATM   11  C   UNL     1      -7.927  10.397  66.516  1.00  0.00    -0.123 A  
HETATM   12  F   UNL     1      -6.704   9.352  68.275  1.00  0.00    -0.057 F  
HETATM   13  C   UNL     1      -8.054   7.892  65.239  1.00  0.00    -0.135 A  
HETATM   14  C   UNL     1      -8.678  10.225  65.351  1.00  0.00    -0.169 A  
HETATM   15  C   UNL     1      -8.767   8.977  64.729  1.00  0.00    -0.187 A  
HETATM   16  F   UNL     1      -9.304  11.255  64.765  1.00  0.00    -0.220 F  
BRANCH  11  17
HETATM   17  C   UNL     1      -7.747  11.760  67.068  1.00  0.00    -0.158 C  
HETATM   18  O   UNL     1      -6.632  12.275  67.014  1.00  0.00    -0.136 OA 
BRANCH  17  19
HETATM   19  C   UNL     1      -8.886  12.486  67.644  1.00  0.00    -0.179 A  
HETATM   20  C   UNL     1      -9.957  11.842  68.249  1.00  0.00    -0.202 A  
HETATM   21  N   UNL     1     -10.762  12.782  68.835  1.00  0.00    -0.377 NA 
HETATM   22  C   UNL     1     -10.262  14.030  68.591  1.00  0.00    -0.233 A  
HETATM   23  H   UNL     1     -11.605  12.581  69.372  1.00  0.00     0.000 HD 
HETATM   24  N   UNL     1     -10.776  15.167  69.091  1.00  0.00    -0.243 NA 
HETATM   25  C   UNL     1     -10.097  16.276  68.692  1.00  0.00    -0.233 A  
HETATM   26  C   UNL     1      -9.017  16.328  67.804  1.00  0.00    -0.193 A  
HETATM   27  C   UNL     1      -8.576  15.092  67.298  1.00  0.00    -0.218 A  
HETATM   28  C   UNL     1      -9.162  13.894  67.753  1.00  0.00    -0.197 A  
BRANCH  26  29
HETATM   29  C   UNL     1      -8.326  17.586  67.440  1.00  0.00    -0.220 A  
HETATM   30  C   UNL     1      -8.511  18.773  68.174  1.00  0.00    -0.335 A  
HETATM   31  C   UNL     1      -7.799  19.940  67.863  1.00  0.00    -0.327 A  
HETATM   32  C   UNL     1      -6.884  19.937  66.815  1.00  0.00    -0.210 A  
HETATM   33  C   UNL     1      -6.690  18.785  66.064  1.00  0.00    -0.278 A  
HETATM   34 CL   UNL     1      -5.982  21.355  66.454  1.00  0.00    -0.344 Cl 
HETATM   35  C   UNL     1      -7.412  17.627  66.369  1.00  0.00    -0.324 A  
ENDBRANCH  26  29
ENDBRANCH  17  19
ENDBRANCH  11  17
ENDBRANCH   7   9
ENDBRANCH   4   7
ENDBRANCH   3   4
ENDBRANCH   2   3
TORSDOF 7
ENDMDL
MODEL      181
REMARK 921   NORMALIZED FREE ENERGY PREDICTED BY IDOCK:   -3.65 KCAL/MOL
REMARK 922        TOTAL FREE ENERGY PREDICTED BY IDOCK:   -6.89 KCAL/MOL
REMARK 923 INTER-LIGAND FREE ENERGY PREDICTED BY IDOCK:   -6.17 KCAL/MOL
REMARK 924 INTRA-LIGAND FREE ENERGY PREDICTED BY IDOCK:   -0.72 KCAL/MOL
REMARK 927      BINDING AFFINITY PREDICTED BY RF-SCORE:    0.00 PKD
ROOT
HETATM    1  C   UNL     1     -12.431   4.828  72.726  1.00  0.00     0.685 C  
HETATM    2  C   UNL     1     -10.952   4.493  72.836  1.00  0.00    -0.262 C  
ENDROOT
BRANCH   2   3
HETATM    3  C   UNL     1     -10.093   5.438  72.003  1.00  0.00    -0.190 C  
BRANCH   3   4
HETATM    4  S   UNL     1      -8.481   5.671  72.758  1.00  0.00    -0.119 S  
HETATM    5  O   UNL     1      -7.449   5.400  71.783  1.00  0.00    -0.087 OA 
HETATM    6  O   UNL     1      -8.488   5.043  74.057  1.00  0.00    -0.106 OA 
BRANCH   4   7
HETATM    7  N   UNL     1      -8.522   7.328  73.095  1.00  0.00    -0.119 N  
HETATM    8  H   UNL     1      -8.738   7.671  74.032  1.00  0.00     0.000 HD 
BRANCH   7   9
HETATM    9  C   UNL     1      -8.245   8.230  72.021  1.00  0.00    -0.160 A  
HETATM   10  C   UNL     1      -9.269   8.645  71.161  1.00  0.00    -0.213 A  
HETATM   11  C   UNL     1      -9.067   9.712  70.282  1.00  0.00    -0.272 A  
HETATM   12  F   UNL     1     -10.468   8.049  71.257  1.00  0.00    -0.206 F  
HETATM   13  C   UNL     1      -6.955   8.731  71.862  1.00  0.00    -0.064 A  
HETATM   14  C   UNL     1      -7.769  10.204  70.128  1.00  0.00    -0.069 A  
HETATM   15  C   UNL     1      -6.712   9.700  70.890  1.00  0.00    -0.063 A  
HETATM   16  F   UNL     1      -7.497  11.202  69.276  1.00  0.00    -0.110 F  
BRANCH  11  17
HETATM   17  C   UNL     1     -10.181  10.363  69.553  1.00  0.00    -0.231 C  
HETATM   18  O   UNL     1     -11.173  10.715  70.189  1.00  0.00    -0.288 OA 
BRANCH  17  19
HETATM   19  C   UNL     1     -10.086  10.604  68.108  1.00  0.00    -0.179 A  
HETATM   20  C   UNL     1     -10.170   9.583  67.171  1.00  0.00    -0.242 A  
HETATM   21  N   UNL     1     -10.223  10.136  65.920  1.00  0.00    -0.241 NA 
HETATM   22  C   UNL     1     -10.133  11.496  66.017  1.00  0.00    -0.232 A  
HETATM   23  H   UNL     1     -10.315   9.614  65.049  1.00  0.00     0.000 HD 
HETATM   24  N   UNL     1     -10.230  12.341  64.976  1.00  0.00    -0.283 NA 
HETATM   25  C   UNL     1     -10.101  13.646  65.339  1.00  0.00    -0.271 A  
HETATM   26  C   UNL     1      -9.825  14.141  66.618  1.00  0.00    -0.289 A  
HETATM   27  C   UNL     1      -9.699  13.179  67.636  1.00  0.00    -0.213 A  
HETATM   28  C   UNL     1      -9.928  11.818  67.353  1.00  0.00    -0.198 A  
BRANCH  26  29
HETATM   29  C   UNL     1      -9.720  15.586  66.923  1.00  0.00    -0.243 A  
HETATM   30  C   UNL     1      -9.077  16.484  66.050  1.00  0.00    -0.290 A  
HETATM   31  C   UNL     1      -9.043  17.860  66.315  1.00  0.00    -0.198 A  
HETATM   32  C   UNL     1      -9.660  18.363  67.456  1.00  0.00    -0.284 A  
HETATM   33  C   UNL     1     -10.291  17.501  68.344  1.00  0.00    -0.378 A  
HETATM   34 CL   UNL     1      -9.652  20.054  67.766  1.00  0.00    -0.488 Cl 
HETATM   35  C   UNL     1     -10.310  16.127  68.082  1.00  0.00    -0.269 A  
ENDBRANCH  26  29
ENDBRANCH  17  19
ENDBRANCH  11  17
ENDBRANCH   7   9
ENDBRANCH   4   7
ENDBRANCH   3   4
ENDBRANCH   2   3
TORSDOF 7
ENDMDL
MODEL      182
REMARK 921   NORMALIZED FREE ENERGY PREDICTED BY IDOCK:   -3.63 KCAL/MOL
REMARK 922        TOTAL FREE ENERGY PREDICTED BY IDOCK:   -6.87 KCAL/MOL
REMARK 923 INTER-LIGAND FREE ENERGY PREDICTED BY IDOCK:   -6.03 KCAL/MOL
REMARK 924 INTRA-LIGAND FREE ENERGY PREDICTED BY IDOCK:   -0.84 KCAL/MOL
REMARK 927      BINDING AFFINITY PREDICTED BY RF-SCORE:    0.00 PKD
ROOT
HETATM    1  C   UNL     1      -8.937   5.294  74.478  1.00  0.00    -0.113 C  
HETATM    2  C   UNL     1      -9.049   6.187  73.253  1.00  0.00    -0.129 C  
ENDROOT
BRANCH   2   3
HETATM    3  C   UNL     1      -9.853   5.523  72.139  1.00  0.00    -0.163 C  
BRANCH   3   4
HETATM    4  S   UNL     1     -11.461   6.299  71.960  1.00  0.00    -0.317 S  
HETATM    5  O   UNL     1     -12.435   5.576  72.746  1.00  0.00    -0.008 OA 
HETATM    6  O   UNL     1     -11.675   6.593  70.563  1.00  0.00    -0.369 OA 
BRANCH   4   7
HETATM    7  N   UNL     1     -11.169   7.809  72.664  1.00  0.00    -0.354 N  
HETATM    8  H   UNL     1     -10.846   7.888  73.629  1.00  0.00     0.000 HD 
BRANCH   7   9
HETATM    9  C   UNL     1     -11.391   8.970  71.859  1.00  0.00    -0.368 A  
HETATM   10  C   UNL     1     -10.499   9.303  70.832  1.00  0.00    -0.302 A  
HETATM   11  C   UNL     1     -10.839  10.272  69.885  1.00  0.00    -0.355 A  
HETATM   12  F   UNL     1      -9.350   8.615  70.733  1.00  0.00    -0.162 F  
HETATM   13  C   UNL     1     -12.528   9.745  72.073  1.00  0.00    -0.390 A  
HETATM   14  C   UNL     1     -11.979  11.045  70.112  1.00  0.00    -0.360 A  
HETATM   15  C   UNL     1     -12.805  10.806  71.213  1.00  0.00    -0.540 A  
HETATM   16  F   UNL     1     -12.345  12.015  69.262  1.00  0.00    -0.274 F  
BRANCH  11  17
HETATM   17  C   UNL     1     -10.065  10.468  68.637  1.00  0.00    -0.180 C  
HETATM   18  O   UNL     1     -10.642  10.923  67.652  1.00  0.00    -0.196 OA 
BRANCH  17  19
HETATM   19  C   UNL     1      -8.632  10.148  68.591  1.00  0.00    -0.123 A  
HETATM   20  C   UNL     1      -7.657  11.009  69.075  1.00  0.00    -0.134 A  
HETATM   21  N   UNL     1      -6.450  10.364  69.053  1.00  0.00    -0.051 NA 
HETATM   22  C   UNL     1      -6.609   9.113  68.527  1.00  0.00    -0.055 A  
HETATM   23  H   UNL     1      -5.567  10.757  69.379  1.00  0.00     0.000 HD 
HETATM   24  N   UNL     1      -5.630   8.196  68.436  1.00  0.00    -0.033 NA 
HETATM   25  C   UNL     1      -6.046   7.031  67.868  1.00  0.00    -0.033 A  
HETATM   26  C   UNL     1      -7.313   6.757  67.343  1.00  0.00    -0.095 A  
HETATM   27  C   UNL     1      -8.259   7.792  67.444  1.00  0.00    -0.123 A  
HETATM   28  C   UNL     1      -7.930   8.985  68.119  1.00  0.00    -0.101 A  
BRANCH  26  29
HETATM   29  C   UNL     1      -7.681   5.448  66.757  1.00  0.00    -0.100 A  
HETATM   30  C   UNL     1      -7.874   4.305  67.556  1.00  0.00    -0.088 A  
HETATM   31  C   UNL     1      -8.290   3.088  66.999  1.00  0.00    -0.092 A  
HETATM   32  C   UNL     1      -8.529   2.996  65.632  1.00  0.00    -0.105 A  
HETATM   33  C   UNL     1      -8.335   4.102  64.815  1.00  0.00    -0.103 A  
HETATM   34 CL   UNL     1      -9.075   1.515  64.950  1.00  0.00    -0.122 Cl 
HETATM   35  C   UNL     1      -7.906   5.311  65.373  1.00  0.00    -0.094 A  
ENDBRANCH  26  29
ENDBRANCH  17  19
ENDBRANCH  11  17
ENDBRANCH   7   9
ENDBRANCH   4   7
ENDBRANCH   3   4
ENDBRANCH   2   3
TORSDOF 7
ENDMDL
MODEL      183
REMARK 921   NORMALIZED FREE ENERGY PREDICTED BY IDOCK:   -3.56 KCAL/MOL
REMARK 922        TOTAL FREE ENERGY PREDICTED BY IDOCK:   -6.77 KCAL/MOL
REMARK 923 INTER-LIGAND FREE ENERGY PREDICTED BY IDOCK:   -6.21 KCAL/MOL
REMARK 924 INTRA-LIGAND FREE ENERGY PREDICTED BY IDOCK:   -0.56 KCAL/MOL
REMARK 927      BINDING AFFINITY PREDICTED BY RF-SCORE:    0.00 PKD
ROOT
HETATM    1  C   UNL     1      -6.015   8.670  64.552  1.00  0.00    -0.065 C  
HETATM    2  C   UNL     1      -6.770   9.984  64.436  1.00  0.00    -0.128 C  
ENDROOT
BRANCH   2   3
HETATM    3  C   UNL     1      -6.148  11.074  65.303  1.00  0.00     0.223 C  
BRANCH   3   4
HETATM    4  S   UNL     1      -6.776  10.994  66.982  1.00  0.00    -0.118 S  
HETATM    5  O   UNL     1      -7.003  12.334  67.475  1.00  0.00    -0.114 OA 
HETATM    6  O   UNL     1      -5.992  10.032  67.719  1.00  0.00    -0.049 OA 
BRANCH   4   7
HETATM    7  N   UNL     1      -8.259  10.221  66.733  1.00  0.00    -0.123 N  
HETATM    8  H   UNL     1      -8.307   9.223  66.527  1.00  0.00     0.000 HD 
BRANCH   7   9
HETATM    9  C   UNL     1      -9.444  11.017  66.821  1.00  0.00    -0.182 A  
HETATM   10  C   UNL     1      -9.927  11.437  68.067  1.00  0.00    -0.182 A  
HETATM   11  C   UNL     1     -10.919  12.416  68.149  1.00  0.00    -0.263 A  
HETATM   12  F   UNL     1      -9.359  10.935  69.176  1.00  0.00    -0.191 F  
HETATM   13  C   UNL     1     -10.092  11.413  65.654  1.00  0.00    -0.293 A  
HETATM   14  C   UNL     1     -11.564  12.803  66.973  1.00  0.00    -0.360 A  
HETATM   15  C   UNL     1     -11.177  12.286  65.735  1.00  0.00    -0.378 A  
HETATM   16  F   UNL     1     -12.549  13.712  66.984  1.00  0.00    -0.354 F  
BRANCH  11  17
HETATM   17  C   UNL     1     -11.269  13.087  69.424  1.00  0.00    -0.145 C  
HETATM   18  O   UNL     1     -10.999  14.279  69.555  1.00  0.00    -0.238 OA 
BRANCH  17  19
HETATM   19  C   UNL     1     -11.948  12.345  70.493  1.00  0.00    -0.284 A  
HETATM   20  C   UNL     1     -13.064  12.839  71.156  1.00  0.00    -0.071 A  
HETATM   21  N   UNL     1     -13.567  11.856  71.964  1.00  0.00    -0.323 NA 
HETATM   22  C   UNL     1     -12.780  10.742  71.876  1.00  0.00    -0.263 A  
HETATM   23  H   UNL     1     -14.402  11.941  72.544  1.00  0.00     0.000 HD 
HETATM   24  N   UNL     1     -13.042   9.574  72.488  1.00  0.00    -0.332 NA 
HETATM   25  C   UNL     1     -12.099   8.625  72.243  1.00  0.00    -0.373 A  
HETATM   26  C   UNL     1     -10.919   8.780  71.508  1.00  0.00    -0.377 A  
HETATM   27  C   UNL     1     -10.709  10.049  70.941  1.00  0.00    -0.203 A  
HETATM   28  C   UNL     1     -11.697  11.048  71.062  1.00  0.00    -0.064 A  
BRANCH  26  29
HETATM   29  C   UNL     1      -9.956   7.679  71.279  1.00  0.00    -0.195 A  
HETATM   30  C   UNL     1      -8.821   7.844  70.463  1.00  0.00    -0.141 A  
HETATM   31  C   UNL     1      -7.879   6.818  70.309  1.00  0.00    -0.110 A  
HETATM   32  C   UNL     1      -8.053   5.609  70.975  1.00  0.00    -0.119 A  
HETATM   33  C   UNL     1      -9.170   5.411  71.776  1.00  0.00    -0.160 A  
HETATM   34 CL   UNL     1      -6.881   4.361  70.817  1.00  0.00    -0.035 Cl 
HETATM   35  C   UNL     1     -10.114   6.433  71.917  1.00  0.00    -0.204 A  
ENDBRANCH  26  29
ENDBRANCH  17  19
ENDBRANCH  11  17
ENDBRANCH   7   9
ENDBRANCH   4   7
ENDBRANCH   3   4
ENDBRANCH   2   3
TORSDOF 7
ENDMDL
MODEL      184
REMARK 921   NORMALIZED FREE ENERGY PREDICTED BY IDOCK:   -3.50 KCAL/MOL
REMARK 922        TOTAL FREE ENERGY PREDICTED BY IDOCK:   -6.68 KCAL/MOL
REMARK 923 INTER-LIGAND FREE ENERGY PREDICTED BY IDOCK:   -5.32 KCAL/MOL
REMARK 924 INTRA-LIGAND FREE ENERGY PREDICTED BY IDOCK:   -1.36 KCAL/MOL
REMARK 927      BINDING AFFINITY PREDICTED BY RF-SCORE:    0.00 PKD
ROOT
HETATM    1  C   UNL     1     -12.471   5.221  72.552  1.00  0.00     0.547 C  
HETATM    2  C   UNL     1     -10.955   5.268  72.451  1.00  0.00    -0.273 C  
ENDROOT
BRANCH   2   3
HETATM    3  C   UNL     1     -10.484   6.353  71.487  1.00  0.00    -0.219 C  
BRANCH   3   4
HETATM    4  S   UNL     1      -8.885   7.001  71.983  1.00  0.00    -0.126 S  
HETATM    5  O   UNL     1      -7.906   6.697  70.964  1.00  0.00    -0.099 OA 
HETATM    6  O   UNL     1      -8.669   6.674  73.372  1.00  0.00    -0.122 OA 
BRANCH   4   7
HETATM    7  N   UNL     1      -9.201   8.663  71.990  1.00  0.00    -0.265 N  
HETATM    8  H   UNL     1      -9.599   9.121  72.809  1.00  0.00     0.000 HD 
BRANCH   7   9
HETATM    9  C   UNL     1      -8.889   9.401  70.806  1.00  0.00    -0.171 A  
HETATM   10  C   UNL     1      -9.895   9.727  69.887  1.00  0.00    -0.243 A  
HETATM   11  C   UNL     1      -9.653  10.657  68.873  1.00  0.00    -0.204 A  
HETATM   12  F   UNL     1     -11.113   9.187  70.052  1.00  0.00    -0.233 F  
HETATM   13  C   UNL     1      -7.583   9.835  70.592  1.00  0.00    -0.026 A  
HETATM   14  C   UNL     1      -8.340  11.083  68.666  1.00  0.00    -0.153 A  
HETATM   15  C   UNL     1      -7.304  10.655  69.500  1.00  0.00    -0.141 A  
HETATM   16  F   UNL     1      -8.032  11.947  67.689  1.00  0.00    -0.118 F  
BRANCH  11  17
HETATM   17  C   UNL     1     -10.743  11.238  68.053  1.00  0.00    -0.203 C  
HETATM   18  O   UNL     1     -11.678  11.792  68.625  1.00  0.00    -0.287 OA 
BRANCH  17  19
HETATM   19  C   UNL     1     -10.686  11.173  66.587  1.00  0.00    -0.322 A  
HETATM   20  C   UNL     1     -11.296  12.116  65.771  1.00  0.00    -0.354 A  
HETATM   21  N   UNL     1     -10.922  11.886  64.475  1.00  0.00    -0.307 NA 
HETATM   22  C   UNL     1     -10.112  10.786  64.421  1.00  0.00    -0.353 A  
HETATM   23  H   UNL     1     -11.204  12.448  63.672  1.00  0.00     0.000 HD 
HETATM   24  N   UNL     1      -9.512  10.337  63.305  1.00  0.00    -0.304 NA 
HETATM   25  C   UNL     1      -8.763   9.221  63.518  1.00  0.00    -0.169 A  
HETATM   26  C   UNL     1      -8.633   8.512  64.716  1.00  0.00    -0.106 A  
HETATM   27  C   UNL     1      -9.331   9.033  65.820  1.00  0.00    -0.302 A  
HETATM   28  C   UNL     1     -10.038  10.246  65.698  1.00  0.00    -0.341 A  
BRANCH  26  29
HETATM   29  C   UNL     1      -7.777   7.312  64.859  1.00  0.00    -0.117 A  
HETATM   30  C   UNL     1      -8.045   6.319  65.820  1.00  0.00    -0.126 A  
HETATM   31  C   UNL     1      -7.270   5.154  65.900  1.00  0.00    -0.073 A  
HETATM   32  C   UNL     1      -6.216   4.959  65.014  1.00  0.00    -0.034 A  
HETATM   33  C   UNL     1      -5.917   5.927  64.063  1.00  0.00    -0.025 A  
HETATM   34 CL   UNL     1      -5.285   3.515  65.086  1.00  0.00    -0.009 Cl 
HETATM   35  C   UNL     1      -6.685   7.094  63.996  1.00  0.00    -0.047 A  
ENDBRANCH  26  29
ENDBRANCH  17  19
ENDBRANCH  11  17
ENDBRANCH   7   9
ENDBRANCH   4   7
ENDBRANCH   3   4
ENDBRANCH   2   3
TORSDOF 7
ENDMDL
MODEL      185
REMARK 921   NORMALIZED FREE ENERGY PREDICTED BY IDOCK:   -3.49 KCAL/MOL
REMARK 922        TOTAL FREE ENERGY PREDICTED BY IDOCK:   -6.67 KCAL/MOL
REMARK 923 INTER-LIGAND FREE ENERGY PREDICTED BY IDOCK:   -5.29 KCAL/MOL
REMARK 924 INTRA-LIGAND FREE ENERGY PREDICTED BY IDOCK:   -1.39 KCAL/MOL
REMARK 927      BINDING AFFINITY PREDICTED BY RF-SCORE:    0.00 PKD
ROOT
HETATM    1  C   UNL     1      -9.141   3.040  68.199  1.00  0.00    -0.219 C  
HETATM    2  C   UNL     1      -9.288   4.238  69.123  1.00  0.00    -0.229 C  
ENDROOT
BRANCH   2   3
HETATM    3  C   UNL     1      -9.839   3.838  70.488  1.00  0.00    -0.077 C  
BRANCH   3   4
HETATM    4  S   UNL     1      -8.513   3.648  71.683  1.00  0.00    -0.085 S  
HETATM    5  O   UNL     1      -7.239   3.711  71.003  1.00  0.00    -0.033 OA 
HETATM    6  O   UNL     1      -8.850   2.564  72.574  1.00  0.00    -0.070 OA 
BRANCH   4   7
HETATM    7  N   UNL     1      -8.725   5.040  72.621  1.00  0.00    -0.119 N  
HETATM    8  H   UNL     1      -8.564   5.027  73.628  1.00  0.00     0.000 HD 
BRANCH   7   9
HETATM    9  C   UNL     1      -9.139   6.233  71.951  1.00  0.00    -0.143 A  
HETATM   10  C   UNL     1      -8.228   6.966  71.179  1.00  0.00    -0.118 A  
HETATM   11  C   UNL     1      -8.677   7.973  70.321  1.00  0.00    -0.134 A  
HETATM   12  F   UNL     1      -6.931   6.623  71.222  1.00  0.00    -0.066 F  
HETATM   13  C   UNL     1     -10.468   6.641  72.034  1.00  0.00    -0.227 A  
HETATM   14  C   UNL     1     -10.010   8.376  70.416  1.00  0.00    -0.185 A  
HETATM   15  C   UNL     1     -10.897   7.736  71.285  1.00  0.00    -0.255 A  
HETATM   16  F   UNL     1     -10.498   9.360  69.648  1.00  0.00    -0.190 F  
BRANCH  11  17
HETATM   17  C   UNL     1      -7.804   8.586  69.292  1.00  0.00    -0.099 C  
HETATM   18  O   UNL     1      -7.621   7.980  68.239  1.00  0.00    -0.104 OA 
BRANCH  17  19
HETATM   19  C   UNL     1      -7.196   9.903  69.520  1.00  0.00    -0.095 A  
HETATM   20  C   UNL     1      -6.063  10.080  70.303  1.00  0.00    -0.082 A  
HETATM   21  N   UNL     1      -5.642  11.376  70.182  1.00  0.00    -0.102 NA 
HETATM   22  C   UNL     1      -6.499  12.063  69.369  1.00  0.00    -0.115 A  
HETATM   23  H   UNL     1      -4.815  11.771  70.630  1.00  0.00     0.000 HD 
HETATM   24  N   UNL     1      -6.327  13.340  68.986  1.00  0.00    -0.092 NA 
HETATM   25  C   UNL     1      -7.326  13.791  68.180  1.00  0.00    -0.124 A  
HETATM   26  C   UNL     1      -8.478  13.096  67.800  1.00  0.00    -0.185 A  
HETATM   27  C   UNL     1      -8.593  11.780  68.283  1.00  0.00    -0.162 A  
HETATM   28  C   UNL     1      -7.544  11.211  69.033  1.00  0.00    -0.119 A  
BRANCH  26  29
HETATM   29  C   UNL     1      -9.508  13.664  66.900  1.00  0.00    -0.263 A  
HETATM   30  C   UNL     1      -9.292  14.857  66.185  1.00  0.00    -0.307 A  
HETATM   31  C   UNL     1     -10.245  15.349  65.283  1.00  0.00    -0.390 A  
HETATM   32  C   UNL     1     -11.431  14.651  65.076  1.00  0.00    -0.386 A  
HETATM   33  C   UNL     1     -11.680  13.479  65.777  1.00  0.00    -0.371 A  
HETATM   34 CL   UNL     1     -12.587  15.233  63.944  1.00  0.00     0.144 Cl 
HETATM   35  C   UNL     1     -10.731  12.998  66.686  1.00  0.00    -0.285 A  
ENDBRANCH  26  29
ENDBRANCH  17  19
ENDBRANCH  11  17
ENDBRANCH   7   9
ENDBRANCH   4   7
ENDBRANCH   3   4
ENDBRANCH   2   3
TORSDOF 7
ENDMDL
MODEL      186
REMARK 921   NORMALIZED FREE ENERGY PREDICTED BY IDOCK:   -3.48 KCAL/MOL
REMARK 922        TOTAL FREE ENERGY PREDICTED BY IDOCK:   -6.65 KCAL/MOL
REMARK 923 INTER-LIGAND FREE ENERGY PREDICTED BY IDOCK:   -6.14 KCAL/MOL
REMARK 924 INTRA-LIGAND FREE ENERGY PREDICTED BY IDOCK:   -0.51 KCAL/MOL
REMARK 927      BINDING AFFINITY PREDICTED BY RF-SCORE:    0.00 PKD
ROOT
HETATM    1  C   UNL     1      -9.142  17.473  68.640  1.00  0.00    -0.263 C  
HETATM    2  C   UNL     1     -10.535  17.134  69.146  1.00  0.00    -0.296 C  
ENDROOT
BRANCH   2   3
HETATM    3  C   UNL     1     -10.506  16.013  70.179  1.00  0.00    -0.194 C  
BRANCH   3   4
HETATM    4  S   UNL     1     -12.088  15.168  70.253  1.00  0.00    -0.368 S  
HETATM    5  O   UNL     1     -13.152  16.122  70.035  1.00  0.00     0.198 OA 
HETATM    6  O   UNL     1     -12.081  14.280  71.391  1.00  0.00    -0.340 OA 
BRANCH   4   7
HETATM    7  N   UNL     1     -11.965  14.138  68.918  1.00  0.00    -0.401 N  
HETATM    8  H   UNL     1     -12.138  14.477  67.972  1.00  0.00     0.000 HD 
BRANCH   7   9
HETATM    9  C   UNL     1     -11.609  12.775  69.164  1.00  0.00    -0.319 A  
HETATM   10  C   UNL     1     -10.623  12.148  68.391  1.00  0.00    -0.226 A  
HETATM   11  C   UNL     1     -10.090  10.919  68.784  1.00  0.00    -0.205 A  
HETATM   12  F   UNL     1     -10.148  12.793  67.312  1.00  0.00    -0.218 F  
HETATM   13  C   UNL     1     -12.217  12.085  70.209  1.00  0.00    -0.348 A  
HETATM   14  C   UNL     1     -10.710  10.234  69.831  1.00  0.00    -0.294 A  
HETATM   15  C   UNL     1     -11.785  10.797  70.523  1.00  0.00    -0.449 A  
HETATM   16  F   UNL     1     -10.272   9.034  70.237  1.00  0.00    -0.182 F  
BRANCH  11  17
HETATM   17  C   UNL     1      -8.870  10.348  68.165  1.00  0.00    -0.132 C  
HETATM   18  O   UNL     1      -7.773  10.765  68.532  1.00  0.00    -0.104 OA 
BRANCH  17  19
HETATM   19  C   UNL     1      -8.974   9.287  67.156  1.00  0.00    -0.141 A  
HETATM   20  C   UNL     1      -9.218   9.550  65.814  1.00  0.00    -0.211 A  
HETATM   21  N   UNL     1      -9.085   8.386  65.106  1.00  0.00    -0.417 NA 
HETATM   22  C   UNL     1      -8.801   7.359  65.961  1.00  0.00    -0.146 A  
HETATM   23  H   UNL     1      -9.184   8.299  64.095  1.00  0.00     0.000 HD 
HETATM   24  N   UNL     1      -8.538   6.099  65.576  1.00  0.00    -0.148 NA 
HETATM   25  C   UNL     1      -8.291   5.265  66.623  1.00  0.00    -0.108 A  
HETATM   26  C   UNL     1      -8.355   5.581  67.983  1.00  0.00    -0.099 A  
HETATM   27  C   UNL     1      -8.681   6.914  68.291  1.00  0.00    -0.123 A  
HETATM   28  C   UNL     1      -8.841   7.858  67.257  1.00  0.00    -0.131 A  
BRANCH  26  29
HETATM   29  C   UNL     1      -8.053   4.608  69.057  1.00  0.00    -0.077 A  
HETATM   30  C   UNL     1      -6.821   3.928  69.117  1.00  0.00    -0.046 A  
HETATM   31  C   UNL     1      -6.518   3.061  70.176  1.00  0.00    -0.032 A  
HETATM   32  C   UNL     1      -7.441   2.865  71.199  1.00  0.00    -0.033 A  
HETATM   33  C   UNL     1      -8.670   3.510  71.161  1.00  0.00    -0.123 A  
HETATM   34 CL   UNL     1      -7.059   1.831  72.518  1.00  0.00    -0.023 Cl 
HETATM   35  C   UNL     1      -8.974   4.364  70.095  1.00  0.00    -0.143 A  
ENDBRANCH  26  29
ENDBRANCH  17  19
ENDBRANCH  11  17
ENDBRANCH   7   9
ENDBRANCH   4   7
ENDBRANCH   3   4
ENDBRANCH   2   3
TORSDOF 7
ENDMDL
MODEL      187
REMARK 921   NORMALIZED FREE ENERGY PREDICTED BY IDOCK:   -3.43 KCAL/MOL
REMARK 922        TOTAL FREE ENERGY PREDICTED BY IDOCK:   -6.58 KCAL/MOL
REMARK 923 INTER-LIGAND FREE ENERGY PREDICTED BY IDOCK:   -5.00 KCAL/MOL
REMARK 924 INTRA-LIGAND FREE ENERGY PREDICTED BY IDOCK:   -1.58 KCAL/MOL
REMARK 927      BINDING AFFINITY PREDICTED BY RF-SCORE:    0.00 PKD
ROOT
HETATM    1  C   UNL     1      -6.278   8.875  64.663  1.00  0.00    -0.066 C  
HETATM    2  C   UNL     1      -7.350   9.921  64.929  1.00  0.00    -0.136 C  
ENDROOT
BRANCH   2   3
HETATM    3  C   UNL     1      -6.863  10.998  65.893  1.00  0.00     0.036 C  
BRANCH   3   4
HETATM    4  S   UNL     1      -7.038  10.459  67.596  1.00  0.00    -0.086 S  
HETATM    5  O   UNL     1      -7.270  11.608  68.443  1.00  0.00    -0.076 OA 
HETATM    6  O   UNL     1      -6.001   9.497  67.882  1.00  0.00    -0.050 OA 
BRANCH   4   7
HETATM    7  N   UNL     1      -8.450   9.533  67.497  1.00  0.00    -0.125 N  
HETATM    8  H   UNL     1      -8.737   9.100  66.618  1.00  0.00     0.000 HD 
BRANCH   7   9
HETATM    9  C   UNL     1      -9.227   9.379  68.687  1.00  0.00    -0.131 A  
HETATM   10  C   UNL     1      -8.706   8.691  69.790  1.00  0.00    -0.132 A  
HETATM   11  C   UNL     1      -9.343   8.757  71.032  1.00  0.00    -0.280 A  
HETATM   12  F   UNL     1      -7.542   8.036  69.646  1.00  0.00    -0.086 F  
HETATM   13  C   UNL     1     -10.491   9.957  68.761  1.00  0.00    -0.234 A  
HETATM   14  C   UNL     1     -10.612   9.337  71.093  1.00  0.00    -0.332 A  
HETATM   15  C   UNL     1     -11.198   9.908  69.961  1.00  0.00    -0.327 A  
HETATM   16  F   UNL     1     -11.294   9.403  72.244  1.00  0.00    -0.375 F  
BRANCH  11  17
HETATM   17  C   UNL     1      -8.700   8.283  72.280  1.00  0.00    -0.200 C  
HETATM   18  O   UNL     1      -7.950   9.048  72.883  1.00  0.00    -0.274 OA 
BRANCH  17  19
HETATM   19  C   UNL     1      -8.979   6.937  72.796  1.00  0.00    -0.146 A  
HETATM   20  C   UNL     1      -9.357   6.702  74.112  1.00  0.00    -0.208 A  
HETATM   21  N   UNL     1      -9.712   5.386  74.239  1.00  0.00    -0.158 NA 
HETATM   22  C   UNL     1      -9.535   4.746  73.046  1.00  0.00    -0.129 A  
HETATM   23  H   UNL     1     -10.056   4.950  75.094  1.00  0.00     0.000 HD 
HETATM   24  N   UNL     1      -9.863   3.463  72.814  1.00  0.00    -0.133 NA 
HETATM   25  C   UNL     1      -9.581   3.065  71.544  1.00  0.00    -0.155 A  
HETATM   26  C   UNL     1      -8.953   3.817  70.546  1.00  0.00    -0.158 A  
HETATM   27  C   UNL     1      -8.608   5.135  70.893  1.00  0.00    -0.129 A  
HETATM   28  C   UNL     1      -8.969   5.649  72.155  1.00  0.00    -0.140 A  
BRANCH  26  29
HETATM   29  C   UNL     1      -8.701   3.303  69.180  1.00  0.00    -0.134 A  
HETATM   30  C   UNL     1      -8.006   4.060  68.218  1.00  0.00    -0.076 A  
HETATM   31  C   UNL     1      -7.713   3.537  66.952  1.00  0.00    -0.080 A  
HETATM   32  C   UNL     1      -8.104   2.242  66.628  1.00  0.00    -0.082 A  
HETATM   33  C   UNL     1      -8.804   1.475  67.550  1.00  0.00    -0.138 A  
HETATM   34 CL   UNL     1      -7.714   1.584  65.088  1.00  0.00    -0.062 Cl 
HETATM   35  C   UNL     1      -9.106   2.006  68.808  1.00  0.00    -0.197 A  
ENDBRANCH  26  29
ENDBRANCH  17  19
ENDBRANCH  11  17
ENDBRANCH   7   9
ENDBRANCH   4   7
ENDBRANCH   3   4
ENDBRANCH   2   3
TORSDOF 7
ENDMDL
MODEL      188
REMARK 921   NORMALIZED FREE ENERGY PREDICTED BY IDOCK:   -3.36 KCAL/MOL
REMARK 922        TOTAL FREE ENERGY PREDICTED BY IDOCK:   -6.49 KCAL/MOL
REMARK 923 INTER-LIGAND FREE ENERGY PREDICTED BY IDOCK:   -5.47 KCAL/MOL
REMARK 924 INTRA-LIGAND FREE ENERGY PREDICTED BY IDOCK:   -1.02 KCAL/MOL
REMARK 927      BINDING AFFINITY PREDICTED BY RF-SCORE:    0.00 PKD
ROOT
HETATM    1  C   UNL     1      -8.811   8.316  65.474  1.00  0.00    -0.152 C  
HETATM    2  C   UNL     1      -9.620   7.739  66.625  1.00  0.00    -0.286 C  
ENDROOT
BRANCH   2   3
HETATM    3  C   UNL     1      -8.890   6.588  67.309  1.00  0.00    -0.112 C  
BRANCH   3   4
HETATM    4  S   UNL     1      -9.867   5.083  67.246  1.00  0.00    -0.187 S  
HETATM    5  O   UNL     1      -9.032   3.985  66.814  1.00  0.00    -0.117 OA 
HETATM    6  O   UNL     1     -11.127   5.381  66.608  1.00  0.00    -0.116 OA 
BRANCH   4   7
HETATM    7  N   UNL     1     -10.262   4.888  68.879  1.00  0.00    -0.120 N  
HETATM    8  H   UNL     1     -10.430   3.963  69.275  1.00  0.00     0.000 HD 
BRANCH   7   9
HETATM    9  C   UNL     1     -10.353   6.067  69.684  1.00  0.00    -0.232 A  
HETATM   10  C   UNL     1      -9.199   6.643  70.231  1.00  0.00    -0.156 A  
HETATM   11  C   UNL     1      -9.244   7.921  70.793  1.00  0.00    -0.159 A  
HETATM   12  F   UNL     1      -8.039   5.974  70.130  1.00  0.00    -0.104 F  
HETATM   13  C   UNL     1     -11.593   6.667  69.884  1.00  0.00    -0.393 A  
HETATM   14  C   UNL     1     -10.494   8.511  70.992  1.00  0.00    -0.212 A  
HETATM   15  C   UNL     1     -11.665   7.880  70.568  1.00  0.00    -0.097 A  
HETATM   16  F   UNL     1     -10.612   9.721  71.558  1.00  0.00    -0.377 F  
BRANCH  11  17
HETATM   17  C   UNL     1      -8.019   8.682  71.134  1.00  0.00    -0.138 C  
HETATM   18  O   UNL     1      -7.870   9.069  72.291  1.00  0.00    -0.353 OA 
BRANCH  17  19
HETATM   19  C   UNL     1      -6.995   8.942  70.114  1.00  0.00    -0.043 A  
HETATM   20  C   UNL     1      -5.968   8.049  69.839  1.00  0.00    -0.022 A  
HETATM   21  N   UNL     1      -5.289   8.486  68.734  1.00  0.00    -0.035 NA 
HETATM   22  C   UNL     1      -5.825   9.667  68.304  1.00  0.00    -0.043 A  
HETATM   23  H   UNL     1      -4.503   8.004  68.297  1.00  0.00     0.000 HD 
HETATM   24  N   UNL     1      -5.435  10.321  67.196  1.00  0.00    -0.041 NA 
HETATM   25  C   UNL     1      -6.124  11.477  66.993  1.00  0.00    -0.131 A  
HETATM   26  C   UNL     1      -7.095  12.036  67.831  1.00  0.00    -0.097 A  
HETATM   27  C   UNL     1      -7.407  11.302  68.989  1.00  0.00    -0.115 A  
HETATM   28  C   UNL     1      -6.812  10.042  69.207  1.00  0.00    -0.059 A  
BRANCH  26  29
HETATM   29  C   UNL     1      -7.807  13.296  67.518  1.00  0.00    -0.173 A  
HETATM   30  C   UNL     1      -7.306  14.550  67.914  1.00  0.00    -0.166 A  
HETATM   31  C   UNL     1      -7.952  15.740  67.553  1.00  0.00    -0.171 A  
HETATM   32  C   UNL     1      -9.109  15.696  66.781  1.00  0.00    -0.254 A  
HETATM   33  C   UNL     1      -9.636  14.474  66.386  1.00  0.00    -0.324 A  
HETATM   34 CL   UNL     1      -9.884  17.155  66.306  1.00  0.00    -0.304 Cl 
HETATM   35  C   UNL     1      -8.996  13.288  66.761  1.00  0.00    -0.183 A  
ENDBRANCH  26  29
ENDBRANCH  17  19
ENDBRANCH  11  17
ENDBRANCH   7   9
ENDBRANCH   4   7
ENDBRANCH   3   4
ENDBRANCH   2   3
TORSDOF 7
ENDMDL
MODEL      189
REMARK 921   NORMALIZED FREE ENERGY PREDICTED BY IDOCK:   -3.10 KCAL/MOL
REMARK 922        TOTAL FREE ENERGY PREDICTED BY IDOCK:   -6.12 KCAL/MOL
REMARK 923 INTER-LIGAND FREE ENERGY PREDICTED BY IDOCK:   -4.63 KCAL/MOL
REMARK 924 INTRA-LIGAND FREE ENERGY PREDICTED BY IDOCK:   -1.48 KCAL/MOL
REMARK 927      BINDING AFFINITY PREDICTED BY RF-SCORE:    0.00 PKD
ROOT
HETATM    1  C   UNL     1      -5.155   4.564  63.967  1.00  0.00    -0.009 C  
HETATM    2  C   UNL     1      -5.526   5.043  62.573  1.00  0.00    -0.013 C  
ENDROOT
BRANCH   2   3
HETATM    3  C   UNL     1      -5.688   6.559  62.519  1.00  0.00    -0.023 C  
BRANCH   3   4
HETATM    4  S   UNL     1      -7.105   7.088  63.485  1.00  0.00    -0.070 S  
HETATM    5  O   UNL     1      -6.855   6.831  64.885  1.00  0.00    -0.048 OA 
HETATM    6  O   UNL     1      -8.305   6.629  62.827  1.00  0.00    -0.043 OA 
BRANCH   4   7
HETATM    7  N   UNL     1      -7.084   8.755  63.200  1.00  0.00    -0.090 N  
HETATM    8  H   UNL     1      -6.291   9.202  62.740  1.00  0.00     0.000 HD 
BRANCH   7   9
HETATM    9  C   UNL     1      -8.217   9.514  63.628  1.00  0.00    -0.165 A  
HETATM   10  C   UNL     1      -8.348   9.901  64.968  1.00  0.00    -0.148 A  
HETATM   11  C   UNL     1      -9.303  10.849  65.341  1.00  0.00    -0.240 A  
HETATM   12  F   UNL     1      -7.485   9.399  65.867  1.00  0.00    -0.093 F  
HETATM   13  C   UNL     1      -9.171   9.908  62.693  1.00  0.00    -0.297 A  
HETATM   14  C   UNL     1     -10.256  11.234  64.397  1.00  0.00    -0.320 A  
HETATM   15  C   UNL     1     -10.212  10.748  63.088  1.00  0.00    -0.179 A  
HETATM   16  F   UNL     1     -11.222  12.114  64.698  1.00  0.00    -0.328 F  
BRANCH  11  17
HETATM   17  C   UNL     1      -9.305  11.490  66.678  1.00  0.00    -0.189 C  
HETATM   18  O   UNL     1      -8.705  12.553  66.821  1.00  0.00    -0.200 OA 
BRANCH  17  19
HETATM   19  C   UNL     1     -10.032  10.877  67.796  1.00  0.00    -0.198 A  
HETATM   20  C   UNL     1     -11.114  11.491  68.413  1.00  0.00    -0.235 A  
HETATM   21  N   UNL     1     -11.681  10.606  69.291  1.00  0.00    -0.417 NA 
HETATM   22  C   UNL     1     -10.968   9.441  69.291  1.00  0.00    -0.117 A  
HETATM   23  H   UNL     1     -12.508  10.789  69.858  1.00  0.00     0.000 HD 
HETATM   24  N   UNL     1     -11.305   8.342  69.988  1.00  0.00    -0.086 NA 
HETATM   25  C   UNL     1     -10.426   7.317  69.821  1.00  0.00    -0.227 A  
HETATM   26  C   UNL     1      -9.238   7.340  69.084  1.00  0.00    -0.139 A  
HETATM   27  C   UNL     1      -8.945   8.547  68.423  1.00  0.00    -0.139 A  
HETATM   28  C   UNL     1      -9.866   9.613  68.463  1.00  0.00    -0.170 A  
BRANCH  26  29
HETATM   29  C   UNL     1      -8.348   6.165  68.944  1.00  0.00    -0.115 A  
HETATM   30  C   UNL     1      -7.082   6.260  68.335  1.00  0.00    -0.083 A  
HETATM   31  C   UNL     1      -6.220   5.158  68.270  1.00  0.00    -0.034 A  
HETATM   32  C   UNL     1      -6.606   3.940  68.821  1.00  0.00    -0.041 A  
HETATM   33  C   UNL     1      -7.854   3.810  69.417  1.00  0.00    -0.052 A  
HETATM   34 CL   UNL     1      -5.536   2.596  68.776  1.00  0.00    -0.013 Cl 
HETATM   35  C   UNL     1      -8.717   4.910  69.467  1.00  0.00    -0.108 A  
ENDBRANCH  26  29
ENDBRANCH  17  19
ENDBRANCH  11  17
ENDBRANCH   7   9
ENDBRANCH   4   7
ENDBRANCH   3   4
ENDBRANCH   2   3
TORSDOF 7
ENDMDL
MODEL      190
REMARK 921   NORMALIZED FREE ENERGY PREDICTED BY IDOCK:   -3.08 KCAL/MOL
REMARK 922        TOTAL FREE ENERGY PREDICTED BY IDOCK:   -6.09 KCAL/MOL
REMARK 923 INTER-LIGAND FREE ENERGY PREDICTED BY IDOCK:   -4.44 KCAL/MOL
REMARK 924 INTRA-LIGAND FREE ENERGY PREDICTED BY IDOCK:   -1.66 KCAL/MOL
REMARK 927      BINDING AFFINITY PREDICTED BY RF-SCORE:    0.00 PKD
ROOT
HETATM    1  C   UNL     1     -14.280  13.911  72.265  1.00  0.00    -0.584 C  
HETATM    2  C   UNL     1     -13.634  12.585  72.637  1.00  0.00     0.105 C  
ENDROOT
BRANCH   2   3
HETATM    3  C   UNL     1     -12.805  12.018  71.490  1.00  0.00    -0.297 C  
BRANCH   3   4
HETATM    4  S   UNL     1     -12.788  10.223  71.538  1.00  0.00    -0.488 S  
HETATM    5  O   UNL     1     -13.556   9.705  70.428  1.00  0.00     0.129 OA 
HETATM    6  O   UNL     1     -13.028   9.799  72.896  1.00  0.00     0.131 OA 
BRANCH   4   7
HETATM    7  N   UNL     1     -11.145   9.911  71.287  1.00  0.00    -0.312 N  
HETATM    8  H   UNL     1     -10.565  10.544  70.737  1.00  0.00     0.000 HD 
BRANCH   7   9
HETATM    9  C   UNL     1     -10.599   8.727  71.874  1.00  0.00    -0.354 A  
HETATM   10  C   UNL     1     -10.879   7.468  71.325  1.00  0.00    -0.235 A  
HETATM   11  C   UNL     1     -10.154   6.344  71.725  1.00  0.00    -0.206 A  
HETATM   12  F   UNL     1     -11.802   7.384  70.353  1.00  0.00    -0.291 F  
HETATM   13  C   UNL     1      -9.748   8.834  72.970  1.00  0.00     0.423 A  
HETATM   14  C   UNL     1      -9.306   6.463  72.828  1.00  0.00    -0.140 A  
HETATM   15  C   UNL     1      -9.123   7.691  73.467  1.00  0.00    -0.317 A  
HETATM   16  F   UNL     1      -8.606   5.416  73.287  1.00  0.00    -0.116 F  
BRANCH  11  17
HETATM   17  C   UNL     1     -10.217   5.057  70.993  1.00  0.00    -0.213 C  
HETATM   18  O   UNL     1     -11.159   4.299  71.215  1.00  0.00     0.807 OA 
BRANCH  17  19
HETATM   19  C   UNL     1      -9.187   4.711  70.005  1.00  0.00    -0.186 A  
HETATM   20  C   UNL     1      -8.478   3.517  70.048  1.00  0.00    -0.056 A  
HETATM   21  N   UNL     1      -7.726   3.411  68.909  1.00  0.00    -0.052 NA 
HETATM   22  C   UNL     1      -7.896   4.528  68.142  1.00  0.00    -0.080 A  
HETATM   23  H   UNL     1      -7.130   2.619  68.670  1.00  0.00     0.000 HD 
HETATM   24  N   UNL     1      -7.356   4.705  66.924  1.00  0.00    -0.080 NA 
HETATM   25  C   UNL     1      -7.673   5.907  66.372  1.00  0.00    -0.099 A  
HETATM   26  C   UNL     1      -8.414   6.935  66.963  1.00  0.00    -0.121 A  
HETATM   27  C   UNL     1      -8.903   6.677  68.256  1.00  0.00    -0.124 A  
HETATM   28  C   UNL     1      -8.705   5.412  68.846  1.00  0.00    -0.099 A  
BRANCH  26  29
HETATM   29  C   UNL     1      -8.726   8.209  66.276  1.00  0.00    -0.172 A  
HETATM   30  C   UNL     1      -8.022   8.626  65.131  1.00  0.00    -0.127 A  
HETATM   31  C   UNL     1      -8.371   9.799  64.447  1.00  0.00    -0.169 A  
HETATM   32  C   UNL     1      -9.438  10.572  64.894  1.00  0.00    -0.252 A  
HETATM   33  C   UNL     1     -10.143  10.194  66.030  1.00  0.00    -0.317 A  
HETATM   34 CL   UNL     1      -9.892  11.992  64.038  1.00  0.00    -0.266 Cl 
HETATM   35  C   UNL     1      -9.783   9.030  66.716  1.00  0.00    -0.279 A  
ENDBRANCH  26  29
ENDBRANCH  17  19
ENDBRANCH  11  17
ENDBRANCH   7   9
ENDBRANCH   4   7
ENDBRANCH   3   4
ENDBRANCH   2   3
TORSDOF 7
ENDMDL
MODEL      191
REMARK 921   NORMALIZED FREE ENERGY PREDICTED BY IDOCK:   -3.07 KCAL/MOL
REMARK 922        TOTAL FREE ENERGY PREDICTED BY IDOCK:   -6.08 KCAL/MOL
REMARK 923 INTER-LIGAND FREE ENERGY PREDICTED BY IDOCK:   -5.53 KCAL/MOL
REMARK 924 INTRA-LIGAND FREE ENERGY PREDICTED BY IDOCK:   -0.55 KCAL/MOL
REMARK 927      BINDING AFFINITY PREDICTED BY RF-SCORE:    0.00 PKD
ROOT
HETATM    1  C   UNL     1     -11.636  15.316  71.550  1.00  0.00    -0.456 C  
HETATM    2  C   UNL     1     -12.467  15.185  70.284  1.00  0.00    -0.388 C  
ENDROOT
BRANCH   2   3
HETATM    3  C   UNL     1     -11.653  14.613  69.128  1.00  0.00    -0.301 C  
BRANCH   3   4
HETATM    4  S   UNL     1     -11.273  15.886  67.921  1.00  0.00    -0.248 S  
HETATM    5  O   UNL     1     -11.181  17.167  68.584  1.00  0.00    -0.164 OA 
HETATM    6  O   UNL     1     -12.112  15.684  66.763  1.00  0.00     0.485 OA 
BRANCH   4   7
HETATM    7  N   UNL     1      -9.736  15.397  67.412  1.00  0.00    -0.214 N  
HETATM    8  H   UNL     1      -8.899  15.908  67.695  1.00  0.00     0.000 HD 
BRANCH   7   9
HETATM    9  C   UNL     1      -9.652  14.244  66.572  1.00  0.00    -0.297 A  
HETATM   10  C   UNL     1      -8.739  13.220  66.860  1.00  0.00    -0.142 A  
HETATM   11  C   UNL     1      -8.827  11.989  66.207  1.00  0.00    -0.075 A  
HETATM   12  F   UNL     1      -7.834  13.423  67.831  1.00  0.00    -0.105 F  
HETATM   13  C   UNL     1     -10.516  14.121  65.486  1.00  0.00    -0.352 A  
HETATM   14  C   UNL     1      -9.694  11.879  65.118  1.00  0.00    -0.176 A  
HETATM   15  C   UNL     1     -10.514  12.944  64.739  1.00  0.00    -0.371 A  
HETATM   16  F   UNL     1      -9.803  10.737  64.425  1.00  0.00    -0.256 F  
BRANCH  11  17
HETATM   17  C   UNL     1      -8.074  10.795  66.659  1.00  0.00    -0.142 C  
HETATM   18  O   UNL     1      -6.987  10.553  66.140  1.00  0.00    -0.118 OA 
BRANCH  17  19
HETATM   19  C   UNL     1      -8.609   9.937  67.725  1.00  0.00    -0.121 A  
HETATM   20  C   UNL     1      -8.972  10.429  68.971  1.00  0.00    -0.179 A  
HETATM   21  N   UNL     1      -9.592   9.432  69.675  1.00  0.00    -0.176 NA 
HETATM   22  C   UNL     1      -9.604   8.286  68.931  1.00  0.00    -0.153 A  
HETATM   23  H   UNL     1      -9.983   9.529  70.611  1.00  0.00     0.000 HD 
HETATM   24  N   UNL     1     -10.205   7.143  69.304  1.00  0.00    -0.184 NA 
HETATM   25  C   UNL     1     -10.067   6.148  68.386  1.00  0.00    -0.158 A  
HETATM   26  C   UNL     1      -9.338   6.198  67.195  1.00  0.00    -0.124 A  
HETATM   27  C   UNL     1      -8.707   7.422  66.908  1.00  0.00    -0.126 A  
HETATM   28  C   UNL     1      -8.898   8.529  67.760  1.00  0.00    -0.137 A  
BRANCH  26  29
HETATM   29  C   UNL     1      -9.258   5.064  66.244  1.00  0.00    -0.144 A  
HETATM   30  C   UNL     1     -10.305   4.771  65.350  1.00  0.00    -0.100 A  
HETATM   31  C   UNL     1     -10.191   3.740  64.408  1.00  0.00    -0.227 A  
HETATM   32  C   UNL     1      -9.023   2.987  64.339  1.00  0.00    -0.113 A  
HETATM   33  C   UNL     1      -7.978   3.243  65.218  1.00  0.00    -0.082 A  
HETATM   34 CL   UNL     1      -8.865   1.745  63.161  1.00  0.00    -0.083 Cl 
HETATM   35  C   UNL     1      -8.101   4.264  66.165  1.00  0.00    -0.102 A  
ENDBRANCH  26  29
ENDBRANCH  17  19
ENDBRANCH  11  17
ENDBRANCH   7   9
ENDBRANCH   4   7
ENDBRANCH   3   4
ENDBRANCH   2   3
TORSDOF 7
ENDMDL
MODEL      192
REMARK 921   NORMALIZED FREE ENERGY PREDICTED BY IDOCK:   -3.05 KCAL/MOL
REMARK 922        TOTAL FREE ENERGY PREDICTED BY IDOCK:   -6.05 KCAL/MOL
REMARK 923 INTER-LIGAND FREE ENERGY PREDICTED BY IDOCK:   -4.96 KCAL/MOL
REMARK 924 INTRA-LIGAND FREE ENERGY PREDICTED BY IDOCK:   -1.09 KCAL/MOL
REMARK 927      BINDING AFFINITY PREDICTED BY RF-SCORE:    0.00 PKD
ROOT
HETATM    1  C   UNL     1      -9.960  19.961  66.501  1.00  0.00    -0.591 C  
HETATM    2  C   UNL     1     -10.430  18.516  66.481  1.00  0.00    -0.435 C  
ENDROOT
BRANCH   2   3
HETATM    3  C   UNL     1      -9.373  17.584  65.897  1.00  0.00     0.058 C  
BRANCH   3   4
HETATM    4  S   UNL     1      -8.985  16.257  67.042  1.00  0.00    -0.218 S  
HETATM    5  O   UNL     1      -9.724  16.450  68.270  1.00  0.00    -0.217 OA 
HETATM    6  O   UNL     1      -7.557  16.048  67.036  1.00  0.00    -0.188 OA 
BRANCH   4   7
HETATM    7  N   UNL     1      -9.606  14.923  66.209  1.00  0.00    -0.290 N  
HETATM    8  H   UNL     1      -9.755  14.952  65.200  1.00  0.00     0.000 HD 
BRANCH   7   9
HETATM    9  C   UNL     1      -9.915  13.752  66.970  1.00  0.00    -0.251 A  
HETATM   10  C   UNL     1      -8.947  12.759  67.169  1.00  0.00    -0.214 A  
HETATM   11  C   UNL     1      -9.151  11.750  68.113  1.00  0.00    -0.185 A  
HETATM   12  F   UNL     1      -7.790  12.847  66.493  1.00  0.00     0.066 F  
HETATM   13  C   UNL     1     -11.174  13.624  67.551  1.00  0.00    -0.316 A  
HETATM   14  C   UNL     1     -10.418  11.630  68.687  1.00  0.00    -0.213 A  
HETATM   15  C   UNL     1     -11.434  12.541  68.390  1.00  0.00    -0.355 A  
HETATM   16  F   UNL     1     -10.694  10.663  69.574  1.00  0.00    -0.220 F  
BRANCH  11  17
HETATM   17  C   UNL     1      -8.064  10.846  68.557  1.00  0.00    -0.137 C  
HETATM   18  O   UNL     1      -7.510  11.074  69.630  1.00  0.00    -0.089 OA 
BRANCH  17  19
HETATM   19  C   UNL     1      -7.679   9.688  67.740  1.00  0.00    -0.094 A  
HETATM   20  C   UNL     1      -7.378   9.792  66.388  1.00  0.00    -0.095 A  
HETATM   21  N   UNL     1      -6.891   8.589  65.952  1.00  0.00    -0.064 NA 
HETATM   22  C   UNL     1      -6.906   7.689  66.979  1.00  0.00    -0.068 A  
HETATM   23  H   UNL     1      -6.567   8.395  65.005  1.00  0.00     0.000 HD 
HETATM   24  N   UNL     1      -6.422   6.437  66.902  1.00  0.00    -0.045 NA 
HETATM   25  C   UNL     1      -6.562   5.742  68.063  1.00  0.00    -0.052 A  
HETATM   26  C   UNL     1      -7.191   6.177  69.233  1.00  0.00    -0.082 A  
HETATM   27  C   UNL     1      -7.705   7.486  69.207  1.00  0.00    -0.112 A  
HETATM   28  C   UNL     1      -7.499   8.301  68.076  1.00  0.00    -0.097 A  
BRANCH  26  29
HETATM   29  C   UNL     1      -7.281   5.353  70.460  1.00  0.00    -0.066 A  
HETATM   30  C   UNL     1      -6.441   5.577  71.568  1.00  0.00    -0.044 A  
HETATM   31  C   UNL     1      -6.581   4.837  72.750  1.00  0.00    -0.051 A  
HETATM   32  C   UNL     1      -7.569   3.863  72.847  1.00  0.00    -0.074 A  
HETATM   33  C   UNL     1      -8.404   3.608  71.766  1.00  0.00    -0.081 A  
HETATM   34 CL   UNL     1      -7.768   2.978  74.307  1.00  0.00    -0.062 Cl 
HETATM   35  C   UNL     1      -8.252   4.340  70.584  1.00  0.00    -0.076 A  
ENDBRANCH  26  29
ENDBRANCH  17  19
ENDBRANCH  11  17
ENDBRANCH   7   9
ENDBRANCH   4   7
ENDBRANCH   3   4
ENDBRANCH   2   3
TORSDOF 7
ENDMDL
MODEL      193
REMARK 921   NORMALIZED FREE ENERGY PREDICTED BY IDOCK:   -3.04 KCAL/MOL
REMARK 922        TOTAL FREE ENERGY PREDICTED BY IDOCK:   -6.03 KCAL/MOL
REMARK 923 INTER-LIGAND FREE ENERGY PREDICTED BY IDOCK:   -4.15 KCAL/MOL
REMARK 924 INTRA-LIGAND FREE ENERGY PREDICTED BY IDOCK:   -1.88 KCAL/MOL
REMARK 927      BINDING AFFINITY PREDICTED BY RF-SCORE:    0.00 PKD
ROOT
HETATM    1  C   UNL     1      -7.878  13.052  67.214  1.00  0.00    -0.132 C  
HETATM    2  C   UNL     1      -8.181  11.744  67.928  1.00  0.00    -0.147 C  
ENDROOT
BRANCH   2   3
HETATM    3  C   UNL     1      -7.194  10.647  67.544  1.00  0.00    -0.090 C  
BRANCH   3   4
HETATM    4  S   UNL     1      -6.748   9.658  68.974  1.00  0.00    -0.050 S  
HETATM    5  O   UNL     1      -5.599  10.246  69.627  1.00  0.00    -0.037 OA 
HETATM    6  O   UNL     1      -6.781   8.265  68.597  1.00  0.00    -0.056 OA 
BRANCH   4   7
HETATM    7  N   UNL     1      -8.118   9.860  69.945  1.00  0.00    -0.180 N  
HETATM    8  H   UNL     1      -8.797  10.597  69.753  1.00  0.00     0.000 HD 
BRANCH   7   9
HETATM    9  C   UNL     1      -8.290   8.962  71.043  1.00  0.00    -0.191 A  
HETATM   10  C   UNL     1      -9.380   8.082  71.077  1.00  0.00    -0.149 A  
HETATM   11  C   UNL     1      -9.417   7.035  72.001  1.00  0.00    -0.149 A  
HETATM   12  F   UNL     1     -10.344   8.220  70.152  1.00  0.00    -0.196 F  
HETATM   13  C   UNL     1      -7.341   8.934  72.062  1.00  0.00     0.058 A  
HETATM   14  C   UNL     1      -8.462   7.019  73.019  1.00  0.00    -0.113 A  
HETATM   15  C   UNL     1      -7.446   7.977  73.070  1.00  0.00    -0.163 A  
HETATM   16  F   UNL     1      -8.460   6.064  73.959  1.00  0.00    -0.118 F  
BRANCH  11  17
HETATM   17  C   UNL     1     -10.395   5.926  71.905  1.00  0.00    -0.210 C  
HETATM   18  O   UNL     1     -11.564   6.144  72.217  1.00  0.00    -0.296 OA 
BRANCH  17  19
HETATM   19  C   UNL     1      -9.977   4.604  71.422  1.00  0.00    -0.267 A  
HETATM   20  C   UNL     1     -10.160   3.444  72.163  1.00  0.00    -0.129 A  
HETATM   21  N   UNL     1      -9.834   2.368  71.382  1.00  0.00    -0.144 NA 
HETATM   22  C   UNL     1      -9.402   2.802  70.161  1.00  0.00    -0.129 A  
HETATM   23  H   UNL     1      -9.902   1.391  71.668  1.00  0.00     0.000 HD 
HETATM   24  N   UNL     1      -9.077   1.993  69.137  1.00  0.00    -0.106 NA 
HETATM   25  C   UNL     1      -8.671   2.675  68.031  1.00  0.00    -0.105 A  
HETATM   26  C   UNL     1      -8.511   4.059  67.908  1.00  0.00    -0.103 A  
HETATM   27  C   UNL     1      -8.834   4.821  69.045  1.00  0.00    -0.121 A  
HETATM   28  C   UNL     1      -9.365   4.190  70.189  1.00  0.00    -0.234 A  
BRANCH  26  29
HETATM   29  C   UNL     1      -8.079   4.716  66.653  1.00  0.00    -0.103 A  
HETATM   30  C   UNL     1      -8.829   4.615  65.466  1.00  0.00    -0.134 A  
HETATM   31  C   UNL     1      -8.448   5.298  64.303  1.00  0.00    -0.115 A  
HETATM   32  C   UNL     1      -7.312   6.102  64.310  1.00  0.00    -0.070 A  
HETATM   33  C   UNL     1      -6.543   6.211  65.462  1.00  0.00    -0.047 A  
HETATM   34 CL   UNL     1      -6.861   6.970  62.896  1.00  0.00    -0.054 Cl 
HETATM   35  C   UNL     1      -6.920   5.516  66.616  1.00  0.00    -0.064 A  
ENDBRANCH  26  29
ENDBRANCH  17  19
ENDBRANCH  11  17
ENDBRANCH   7   9
ENDBRANCH   4   7
ENDBRANCH   3   4
ENDBRANCH   2   3
TORSDOF 7
ENDMDL
MODEL      194
REMARK 921   NORMALIZED FREE ENERGY PREDICTED BY IDOCK:   -3.01 KCAL/MOL
REMARK 922        TOTAL FREE ENERGY PREDICTED BY IDOCK:   -6.00 KCAL/MOL
REMARK 923 INTER-LIGAND FREE ENERGY PREDICTED BY IDOCK:   -5.55 KCAL/MOL
REMARK 924 INTRA-LIGAND FREE ENERGY PREDICTED BY IDOCK:   -0.45 KCAL/MOL
REMARK 927      BINDING AFFINITY PREDICTED BY RF-SCORE:    0.00 PKD
ROOT
HETATM    1  C   UNL     1      -8.289   2.116  65.051  1.00  0.00    -0.087 C  
HETATM    2  C   UNL     1      -8.585   1.883  66.524  1.00  0.00    -0.112 C  
ENDROOT
BRANCH   2   3
HETATM    3  C   UNL     1      -9.405   3.021  67.125  1.00  0.00    -0.145 C  
BRANCH   3   4
HETATM    4  S   UNL     1      -8.438   3.945  68.322  1.00  0.00    -0.095 S  
HETATM    5  O   UNL     1      -7.137   4.240  67.765  1.00  0.00    -0.061 OA 
HETATM    6  O   UNL     1      -8.591   3.320  69.614  1.00  0.00    -0.058 OA 
BRANCH   4   7
HETATM    7  N   UNL     1      -9.343   5.368  68.436  1.00  0.00    -0.111 N  
HETATM    8  H   UNL     1      -9.970   5.534  69.224  1.00  0.00     0.000 HD 
BRANCH   7   9
HETATM    9  C   UNL     1      -9.199   6.331  67.389  1.00  0.00    -0.116 A  
HETATM   10  C   UNL     1      -9.509   7.678  67.615  1.00  0.00    -0.142 A  
HETATM   11  C   UNL     1      -9.130   8.657  66.693  1.00  0.00    -0.203 A  
HETATM   12  F   UNL     1     -10.104   8.013  68.772  1.00  0.00    -0.174 F  
HETATM   13  C   UNL     1      -8.704   5.929  66.151  1.00  0.00    -0.141 A  
HETATM   14  C   UNL     1      -8.638   8.242  65.454  1.00  0.00    -0.151 A  
HETATM   15  C   UNL     1      -8.452   6.887  65.170  1.00  0.00    -0.029 A  
HETATM   16  F   UNL     1      -8.288   9.126  64.510  1.00  0.00    -0.132 F  
BRANCH  11  17
HETATM   17  C   UNL     1      -9.186  10.105  67.004  1.00  0.00    -0.146 C  
HETATM   18  O   UNL     1     -10.271  10.679  66.938  1.00  0.00    -0.205 OA 
BRANCH  17  19
HETATM   19  C   UNL     1      -7.973  10.827  67.408  1.00  0.00    -0.112 A  
HETATM   20  C   UNL     1      -6.800  10.178  67.770  1.00  0.00    -0.075 A  
HETATM   21  N   UNL     1      -5.810  11.111  67.922  1.00  0.00    -0.043 NA 
HETATM   22  C   UNL     1      -6.320  12.360  67.708  1.00  0.00    -0.109 A  
HETATM   23  H   UNL     1      -4.840  10.905  68.159  1.00  0.00     0.000 HD 
HETATM   24  N   UNL     1      -5.592  13.490  67.707  1.00  0.00    -0.244 NA 
HETATM   25  C   UNL     1      -6.340  14.602  67.474  1.00  0.00    -0.016 A  
HETATM   26  C   UNL     1      -7.728  14.665  67.314  1.00  0.00    -0.198 A  
HETATM   27  C   UNL     1      -8.411  13.437  67.373  1.00  0.00    -0.193 A  
HETATM   28  C   UNL     1      -7.688  12.234  67.502  1.00  0.00    -0.158 A  
BRANCH  26  29
HETATM   29  C   UNL     1      -8.457  15.925  67.045  1.00  0.00    -0.248 A  
HETATM   30  C   UNL     1      -7.934  17.179  67.415  1.00  0.00    -0.197 A  
HETATM   31  C   UNL     1      -8.599  18.370  67.094  1.00  0.00    -0.262 A  
HETATM   32  C   UNL     1      -9.798  18.327  66.389  1.00  0.00    -0.357 A  
HETATM   33  C   UNL     1     -10.347  17.105  66.022  1.00  0.00    -0.317 A  
HETATM   34 CL   UNL     1     -10.599  19.787  65.962  1.00  0.00    -0.601 Cl 
HETATM   35  C   UNL     1      -9.686  15.919  66.356  1.00  0.00    -0.310 A  
ENDBRANCH  26  29
ENDBRANCH  17  19
ENDBRANCH  11  17
ENDBRANCH   7   9
ENDBRANCH   4   7
ENDBRANCH   3   4
ENDBRANCH   2   3
TORSDOF 7
ENDMDL
MODEL      195
REMARK 921   NORMALIZED FREE ENERGY PREDICTED BY IDOCK:   -2.86 KCAL/MOL
REMARK 922        TOTAL FREE ENERGY PREDICTED BY IDOCK:   -5.78 KCAL/MOL
REMARK 923 INTER-LIGAND FREE ENERGY PREDICTED BY IDOCK:   -5.78 KCAL/MOL
REMARK 924 INTRA-LIGAND FREE ENERGY PREDICTED BY IDOCK:   -0.00 KCAL/MOL
REMARK 927      BINDING AFFINITY PREDICTED BY RF-SCORE:    0.00 PKD
ROOT
HETATM    1  C   UNL     1     -11.484  16.034  64.953  1.00  0.00    -0.125 C  
HETATM    2  C   UNL     1     -10.779  14.700  64.776  1.00  0.00    -0.399 C  
ENDROOT
BRANCH   2   3
HETATM    3  C   UNL     1     -10.607  13.969  66.104  1.00  0.00    -0.290 C  
BRANCH   3   4
HETATM    4  S   UNL     1     -11.808  12.645  66.266  1.00  0.00    -0.375 S  
HETATM    5  O   UNL     1     -12.879  12.847  65.316  1.00  0.00    -0.668 OA 
HETATM    6  O   UNL     1     -12.064  12.427  67.669  1.00  0.00    -0.470 OA 
BRANCH   4   7
HETATM    7  N   UNL     1     -10.879  11.310  65.799  1.00  0.00    -0.234 N  
HETATM    8  H   UNL     1     -11.220  10.649  65.101  1.00  0.00     0.000 HD 
BRANCH   7   9
HETATM    9  C   UNL     1      -9.601  11.144  66.417  1.00  0.00    -0.200 A  
HETATM   10  C   UNL     1      -9.391  10.119  67.348  1.00  0.00    -0.148 A  
HETATM   11  C   UNL     1      -8.098   9.788  67.758  1.00  0.00    -0.113 A  
HETATM   12  F   UNL     1     -10.451   9.412  67.773  1.00  0.00    -0.239 F  
HETATM   13  C   UNL     1      -8.549  11.981  66.054  1.00  0.00     0.197 A  
HETATM   14  C   UNL     1      -7.051  10.637  67.391  1.00  0.00    -0.090 A  
HETATM   15  C   UNL     1      -7.275  11.743  66.569  1.00  0.00     0.109 A  
HETATM   16  F   UNL     1      -5.790  10.399  67.779  1.00  0.00    -0.044 F  
BRANCH  11  17
HETATM   17  C   UNL     1      -7.797   8.552  68.519  1.00  0.00    -0.108 C  
HETATM   18  O   UNL     1      -7.926   7.468  67.954  1.00  0.00    -0.115 OA 
BRANCH  17  19
HETATM   19  C   UNL     1      -7.329   8.629  69.909  1.00  0.00    -0.052 A  
HETATM   20  C   UNL     1      -6.459   9.615  70.353  1.00  0.00    -0.088 A  
HETATM   21  N   UNL     1      -6.350   9.525  71.714  1.00  0.00    -0.298 NA 
HETATM   22  C   UNL     1      -7.099   8.476  72.166  1.00  0.00    -0.078 A  
HETATM   23  H   UNL     1      -5.795  10.147  72.302  1.00  0.00     0.000 HD 
HETATM   24  N   UNL     1      -7.268   8.163  73.462  1.00  0.00    -0.131 NA 
HETATM   25  C   UNL     1      -8.055   7.068  73.645  1.00  0.00    -0.108 A  
HETATM   26  C   UNL     1      -8.611   6.256  72.652  1.00  0.00    -0.123 A  
HETATM   27  C   UNL     1      -8.346   6.637  71.324  1.00  0.00    -0.124 A  
HETATM   28  C   UNL     1      -7.628   7.821  71.061  1.00  0.00    -0.082 A  
BRANCH  26  29
HETATM   29  C   UNL     1      -9.475   5.090  72.947  1.00  0.00    -0.153 A  
HETATM   30  C   UNL     1     -10.805   5.243  73.381  1.00  0.00    -0.355 A  
HETATM   31  C   UNL     1     -11.635   4.133  73.591  1.00  0.00    -0.104 A  
HETATM   32  C   UNL     1     -11.150   2.849  73.363  1.00  0.00    -0.184 A  
HETATM   33  C   UNL     1      -9.837   2.665  72.947  1.00  0.00    -0.186 A  
HETATM   34 CL   UNL     1     -12.175   1.488  73.584  1.00  0.00    -0.289 Cl 
HETATM   35  C   UNL     1      -9.008   3.775  72.752  1.00  0.00    -0.111 A  
ENDBRANCH  26  29
ENDBRANCH  17  19
ENDBRANCH  11  17
ENDBRANCH   7   9
ENDBRANCH   4   7
ENDBRANCH   3   4
ENDBRANCH   2   3
TORSDOF 7
ENDMDL
MODEL      196
REMARK 921   NORMALIZED FREE ENERGY PREDICTED BY IDOCK:   -2.83 KCAL/MOL
REMARK 922        TOTAL FREE ENERGY PREDICTED BY IDOCK:   -5.75 KCAL/MOL
REMARK 923 INTER-LIGAND FREE ENERGY PREDICTED BY IDOCK:   -6.75 KCAL/MOL
REMARK 924 INTRA-LIGAND FREE ENERGY PREDICTED BY IDOCK:    1.01 KCAL/MOL
REMARK 927      BINDING AFFINITY PREDICTED BY RF-SCORE:    0.00 PKD
ROOT
HETATM    1  C   UNL     1      -6.444  20.012  70.151  1.00  0.00    -0.324 C  
HETATM    2  C   UNL     1      -7.878  20.180  69.675  1.00  0.00     0.525 C  
ENDROOT
BRANCH   2   3
HETATM    3  C   UNL     1      -8.133  19.435  68.369  1.00  0.00    -0.343 C  
BRANCH   3   4
HETATM    4  S   UNL     1      -6.697  18.472  67.890  1.00  0.00    -0.216 S  
HETATM    5  O   UNL     1      -6.562  17.336  68.774  1.00  0.00    -0.177 OA 
HETATM    6  O   UNL     1      -5.601  19.377  67.638  1.00  0.00    -0.180 OA 
BRANCH   4   7
HETATM    7  N   UNL     1      -7.163  17.943  66.352  1.00  0.00    -0.239 N  
HETATM    8  H   UNL     1      -6.654  18.234  65.517  1.00  0.00     0.000 HD 
BRANCH   7   9
HETATM    9  C   UNL     1      -8.295  17.075  66.265  1.00  0.00    -0.273 A  
HETATM   10  C   UNL     1      -8.173  15.716  66.583  1.00  0.00    -0.249 A  
HETATM   11  C   UNL     1      -9.311  14.923  66.751  1.00  0.00    -0.270 A  
HETATM   12  F   UNL     1      -6.946  15.216  66.800  1.00  0.00    -0.070 F  
HETATM   13  C   UNL     1      -9.535  17.598  65.906  1.00  0.00     0.031 A  
HETATM   14  C   UNL     1     -10.548  15.457  66.384  1.00  0.00    -0.307 A  
HETATM   15  C   UNL     1     -10.660  16.775  65.937  1.00  0.00    -0.255 A  
HETATM   16  F   UNL     1     -11.676  14.740  66.487  1.00  0.00    -0.359 F  
BRANCH  11  17
HETATM   17  C   UNL     1      -9.253  13.567  67.347  1.00  0.00    -0.223 C  
HETATM   18  O   UNL     1      -8.416  12.774  66.923  1.00  0.00    -0.181 OA 
BRANCH  17  19
HETATM   19  C   UNL     1     -10.162  13.195  68.439  1.00  0.00    -0.247 A  
HETATM   20  C   UNL     1     -10.918  14.128  69.136  1.00  0.00    -0.251 A  
HETATM   21  N   UNL     1     -11.784  13.464  69.962  1.00  0.00    -0.471 NA 
HETATM   22  C   UNL     1     -11.583  12.117  69.850  1.00  0.00    -0.221 A  
HETATM   23  H   UNL     1     -12.475  13.906  70.568  1.00  0.00     0.000 HD 
HETATM   24  N   UNL     1     -12.323  11.182  70.471  1.00  0.00    -0.352 NA 
HETATM   25  C   UNL     1     -11.913   9.914  70.198  1.00  0.00    -0.077 A  
HETATM   26  C   UNL     1     -10.811   9.534  69.425  1.00  0.00    -0.226 A  
HETATM   27  C   UNL     1     -10.071  10.582  68.850  1.00  0.00    -0.215 A  
HETATM   28  C   UNL     1     -10.502  11.915  69.001  1.00  0.00    -0.103 A  
BRANCH  26  29
HETATM   29  C   UNL     1     -10.451   8.121  69.167  1.00  0.00    -0.217 A  
HETATM   30  C   UNL     1     -10.688   7.108  70.116  1.00  0.00    -0.260 A  
HETATM   31  C   UNL     1     -10.407   5.765  69.834  1.00  0.00    -0.330 A  
HETATM   32  C   UNL     1      -9.890   5.409  68.593  1.00  0.00    -0.148 A  
HETATM   33  C   UNL     1      -9.631   6.386  67.640  1.00  0.00    -0.126 A  
HETATM   34 CL   UNL     1      -9.578   3.758  68.230  1.00  0.00    -0.205 Cl 
HETATM   35  C   UNL     1      -9.900   7.727  67.931  1.00  0.00    -0.194 A  
ENDBRANCH  26  29
ENDBRANCH  17  19
ENDBRANCH  11  17
ENDBRANCH   7   9
ENDBRANCH   4   7
ENDBRANCH   3   4
ENDBRANCH   2   3
TORSDOF 7
ENDMDL
MODEL      197
REMARK 921   NORMALIZED FREE ENERGY PREDICTED BY IDOCK:   -2.73 KCAL/MOL
REMARK 922        TOTAL FREE ENERGY PREDICTED BY IDOCK:   -5.60 KCAL/MOL
REMARK 923 INTER-LIGAND FREE ENERGY PREDICTED BY IDOCK:   -5.29 KCAL/MOL
REMARK 924 INTRA-LIGAND FREE ENERGY PREDICTED BY IDOCK:   -0.31 KCAL/MOL
REMARK 927      BINDING AFFINITY PREDICTED BY RF-SCORE:    0.00 PKD
ROOT
HETATM    1  C   UNL     1     -13.560  13.435  71.994  1.00  0.00    -0.577 C  
HETATM    2  C   UNL     1     -12.419  13.206  71.015  1.00  0.00    -0.406 C  
ENDROOT
BRANCH   2   3
HETATM    3  C   UNL     1     -12.757  12.125  69.993  1.00  0.00     0.316 C  
BRANCH   3   4
HETATM    4  S   UNL     1     -11.761  12.310  68.512  1.00  0.00    -0.323 S  
HETATM    5  O   UNL     1     -11.715  13.705  68.134  1.00  0.00    -0.317 OA 
HETATM    6  O   UNL     1     -12.136  11.278  67.575  1.00  0.00    -0.530 OA 
BRANCH   4   7
HETATM    7  N   UNL     1     -10.245  11.826  69.082  1.00  0.00    -0.418 N  
HETATM    8  H   UNL     1      -9.482  12.495  69.188  1.00  0.00     0.000 HD 
BRANCH   7   9
HETATM    9  C   UNL     1     -10.071  10.445  69.410  1.00  0.00    -0.229 A  
HETATM   10  C   UNL     1      -9.501   9.562  68.483  1.00  0.00    -0.141 A  
HETATM   11  C   UNL     1      -9.093   8.286  68.879  1.00  0.00    -0.147 A  
HETATM   12  F   UNL     1      -9.285   9.998  67.231  1.00  0.00    -0.141 F  
HETATM   13  C   UNL     1     -10.430   9.990  70.676  1.00  0.00    -0.211 A  
HETATM   14  C   UNL     1      -9.461   7.839  70.150  1.00  0.00    -0.160 A  
HETATM   15  C   UNL     1     -10.150   8.672  71.035  1.00  0.00    -0.273 A  
HETATM   16  F   UNL     1      -9.133   6.614  70.581  1.00  0.00    -0.150 F  
BRANCH  11  17
HETATM   17  C   UNL     1      -8.247   7.421  68.022  1.00  0.00    -0.124 C  
HETATM   18  O   UNL     1      -8.369   6.202  68.115  1.00  0.00    -0.113 OA 
BRANCH  17  19
HETATM   19  C   UNL     1      -7.305   8.015  67.066  1.00  0.00    -0.091 A  
HETATM   20  C   UNL     1      -7.016   7.433  65.839  1.00  0.00    -0.061 A  
HETATM   21  N   UNL     1      -6.248   8.301  65.110  1.00  0.00    -0.045 NA 
HETATM   22  C   UNL     1      -5.995   9.421  65.849  1.00  0.00    -0.055 A  
HETATM   23  H   UNL     1      -5.917   8.137  64.159  1.00  0.00     0.000 HD 
HETATM   24  N   UNL     1      -5.331  10.499  65.396  1.00  0.00    -0.108 NA 
HETATM   25  C   UNL     1      -5.208  11.478  66.333  1.00  0.00    -0.077 A  
HETATM   26  C   UNL     1      -5.629  11.426  67.665  1.00  0.00    -0.050 A  
HETATM   27  C   UNL     1      -6.276  10.242  68.061  1.00  0.00    -0.056 A  
HETATM   28  C   UNL     1      -6.535   9.230  67.115  1.00  0.00    -0.063 A  
BRANCH  26  29
HETATM   29  C   UNL     1      -5.467  12.553  68.611  1.00  0.00    -0.054 A  
HETATM   30  C   UNL     1      -5.210  13.864  68.167  1.00  0.00    -0.113 A  
HETATM   31  C   UNL     1      -5.127  14.935  69.067  1.00  0.00    -0.091 A  
HETATM   32  C   UNL     1      -5.308  14.714  70.429  1.00  0.00    -0.118 A  
HETATM   33  C   UNL     1      -5.549  13.430  70.900  1.00  0.00    -0.197 A  
HETATM   34 CL   UNL     1      -5.242  16.031  71.532  1.00  0.00    -0.039 Cl 
HETATM   35  C   UNL     1      -5.617  12.362  69.999  1.00  0.00    -0.125 A  
ENDBRANCH  26  29
ENDBRANCH  17  19
ENDBRANCH  11  17
ENDBRANCH   7   9
ENDBRANCH   4   7
ENDBRANCH   3   4
ENDBRANCH   2   3
TORSDOF 7
ENDMDL
MODEL      198
REMARK 921   NORMALIZED FREE ENERGY PREDICTED BY IDOCK:   -2.65 KCAL/MOL
REMARK 922        TOTAL FREE ENERGY PREDICTED BY IDOCK:   -5.48 KCAL/MOL
REMARK 923 INTER-LIGAND FREE ENERGY PREDICTED BY IDOCK:   -4.87 KCAL/MOL
REMARK 924 INTRA-LIGAND FREE ENERGY PREDICTED BY IDOCK:   -0.62 KCAL/MOL
REMARK 927      BINDING AFFINITY PREDICTED BY RF-SCORE:    0.00 PKD
ROOT
HETATM    1  C   UNL     1      -9.103  17.912  65.826  1.00  0.00     0.342 C  
HETATM    2  C   UNL     1      -8.869  16.444  66.147  1.00  0.00    -0.349 C  
ENDROOT
BRANCH   2   3
HETATM    3  C   UNL     1     -10.094  15.592  65.829  1.00  0.00    -0.366 C  
BRANCH   3   4
HETATM    4  S   UNL     1     -10.128  14.115  66.848  1.00  0.00    -0.263 S  
HETATM    5  O   UNL     1     -11.359  13.395  66.609  1.00  0.00    -0.305 OA 
HETATM    6  O   UNL     1      -9.695  14.466  68.179  1.00  0.00    -0.211 OA 
BRANCH   4   7
HETATM    7  N   UNL     1      -8.828  13.249  66.201  1.00  0.00    -0.359 N  
HETATM    8  H   UNL     1      -7.960  13.716  65.939  1.00  0.00     0.000 HD 
BRANCH   7   9
HETATM    9  C   UNL     1      -8.989  11.838  66.035  1.00  0.00    -0.107 A  
HETATM   10  C   UNL     1      -8.840  10.973  67.127  1.00  0.00    -0.140 A  
HETATM   11  C   UNL     1      -9.245   9.639  67.034  1.00  0.00    -0.167 A  
HETATM   12  F   UNL     1      -8.376  11.474  68.283  1.00  0.00    -0.125 F  
HETATM   13  C   UNL     1      -9.341  11.330  64.787  1.00  0.00    -0.166 A  
HETATM   14  C   UNL     1      -9.592   9.140  65.778  1.00  0.00    -0.253 A  
HETATM   15  C   UNL     1      -9.614   9.969  64.653  1.00  0.00    -0.363 A  
HETATM   16  F   UNL     1      -9.957   7.861  65.611  1.00  0.00     0.085 F  
BRANCH  11  17
HETATM   17  C   UNL     1      -9.364   8.762  68.223  1.00  0.00    -0.137 C  
HETATM   18  O   UNL     1     -10.476   8.338  68.532  1.00  0.00    -0.207 OA 
BRANCH  17  19
HETATM   19  C   UNL     1      -8.172   8.388  68.995  1.00  0.00    -0.118 A  
HETATM   20  C   UNL     1      -6.952   9.033  68.847  1.00  0.00    -0.065 A  
HETATM   21  N   UNL     1      -6.096   8.582  69.816  1.00  0.00    -0.035 NA 
HETATM   22  C   UNL     1      -6.718   7.626  70.568  1.00  0.00    -0.042 A  
HETATM   23  H   UNL     1      -5.140   8.909  69.955  1.00  0.00     0.000 HD 
HETATM   24  N   UNL     1      -6.177   7.035  71.648  1.00  0.00    -0.037 NA 
HETATM   25  C   UNL     1      -7.000   6.113  72.216  1.00  0.00    -0.075 A  
HETATM   26  C   UNL     1      -8.256   5.708  71.753  1.00  0.00    -0.119 A  
HETATM   27  C   UNL     1      -8.722   6.350  70.592  1.00  0.00    -0.144 A  
HETATM   28  C   UNL     1      -7.970   7.393  70.013  1.00  0.00    -0.119 A  
BRANCH  26  29
HETATM   29  C   UNL     1      -9.092   4.704  72.450  1.00  0.00    -0.142 A  
HETATM   30  C   UNL     1     -10.265   5.065  73.139  1.00  0.00    -0.214 A  
HETATM   31  C   UNL     1     -11.086   4.099  73.737  1.00  0.00    -0.305 A  
HETATM   32  C   UNL     1     -10.750   2.751  73.649  1.00  0.00    -0.185 A  
HETATM   33  C   UNL     1      -9.591   2.365  72.988  1.00  0.00    -0.135 A  
HETATM   34 CL   UNL     1     -11.773   1.560  74.349  1.00  0.00     0.062 Cl 
HETATM   35  C   UNL     1      -8.768   3.333  72.405  1.00  0.00    -0.101 A  
ENDBRANCH  26  29
ENDBRANCH  17  19
ENDBRANCH  11  17
ENDBRANCH   7   9
ENDBRANCH   4   7
ENDBRANCH   3   4
ENDBRANCH   2   3
TORSDOF 7
ENDMDL
MODEL      199
REMARK 921   NORMALIZED FREE ENERGY PREDICTED BY IDOCK:   -2.57 KCAL/MOL
REMARK 922        TOTAL FREE ENERGY PREDICTED BY IDOCK:   -5.37 KCAL/MOL
REMARK 923 INTER-LIGAND FREE ENERGY PREDICTED BY IDOCK:   -6.13 KCAL/MOL
REMARK 924 INTRA-LIGAND FREE ENERGY PREDICTED BY IDOCK:    0.76 KCAL/MOL
REMARK 927      BINDING AFFINITY PREDICTED BY RF-SCORE:    0.00 PKD
ROOT
HETATM    1  C   UNL     1      -8.019  12.024  67.423  1.00  0.00    -0.165 C  
HETATM    2  C   UNL     1      -9.007  13.120  67.056  1.00  0.00    -0.228 C  
ENDROOT
BRANCH   2   3
HETATM    3  C   UNL     1     -10.198  13.152  68.009  1.00  0.00    -0.233 C  
BRANCH   3   4
HETATM    4  S   UNL     1     -11.295  11.764  67.708  1.00  0.00    -0.299 S  
HETATM    5  O   UNL     1     -12.197  12.088  66.626  1.00  0.00    -0.550 OA 
HETATM    6  O   UNL     1     -11.773  11.274  68.979  1.00  0.00    -0.286 OA 
BRANCH   4   7
HETATM    7  N   UNL     1     -10.193  10.588  67.196  1.00  0.00    -0.212 N  
HETATM    8  H   UNL     1      -9.461  10.809  66.521  1.00  0.00     0.000 HD 
BRANCH   7   9
HETATM    9  C   UNL     1     -10.324   9.274  67.743  1.00  0.00    -0.237 A  
HETATM   10  C   UNL     1     -10.305   9.077  69.130  1.00  0.00    -0.219 A  
HETATM   11  C   UNL     1     -10.687   7.850  69.677  1.00  0.00    -0.218 A  
HETATM   12  F   UNL     1      -9.989  10.116  69.920  1.00  0.00    -0.240 F  
HETATM   13  C   UNL     1     -10.517   8.191  66.889  1.00  0.00    -0.379 A  
HETATM   14  C   UNL     1     -10.874   6.771  68.811  1.00  0.00    -0.231 A  
HETATM   15  C   UNL     1     -10.763   6.929  67.428  1.00  0.00    -0.396 A  
HETATM   16  F   UNL     1     -11.208   5.557  69.271  1.00  0.00    -0.353 F  
BRANCH  11  17
HETATM   17  C   UNL     1     -10.946   7.672  71.126  1.00  0.00    -0.246 C  
HETATM   18  O   UNL     1     -12.088   7.851  71.545  1.00  0.00    -0.289 OA 
BRANCH  17  19
HETATM   19  C   UNL     1      -9.864   7.265  72.031  1.00  0.00    -0.183 A  
HETATM   20  C   UNL     1      -9.790   7.694  73.350  1.00  0.00    -0.303 A  
HETATM   21  N   UNL     1      -8.781   7.013  73.977  1.00  0.00    -0.156 NA 
HETATM   22  C   UNL     1      -8.168   6.179  73.086  1.00  0.00    -0.114 A  
HETATM   23  H   UNL     1      -8.527   7.114  74.959  1.00  0.00     0.000 HD 
HETATM   24  N   UNL     1      -7.187   5.316  73.402  1.00  0.00    -0.088 NA 
HETATM   25  C   UNL     1      -6.742   4.603  72.332  1.00  0.00    -0.051 A  
HETATM   26  C   UNL     1      -7.152   4.740  71.002  1.00  0.00    -0.047 A  
HETATM   27  C   UNL     1      -8.152   5.698  70.760  1.00  0.00    -0.117 A  
HETATM   28  C   UNL     1      -8.736   6.395  71.837  1.00  0.00    -0.134 A  
BRANCH  26  29
HETATM   29  C   UNL     1      -6.621   3.904  69.900  1.00  0.00    -0.033 A  
HETATM   30  C   UNL     1      -7.094   2.599  69.664  1.00  0.00    -0.040 A  
HETATM   31  C   UNL     1      -6.635   1.843  68.577  1.00  0.00    -0.029 A  
HETATM   32  C   UNL     1      -5.699   2.383  67.702  1.00  0.00    -0.019 A  
HETATM   33  C   UNL     1      -5.202   3.663  67.915  1.00  0.00    -0.012 A  
HETATM   34 CL   UNL     1      -5.160   1.472  66.347  1.00  0.00    -0.004 Cl 
HETATM   35  C   UNL     1      -5.653   4.408  69.009  1.00  0.00    -0.016 A  
ENDBRANCH  26  29
ENDBRANCH  17  19
ENDBRANCH  11  17
ENDBRANCH   7   9
ENDBRANCH   4   7
ENDBRANCH   3   4
ENDBRANCH   2   3
TORSDOF 7
ENDMDL
MODEL      200
REMARK 921   NORMALIZED FREE ENERGY PREDICTED BY IDOCK:   -2.54 KCAL/MOL
REMARK 922        TOTAL FREE ENERGY PREDICTED BY IDOCK:   -5.34 KCAL/MOL
REMARK 923 INTER-LIGAND FREE ENERGY PREDICTED BY IDOCK:   -6.30 KCAL/MOL
REMARK 924 INTRA-LIGAND FREE ENERGY PREDICTED BY IDOCK:    0.96 KCAL/MOL
REMARK 927      BINDING AFFINITY PREDICTED BY RF-SCORE:    0.00 PKD
ROOT
HETATM    1  C   UNL     1     -14.205  14.152  71.023  1.00  0.00     0.263 C  
HETATM    2  C   UNL     1     -13.642  15.427  70.416  1.00  0.00     0.193 C  
ENDROOT
BRANCH   2   3
HETATM    3  C   UNL     1     -12.170  15.620  70.768  1.00  0.00    -0.418 C  
BRANCH   3   4
HETATM    4  S   UNL     1     -11.123  14.608  69.719  1.00  0.00    -0.197 S  
HETATM    5  O   UNL     1     -11.556  13.230  69.793  1.00  0.00    -0.276 OA 
HETATM    6  O   UNL     1      -9.748  14.988  69.939  1.00  0.00    -0.083 OA 
BRANCH   4   7
HETATM    7  N   UNL     1     -11.491  15.238  68.193  1.00  0.00    -0.340 N  
HETATM    8  H   UNL     1     -11.663  16.235  68.061  1.00  0.00     0.000 HD 
BRANCH   7   9
HETATM    9  C   UNL     1     -11.554  14.323  67.096  1.00  0.00    -0.380 A  
HETATM   10  C   UNL     1     -10.595  13.311  66.961  1.00  0.00    -0.259 A  
HETATM   11  C   UNL     1     -10.791  12.267  66.054  1.00  0.00    -0.310 A  
HETATM   12  F   UNL     1      -9.528  13.325  67.776  1.00  0.00    -0.184 F  
HETATM   13  C   UNL     1     -12.602  14.417  66.184  1.00  0.00    -0.181 A  
HETATM   14  C   UNL     1     -11.843  12.373  65.142  1.00  0.00    -0.388 A  
HETATM   15  C   UNL     1     -12.728  13.453  65.185  1.00  0.00    -0.459 A  
HETATM   16  F   UNL     1     -12.068  11.424  64.222  1.00  0.00    -0.234 F  
BRANCH  11  17
HETATM   17  C   UNL     1      -9.957  11.042  66.061  1.00  0.00    -0.237 C  
HETATM   18  O   UNL     1     -10.279  10.106  65.331  1.00  0.00    -0.298 OA 
BRANCH  17  19
HETATM   19  C   UNL     1      -8.758  10.962  66.905  1.00  0.00    -0.144 A  
HETATM   20  C   UNL     1      -7.610  11.700  66.647  1.00  0.00    -0.050 A  
HETATM   21  N   UNL     1      -6.743  11.546  67.694  1.00  0.00    -0.073 NA 
HETATM   22  C   UNL     1      -7.282  10.690  68.613  1.00  0.00    -0.090 A  
HETATM   23  H   UNL     1      -5.834  12.000  67.777  1.00  0.00     0.000 HD 
HETATM   24  N   UNL     1      -6.716  10.386  69.794  1.00  0.00    -0.099 NA 
HETATM   25  C   UNL     1      -7.452   9.505  70.524  1.00  0.00    -0.148 A  
HETATM   26  C   UNL     1      -8.641   8.879  70.136  1.00  0.00    -0.161 A  
HETATM   27  C   UNL     1      -9.135   9.226  68.866  1.00  0.00    -0.139 A  
HETATM   28  C   UNL     1      -8.483  10.214  68.102  1.00  0.00    -0.118 A  
BRANCH  26  29
HETATM   29  C   UNL     1      -9.386   7.942  71.009  1.00  0.00    -0.167 A  
HETATM   30  C   UNL     1      -9.764   8.290  72.320  1.00  0.00    -0.362 A  
HETATM   31  C   UNL     1     -10.528   7.423  73.112  1.00  0.00    -0.406 A  
HETATM   32  C   UNL     1     -10.935   6.194  72.603  1.00  0.00    -0.256 A  
HETATM   33  C   UNL     1     -10.566   5.816  71.318  1.00  0.00    -0.319 A  
HETATM   34 CL   UNL     1     -11.903   5.142  73.558  1.00  0.00     0.211 Cl 
HETATM   35  C   UNL     1      -9.791   6.678  70.536  1.00  0.00    -0.190 A  
ENDBRANCH  26  29
ENDBRANCH  17  19
ENDBRANCH  11  17
ENDBRANCH   7   9
ENDBRANCH   4   7
ENDBRANCH   3   4
ENDBRANCH   2   3
TORSDOF 7
ENDMDL
MODEL      201
REMARK 921   NORMALIZED FREE ENERGY PREDICTED BY IDOCK:   -2.54 KCAL/MOL
REMARK 922        TOTAL FREE ENERGY PREDICTED BY IDOCK:   -5.32 KCAL/MOL
REMARK 923 INTER-LIGAND FREE ENERGY PREDICTED BY IDOCK:   -4.64 KCAL/MOL
REMARK 924 INTRA-LIGAND FREE ENERGY PREDICTED BY IDOCK:   -0.68 KCAL/MOL
REMARK 927      BINDING AFFINITY PREDICTED BY RF-SCORE:    0.00 PKD
ROOT
HETATM    1  C   UNL     1      -8.786   7.957  65.549  1.00  0.00    -0.112 C  
HETATM    2  C   UNL     1      -7.875   6.756  65.743  1.00  0.00    -0.102 C  
ENDROOT
BRANCH   2   3
HETATM    3  C   UNL     1      -8.627   5.440  65.568  1.00  0.00    -0.148 C  
BRANCH   3   4
HETATM    4  S   UNL     1     -10.171   5.459  66.484  1.00  0.00    -0.254 S  
HETATM    5  O   UNL     1     -11.139   4.621  65.813  1.00  0.00    -0.138 OA 
HETATM    6  O   UNL     1     -10.468   6.822  66.854  1.00  0.00    -0.251 OA 
BRANCH   4   7
HETATM    7  N   UNL     1      -9.694   4.727  67.932  1.00  0.00    -0.153 N  
HETATM    8  H   UNL     1      -9.576   3.716  68.000  1.00  0.00     0.000 HD 
BRANCH   7   9
HETATM    9  C   UNL     1      -9.462   5.577  69.059  1.00  0.00    -0.129 A  
HETATM   10  C   UNL     1      -8.248   6.264  69.192  1.00  0.00    -0.114 A  
HETATM   11  C   UNL     1      -8.112   7.283  70.137  1.00  0.00    -0.129 A  
HETATM   12  F   UNL     1      -7.251   5.974  68.341  1.00  0.00    -0.073 F  
HETATM   13  C   UNL     1     -10.471   5.755  70.003  1.00  0.00    -0.353 A  
HETATM   14  C   UNL     1      -9.127   7.450  71.081  1.00  0.00    -0.148 A  
HETATM   15  C   UNL     1     -10.288   6.674  71.035  1.00  0.00    -0.234 A  
HETATM   16  F   UNL     1      -9.045   8.386  72.037  1.00  0.00    -0.195 F  
BRANCH  11  17
HETATM   17  C   UNL     1      -6.959   8.215  70.139  1.00  0.00    -0.040 C  
HETATM   18  O   UNL     1      -6.154   8.154  71.065  1.00  0.00    -0.033 OA 
BRANCH  17  19
HETATM   19  C   UNL     1      -6.773   9.171  69.039  1.00  0.00    -0.055 A  
HETATM   20  C   UNL     1      -5.783   9.022  68.077  1.00  0.00    -0.038 A  
HETATM   21  N   UNL     1      -5.974   9.962  67.100  1.00  0.00    -0.051 NA 
HETATM   22  C   UNL     1      -7.044  10.749  67.424  1.00  0.00    -0.091 A  
HETATM   23  H   UNL     1      -5.406  10.061  66.260  1.00  0.00     0.000 HD 
HETATM   24  N   UNL     1      -7.541  11.718  66.637  1.00  0.00    -0.064 NA 
HETATM   25  C   UNL     1      -8.606  12.358  67.194  1.00  0.00    -0.189 A  
HETATM   26  C   UNL     1      -9.144  12.145  68.467  1.00  0.00    -0.091 A  
HETATM   27  C   UNL     1      -8.531  11.140  69.235  1.00  0.00     0.121 A  
HETATM   28  C   UNL     1      -7.494  10.363  68.680  1.00  0.00    -0.088 A  
BRANCH  26  29
HETATM   29  C   UNL     1     -10.320  12.882  68.983  1.00  0.00     0.040 A  
HETATM   30  C   UNL     1     -11.436  12.213  69.523  1.00  0.00    -0.334 A  
HETATM   31  C   UNL     1     -12.514  12.921  70.072  1.00  0.00    -0.084 A  
HETATM   32  C   UNL     1     -12.491  14.312  70.097  1.00  0.00    -0.335 A  
HETATM   33  C   UNL     1     -11.411  15.000  69.560  1.00  0.00    -0.317 A  
HETATM   34 CL   UNL     1     -13.795  15.182  70.803  1.00  0.00    -0.276 Cl 
HETATM   35  C   UNL     1     -10.344  14.290  69.001  1.00  0.00    -0.183 A  
ENDBRANCH  26  29
ENDBRANCH  17  19
ENDBRANCH  11  17
ENDBRANCH   7   9
ENDBRANCH   4   7
ENDBRANCH   3   4
ENDBRANCH   2   3
TORSDOF 7
ENDMDL
MODEL      202
REMARK 921   NORMALIZED FREE ENERGY PREDICTED BY IDOCK:   -2.52 KCAL/MOL
REMARK 922        TOTAL FREE ENERGY PREDICTED BY IDOCK:   -5.30 KCAL/MOL
REMARK 923 INTER-LIGAND FREE ENERGY PREDICTED BY IDOCK:   -4.11 KCAL/MOL
REMARK 924 INTRA-LIGAND FREE ENERGY PREDICTED BY IDOCK:   -1.20 KCAL/MOL
REMARK 927      BINDING AFFINITY PREDICTED BY RF-SCORE:    0.00 PKD
ROOT
HETATM    1  C   UNL     1     -11.255  11.577  63.053  1.00  0.00     0.066 C  
HETATM    2  C   UNL     1     -10.042  10.697  62.799  1.00  0.00     0.017 C  
ENDROOT
BRANCH   2   3
HETATM    3  C   UNL     1      -8.815  11.189  63.560  1.00  0.00     0.021 C  
BRANCH   3   4
HETATM    4  S   UNL     1      -8.635  10.317  65.118  1.00  0.00    -0.177 S  
HETATM    5  O   UNL     1      -7.386   9.589  65.121  1.00  0.00    -0.101 OA 
HETATM    6  O   UNL     1      -9.891   9.679  65.434  1.00  0.00    -0.315 OA 
BRANCH   4   7
HETATM    7  N   UNL     1      -8.540  11.611  66.202  1.00  0.00    -0.354 N  
HETATM    8  H   UNL     1      -7.640  11.997  66.486  1.00  0.00     0.000 HD 
BRANCH   7   9
HETATM    9  C   UNL     1      -9.767  12.145  66.705  1.00  0.00    -0.207 A  
HETATM   10  C   UNL     1     -10.110  11.988  68.054  1.00  0.00    -0.198 A  
HETATM   11  C   UNL     1     -11.164  12.718  68.607  1.00  0.00    -0.322 A  
HETATM   12  F   UNL     1      -9.353  11.183  68.818  1.00  0.00    -0.168 F  
HETATM   13  C   UNL     1     -10.603  12.865  65.854  1.00  0.00    -0.287 A  
HETATM   14  C   UNL     1     -11.997  13.432  67.744  1.00  0.00    -0.324 A  
HETATM   15  C   UNL     1     -11.739  13.485  66.372  1.00  0.00    -0.405 A  
HETATM   16  F   UNL     1     -13.048  14.126  68.203  1.00  0.00     0.645 F  
BRANCH  11  17
HETATM   17  C   UNL     1     -11.394  12.797  70.069  1.00  0.00     0.135 C  
HETATM   18  O   UNL     1     -11.059  13.820  70.663  1.00  0.00     0.390 OA 
BRANCH  17  19
HETATM   19  C   UNL     1     -12.035  11.685  70.784  1.00  0.00    -0.274 A  
HETATM   20  C   UNL     1     -13.355  11.731  71.211  1.00  0.00     0.201 A  
HETATM   21  N   UNL     1     -13.708  10.495  71.681  1.00  0.00    -0.040 NA 
HETATM   22  C   UNL     1     -12.634   9.653  71.609  1.00  0.00    -0.402 A  
HETATM   23  H   UNL     1     -14.631  10.241  72.032  1.00  0.00     0.000 HD 
HETATM   24  N   UNL     1     -12.669   8.346  71.923  1.00  0.00    -0.339 NA 
HETATM   25  C   UNL     1     -11.464   7.732  71.770  1.00  0.00    -0.266 A  
HETATM   26  C   UNL     1     -10.256   8.331  71.402  1.00  0.00    -0.263 A  
HETATM   27  C   UNL     1     -10.307   9.711  71.135  1.00  0.00    -0.236 A  
HETATM   28  C   UNL     1     -11.543  10.389  71.167  1.00  0.00    -0.315 A  
BRANCH  26  29
HETATM   29  C   UNL     1      -8.992   7.576  71.243  1.00  0.00    -0.142 A  
HETATM   30  C   UNL     1      -7.778   8.037  71.788  1.00  0.00    -0.107 A  
HETATM   31  C   UNL     1      -6.602   7.281  71.692  1.00  0.00    -0.047 A  
HETATM   32  C   UNL     1      -6.622   6.044  71.055  1.00  0.00    -0.049 A  
HETATM   33  C   UNL     1      -7.800   5.568  70.495  1.00  0.00    -0.098 A  
HETATM   34 CL   UNL     1      -5.190   5.097  70.966  1.00  0.00    -0.004 Cl 
HETATM   35  C   UNL     1      -8.968   6.333  70.581  1.00  0.00    -0.144 A  
ENDBRANCH  26  29
ENDBRANCH  17  19
ENDBRANCH  11  17
ENDBRANCH   7   9
ENDBRANCH   4   7
ENDBRANCH   3   4
ENDBRANCH   2   3
TORSDOF 7
ENDMDL
MODEL      203
REMARK 921   NORMALIZED FREE ENERGY PREDICTED BY IDOCK:   -2.44 KCAL/MOL
REMARK 922        TOTAL FREE ENERGY PREDICTED BY IDOCK:   -5.19 KCAL/MOL
REMARK 923 INTER-LIGAND FREE ENERGY PREDICTED BY IDOCK:   -4.46 KCAL/MOL
REMARK 924 INTRA-LIGAND FREE ENERGY PREDICTED BY IDOCK:   -0.72 KCAL/MOL
REMARK 927      BINDING AFFINITY PREDICTED BY RF-SCORE:    0.00 PKD
ROOT
HETATM    1  C   UNL     1      -8.501  16.104  66.725  1.00  0.00    -0.289 C  
HETATM    2  C   UNL     1      -8.160  16.151  68.206  1.00  0.00    -0.153 C  
ENDROOT
BRANCH   2   3
HETATM    3  C   UNL     1      -6.938  15.298  68.534  1.00  0.00    -0.113 C  
BRANCH   3   4
HETATM    4  S   UNL     1      -7.363  13.554  68.561  1.00  0.00    -0.117 S  
HETATM    5  O   UNL     1      -8.764  13.395  68.244  1.00  0.00    -0.176 OA 
HETATM    6  O   UNL     1      -6.773  12.957  69.735  1.00  0.00     0.003 OA 
BRANCH   4   7
HETATM    7  N   UNL     1      -6.422  12.975  67.280  1.00  0.00    -0.279 N  
HETATM    8  H   UNL     1      -5.938  13.614  66.649  1.00  0.00     0.000 HD 
BRANCH   7   9
HETATM    9  C   UNL     1      -6.330  11.558  67.114  1.00  0.00    -0.124 A  
HETATM   10  C   UNL     1      -7.258  10.875  66.318  1.00  0.00    -0.126 A  
HETATM   11  C   UNL     1      -7.029   9.549  65.943  1.00  0.00    -0.091 A  
HETATM   12  F   UNL     1      -8.327  11.546  65.860  1.00  0.00    -0.141 F  
HETATM   13  C   UNL     1      -5.282  10.864  67.714  1.00  0.00    -0.039 A  
HETATM   14  C   UNL     1      -5.978   8.862  66.553  1.00  0.00    -0.056 A  
HETATM   15  C   UNL     1      -5.125   9.503  67.455  1.00  0.00    -0.036 A  
HETATM   16  F   UNL     1      -5.723   7.577  66.266  1.00  0.00    -0.032 F  
BRANCH  11  17
HETATM   17  C   UNL     1      -7.826   8.872  64.893  1.00  0.00    -0.121 C  
HETATM   18  O   UNL     1      -8.196   9.527  63.921  1.00  0.00    -0.139 OA 
BRANCH  17  19
HETATM   19  C   UNL     1      -8.141   7.442  65.003  1.00  0.00    -0.122 A  
HETATM   20  C   UNL     1      -8.037   6.566  63.930  1.00  0.00    -0.025 A  
HETATM   21  N   UNL     1      -8.225   5.289  64.385  1.00  0.00    -0.131 NA 
HETATM   22  C   UNL     1      -8.492   5.314  65.724  1.00  0.00    -0.128 A  
HETATM   23  H   UNL     1      -8.175   4.447  63.811  1.00  0.00     0.000 HD 
HETATM   24  N   UNL     1      -8.651   4.220  66.489  1.00  0.00    -0.112 NA 
HETATM   25  C   UNL     1      -8.913   4.516  67.791  1.00  0.00    -0.116 A  
HETATM   26  C   UNL     1      -9.087   5.788  68.345  1.00  0.00    -0.118 A  
HETATM   27  C   UNL     1      -8.944   6.872  67.460  1.00  0.00    -0.116 A  
HETATM   28  C   UNL     1      -8.565   6.643  66.121  1.00  0.00    -0.148 A  
BRANCH  26  29
HETATM   29  C   UNL     1      -9.354   6.016  69.784  1.00  0.00    -0.166 A  
HETATM   30  C   UNL     1      -8.466   5.573  70.783  1.00  0.00    -0.122 A  
HETATM   31  C   UNL     1      -8.694   5.855  72.137  1.00  0.00    -0.136 A  
HETATM   32  C   UNL     1      -9.811   6.593  72.515  1.00  0.00    -0.165 A  
HETATM   33  C   UNL     1     -10.713   7.032  71.554  1.00  0.00    -0.244 A  
HETATM   34 CL   UNL     1     -10.075   6.971  74.171  1.00  0.00    -0.346 Cl 
HETATM   35  C   UNL     1     -10.489   6.737  70.205  1.00  0.00    -0.238 A  
ENDBRANCH  26  29
ENDBRANCH  17  19
ENDBRANCH  11  17
ENDBRANCH   7   9
ENDBRANCH   4   7
ENDBRANCH   3   4
ENDBRANCH   2   3
TORSDOF 7
ENDMDL
MODEL      204
REMARK 921   NORMALIZED FREE ENERGY PREDICTED BY IDOCK:   -2.43 KCAL/MOL
REMARK 922        TOTAL FREE ENERGY PREDICTED BY IDOCK:   -5.18 KCAL/MOL
REMARK 923 INTER-LIGAND FREE ENERGY PREDICTED BY IDOCK:   -4.58 KCAL/MOL
REMARK 924 INTRA-LIGAND FREE ENERGY PREDICTED BY IDOCK:   -0.60 KCAL/MOL
REMARK 927      BINDING AFFINITY PREDICTED BY RF-SCORE:    0.00 PKD
ROOT
HETATM    1  C   UNL     1     -12.083  12.956  66.513  1.00  0.00    -0.375 C  
HETATM    2  C   UNL     1     -11.012  11.879  66.585  1.00  0.00    -0.336 C  
ENDROOT
BRANCH   2   3
HETATM    3  C   UNL     1     -11.389  10.769  67.560  1.00  0.00    -0.205 C  
BRANCH   3   4
HETATM    4  S   UNL     1     -10.238   9.396  67.444  1.00  0.00    -0.256 S  
HETATM    5  O   UNL     1      -8.942   9.813  67.930  1.00  0.00    -0.119 OA 
HETATM    6  O   UNL     1     -10.405   8.765  66.157  1.00  0.00    -0.159 OA 
BRANCH   4   7
HETATM    7  N   UNL     1     -10.930   8.305  68.536  1.00  0.00    -0.426 N  
HETATM    8  H   UNL     1     -11.942   8.195  68.604  1.00  0.00     0.000 HD 
BRANCH   7   9
HETATM    9  C   UNL     1     -10.044   7.542  69.360  1.00  0.00    -0.190 A  
HETATM   10  C   UNL     1     -10.167   6.149  69.434  1.00  0.00    -0.197 A  
HETATM   11  C   UNL     1      -9.160   5.379  70.022  1.00  0.00    -0.160 A  
HETATM   12  F   UNL     1     -11.232   5.568  68.857  1.00  0.00    -0.258 F  
HETATM   13  C   UNL     1      -9.027   8.190  70.057  1.00  0.00    -0.143 A  
HETATM   14  C   UNL     1      -8.147   6.039  70.721  1.00  0.00    -0.120 A  
HETATM   15  C   UNL     1      -8.093   7.435  70.765  1.00  0.00    -0.110 A  
HETATM   16  F   UNL     1      -7.169   5.362  71.338  1.00  0.00    -0.062 F  
BRANCH  11  17
HETATM   17  C   UNL     1      -9.106   3.904  69.886  1.00  0.00    -0.122 C  
HETATM   18  O   UNL     1      -9.785   3.218  70.648  1.00  0.00    -0.174 OA 
BRANCH  17  19
HETATM   19  C   UNL     1      -8.280   3.283  68.844  1.00  0.00    -0.076 A  
HETATM   20  C   UNL     1      -7.892   1.950  68.891  1.00  0.00    -0.045 A  
HETATM   21  N   UNL     1      -7.286   1.626  67.707  1.00  0.00    -0.042 NA 
HETATM   22  C   UNL     1      -7.231   2.729  66.903  1.00  0.00    -0.061 A  
HETATM   23  H   UNL     1      -6.929   0.703  67.463  1.00  0.00     0.000 HD 
HETATM   24  N   UNL     1      -6.764   2.730  65.642  1.00  0.00    -0.039 NA 
HETATM   25  C   UNL     1      -6.814   3.959  65.060  1.00  0.00    -0.049 A  
HETATM   26  C   UNL     1      -7.223   5.156  65.655  1.00  0.00    -0.068 A  
HETATM   27  C   UNL     1      -7.655   5.065  66.990  1.00  0.00    -0.088 A  
HETATM   28  C   UNL     1      -7.733   3.807  67.621  1.00  0.00    -0.074 A  
BRANCH  26  29
HETATM   29  C   UNL     1      -7.260   6.449  64.933  1.00  0.00    -0.067 A  
HETATM   30  C   UNL     1      -7.694   7.635  65.557  1.00  0.00    -0.101 A  
HETATM   31  C   UNL     1      -7.659   8.865  64.886  1.00  0.00    -0.108 A  
HETATM   32  C   UNL     1      -7.183   8.932  63.581  1.00  0.00    -0.093 A  
HETATM   33  C   UNL     1      -6.761   7.777  62.934  1.00  0.00    -0.075 A  
HETATM   34 CL   UNL     1      -7.105  10.444  62.767  1.00  0.00    -0.135 Cl 
HETATM   35  C   UNL     1      -6.810   6.550  63.602  1.00  0.00    -0.049 A  
ENDBRANCH  26  29
ENDBRANCH  17  19
ENDBRANCH  11  17
ENDBRANCH   7   9
ENDBRANCH   4   7
ENDBRANCH   3   4
ENDBRANCH   2   3
TORSDOF 7
ENDMDL
MODEL      205
REMARK 921   NORMALIZED FREE ENERGY PREDICTED BY IDOCK:   -2.37 KCAL/MOL
REMARK 922        TOTAL FREE ENERGY PREDICTED BY IDOCK:   -5.09 KCAL/MOL
REMARK 923 INTER-LIGAND FREE ENERGY PREDICTED BY IDOCK:   -3.73 KCAL/MOL
REMARK 924 INTRA-LIGAND FREE ENERGY PREDICTED BY IDOCK:   -1.36 KCAL/MOL
REMARK 927      BINDING AFFINITY PREDICTED BY RF-SCORE:    0.00 PKD
ROOT
HETATM    1  C   UNL     1      -9.210   2.461  68.403  1.00  0.00    -0.253 C  
HETATM    2  C   UNL     1      -9.732   3.862  68.132  1.00  0.00    -0.124 C  
ENDROOT
BRANCH   2   3
HETATM    3  C   UNL     1      -8.632   4.911  68.253  1.00  0.00    -0.101 C  
BRANCH   3   4
HETATM    4  S   UNL     1      -7.235   4.499  67.204  1.00  0.00    -0.074 S  
HETATM    5  O   UNL     1      -7.717   4.001  65.935  1.00  0.00    -0.088 OA 
HETATM    6  O   UNL     1      -6.269   3.772  67.992  1.00  0.00    -0.031 OA 
BRANCH   4   7
HETATM    7  N   UNL     1      -6.535   6.023  66.987  1.00  0.00    -0.048 N  
HETATM    8  H   UNL     1      -5.542   6.177  67.158  1.00  0.00     0.000 HD 
BRANCH   7   9
HETATM    9  C   UNL     1      -7.387   7.088  66.557  1.00  0.00    -0.083 A  
HETATM   10  C   UNL     1      -7.455   8.282  67.286  1.00  0.00    -0.089 A  
HETATM   11  C   UNL     1      -8.075   9.409  66.743  1.00  0.00    -0.109 A  
HETATM   12  F   UNL     1      -6.844   8.339  68.480  1.00  0.00    -0.058 F  
HETATM   13  C   UNL     1      -8.118   6.948  65.379  1.00  0.00    -0.133 A  
HETATM   14  C   UNL     1      -8.807   9.257  65.564  1.00  0.00    -0.187 A  
HETATM   15  C   UNL     1      -8.855   8.030  64.898  1.00  0.00     0.190 A  
HETATM   16  F   UNL     1      -9.455  10.289  65.006  1.00  0.00    -0.214 F  
BRANCH  11  17
HETATM   17  C   UNL     1      -7.939  10.757  67.344  1.00  0.00    -0.112 C  
HETATM   18  O   UNL     1      -6.832  11.290  67.349  1.00  0.00    -0.083 OA 
BRANCH  17  19
HETATM   19  C   UNL     1      -9.112  11.447  67.897  1.00  0.00    -0.164 A  
HETATM   20  C   UNL     1      -9.474  12.732  67.515  1.00  0.00    -0.187 A  
HETATM   21  N   UNL     1     -10.692  13.028  68.065  1.00  0.00    -0.226 NA 
HETATM   22  C   UNL     1     -11.115  11.979  68.832  1.00  0.00    -0.247 A  
HETATM   23  H   UNL     1     -11.206  13.897  67.924  1.00  0.00     0.000 HD 
HETATM   24  N   UNL     1     -12.308  11.921  69.450  1.00  0.00    -0.094 NA 
HETATM   25  C   UNL     1     -12.483  10.771  70.156  1.00  0.00    -0.285 A  
HETATM   26  C   UNL     1     -11.552   9.743  70.334  1.00  0.00    -0.327 A  
HETATM   27  C   UNL     1     -10.316   9.911  69.685  1.00  0.00    -0.265 A  
HETATM   28  C   UNL     1     -10.105  11.026  68.848  1.00  0.00    -0.212 A  
BRANCH  26  29
HETATM   29  C   UNL     1     -11.839   8.514  71.109  1.00  0.00    -0.322 A  
HETATM   30  C   UNL     1     -13.074   8.315  71.755  1.00  0.00    -0.366 A  
HETATM   31  C   UNL     1     -13.360   7.120  72.428  1.00  0.00     0.293 A  
HETATM   32  C   UNL     1     -12.418   6.097  72.459  1.00  0.00     0.151 A  
HETATM   33  C   UNL     1     -11.184   6.268  71.843  1.00  0.00    -0.332 A  
HETATM   34 CL   UNL     1     -12.779   4.615  73.252  1.00  0.00     0.699 Cl 
HETATM   35  C   UNL     1     -10.897   7.468  71.185  1.00  0.00    -0.254 A  
ENDBRANCH  26  29
ENDBRANCH  17  19
ENDBRANCH  11  17
ENDBRANCH   7   9
ENDBRANCH   4   7
ENDBRANCH   3   4
ENDBRANCH   2   3
TORSDOF 7
ENDMDL
MODEL      206
REMARK 921   NORMALIZED FREE ENERGY PREDICTED BY IDOCK:   -2.33 KCAL/MOL
REMARK 922        TOTAL FREE ENERGY PREDICTED BY IDOCK:   -5.04 KCAL/MOL
REMARK 923 INTER-LIGAND FREE ENERGY PREDICTED BY IDOCK:   -4.72 KCAL/MOL
REMARK 924 INTRA-LIGAND FREE ENERGY PREDICTED BY IDOCK:   -0.32 KCAL/MOL
REMARK 927      BINDING AFFINITY PREDICTED BY RF-SCORE:    0.00 PKD
ROOT
HETATM    1  C   UNL     1     -10.597  19.633  65.885  1.00  0.00    -0.566 C  
HETATM    2  C   UNL     1     -10.293  18.721  67.063  1.00  0.00    -0.454 C  
ENDROOT
BRANCH   2   3
HETATM    3  C   UNL     1      -8.796  18.477  67.220  1.00  0.00    -0.270 C  
BRANCH   3   4
HETATM    4  S   UNL     1      -8.346  16.846  66.622  1.00  0.00    -0.281 S  
HETATM    5  O   UNL     1      -6.906  16.724  66.593  1.00  0.00    -0.215 OA 
HETATM    6  O   UNL     1      -9.162  16.538  65.472  1.00  0.00    -0.430 OA 
BRANCH   4   7
HETATM    7  N   UNL     1      -8.974  15.869  67.852  1.00  0.00    -0.181 N  
HETATM    8  H   UNL     1      -9.878  16.073  68.279  1.00  0.00     0.000 HD 
BRANCH   7   9
HETATM    9  C   UNL     1      -8.191  14.749  68.273  1.00  0.00    -0.142 A  
HETATM   10  C   UNL     1      -8.179  13.568  67.518  1.00  0.00    -0.183 A  
HETATM   11  C   UNL     1      -7.231  12.575  67.773  1.00  0.00    -0.125 A  
HETATM   12  F   UNL     1      -9.044  13.451  66.498  1.00  0.00    -0.238 F  
HETATM   13  C   UNL     1      -7.403  14.853  69.416  1.00  0.00    -0.181 A  
HETATM   14  C   UNL     1      -6.449  12.688  68.924  1.00  0.00    -0.091 A  
HETATM   15  C   UNL     1      -6.551  13.804  69.759  1.00  0.00    -0.034 A  
HETATM   16  F   UNL     1      -5.544  11.753  69.249  1.00  0.00    -0.050 F  
BRANCH  11  17
HETATM   17  C   UNL     1      -6.998  11.443  66.845  1.00  0.00    -0.140 C  
HETATM   18  O   UNL     1      -5.855  11.240  66.440  1.00  0.00    -0.134 OA 
BRANCH  17  19
HETATM   19  C   UNL     1      -8.107  10.570  66.442  1.00  0.00    -0.135 A  
HETATM   20  C   UNL     1      -9.171  11.017  65.670  1.00  0.00    -0.210 A  
HETATM   21  N   UNL     1      -9.942   9.942  65.318  1.00  0.00    -0.332 NA 
HETATM   22  C   UNL     1      -9.429   8.807  65.879  1.00  0.00    -0.208 A  
HETATM   23  H   UNL     1     -10.773   9.982  64.729  1.00  0.00     0.000 HD 
HETATM   24  N   UNL     1      -9.909   7.569  65.667  1.00  0.00     0.696 NA 
HETATM   25  C   UNL     1      -9.223   6.611  66.347  1.00  0.00    -0.151 A  
HETATM   26  C   UNL     1      -8.169   6.808  67.245  1.00  0.00    -0.121 A  
HETATM   27  C   UNL     1      -7.763   8.141  67.436  1.00  0.00    -0.102 A  
HETATM   28  C   UNL     1      -8.356   9.173  66.682  1.00  0.00    -0.122 A  
BRANCH  26  29
HETATM   29  C   UNL     1      -7.468   5.697  67.928  1.00  0.00    -0.077 A  
HETATM   30  C   UNL     1      -7.440   5.589  69.332  1.00  0.00    -0.070 A  
HETATM   31  C   UNL     1      -6.833   4.496  69.966  1.00  0.00    -0.041 A  
HETATM   32  C   UNL     1      -6.249   3.488  69.206  1.00  0.00    -0.028 A  
HETATM   33  C   UNL     1      -6.248   3.573  67.820  1.00  0.00    -0.032 A  
HETATM   34 CL   UNL     1      -5.535   2.129  69.980  1.00  0.00    -0.015 Cl 
HETATM   35  C   UNL     1      -6.842   4.672  67.191  1.00  0.00    -0.056 A  
ENDBRANCH  26  29
ENDBRANCH  17  19
ENDBRANCH  11  17
ENDBRANCH   7   9
ENDBRANCH   4   7
ENDBRANCH   3   4
ENDBRANCH   2   3
TORSDOF 7
ENDMDL
MODEL      207
REMARK 921   NORMALIZED FREE ENERGY PREDICTED BY IDOCK:   -2.28 KCAL/MOL
REMARK 922        TOTAL FREE ENERGY PREDICTED BY IDOCK:   -4.96 KCAL/MOL
REMARK 923 INTER-LIGAND FREE ENERGY PREDICTED BY IDOCK:   -4.49 KCAL/MOL
REMARK 924 INTRA-LIGAND FREE ENERGY PREDICTED BY IDOCK:   -0.48 KCAL/MOL
REMARK 927      BINDING AFFINITY PREDICTED BY RF-SCORE:    0.00 PKD
ROOT
HETATM    1  C   UNL     1      -5.145  17.918  66.652  1.00  0.00    -0.176 C  
HETATM    2  C   UNL     1      -5.861  18.581  67.817  1.00  0.00    -0.167 C  
ENDROOT
BRANCH   2   3
HETATM    3  C   UNL     1      -6.855  17.635  68.484  1.00  0.00    -0.223 C  
BRANCH   3   4
HETATM    4  S   UNL     1      -6.151  15.995  68.673  1.00  0.00    -0.111 S  
HETATM    5  O   UNL     1      -5.270  15.979  69.818  1.00  0.00    -0.113 OA 
HETATM    6  O   UNL     1      -5.726  15.527  67.376  1.00  0.00    -0.313 OA 
BRANCH   4   7
HETATM    7  N   UNL     1      -7.538  15.088  69.009  1.00  0.00    -0.147 N  
HETATM    8  H   UNL     1      -8.223  15.405  69.695  1.00  0.00     0.000 HD 
BRANCH   7   9
HETATM    9  C   UNL     1      -7.715  13.860  68.298  1.00  0.00    -0.136 A  
HETATM   10  C   UNL     1      -6.903  12.754  68.579  1.00  0.00    -0.094 A  
HETATM   11  C   UNL     1      -7.231  11.490  68.084  1.00  0.00    -0.080 A  
HETATM   12  F   UNL     1      -5.851  12.922  69.397  1.00  0.00    -0.075 F  
HETATM   13  C   UNL     1      -8.733  13.755  67.354  1.00  0.00    -0.210 A  
HETATM   14  C   UNL     1      -8.251  11.397  67.134  1.00  0.00    -0.157 A  
HETATM   15  C   UNL     1      -8.981  12.524  66.748  1.00  0.00    -0.198 A  
HETATM   16  F   UNL     1      -8.595  10.221  66.592  1.00  0.00    -0.124 F  
BRANCH  11  17
HETATM   17  C   UNL     1      -6.573  10.252  68.565  1.00  0.00    -0.052 C  
HETATM   18  O   UNL     1      -5.420  10.021  68.207  1.00  0.00    -0.039 OA 
BRANCH  17  19
HETATM   19  C   UNL     1      -7.278   9.339  69.474  1.00  0.00    -0.061 A  
HETATM   20  C   UNL     1      -7.453   9.612  70.824  1.00  0.00    -0.016 A  
HETATM   21  N   UNL     1      -8.289   8.670  71.359  1.00  0.00    -0.156 NA 
HETATM   22  C   UNL     1      -8.632   7.763  70.397  1.00  0.00    -0.137 A  
HETATM   23  H   UNL     1      -8.608   8.649  72.327  1.00  0.00     0.000 HD 
HETATM   24  N   UNL     1      -9.502   6.754  70.578  1.00  0.00    -0.169 NA 
HETATM   25  C   UNL     1      -9.666   5.989  69.464  1.00  0.00    -0.147 A  
HETATM   26  C   UNL     1      -8.992   6.122  68.246  1.00  0.00    -0.114 A  
HETATM   27  C   UNL     1      -8.070   7.180  68.164  1.00  0.00    -0.124 A  
HETATM   28  C   UNL     1      -7.929   8.078  69.241  1.00  0.00    -0.116 A  
BRANCH  26  29
HETATM   29  C   UNL     1      -9.250   5.250  67.077  1.00  0.00    -0.116 A  
HETATM   30  C   UNL     1      -8.267   4.379  66.569  1.00  0.00    -0.102 A  
HETATM   31  C   UNL     1      -8.544   3.508  65.507  1.00  0.00    -0.114 A  
HETATM   32  C   UNL     1      -9.814   3.487  64.939  1.00  0.00    -0.134 A  
HETATM   33  C   UNL     1     -10.801   4.343  65.409  1.00  0.00    -0.058 A  
HETATM   34 CL   UNL     1     -10.168   2.394  63.660  1.00  0.00    -0.151 Cl 
HETATM   35  C   UNL     1     -10.516   5.221  66.460  1.00  0.00    -0.354 A  
ENDBRANCH  26  29
ENDBRANCH  17  19
ENDBRANCH  11  17
ENDBRANCH   7   9
ENDBRANCH   4   7
ENDBRANCH   3   4
ENDBRANCH   2   3
TORSDOF 7
ENDMDL
MODEL      208
REMARK 921   NORMALIZED FREE ENERGY PREDICTED BY IDOCK:   -2.23 KCAL/MOL
REMARK 922        TOTAL FREE ENERGY PREDICTED BY IDOCK:   -4.90 KCAL/MOL
REMARK 923 INTER-LIGAND FREE ENERGY PREDICTED BY IDOCK:   -5.70 KCAL/MOL
REMARK 924 INTRA-LIGAND FREE ENERGY PREDICTED BY IDOCK:    0.80 KCAL/MOL
REMARK 927      BINDING AFFINITY PREDICTED BY RF-SCORE:    0.00 PKD
ROOT
HETATM    1  C   UNL     1      -9.203  16.806  66.310  1.00  0.00    -0.313 C  
HETATM    2  C   UNL     1      -8.505  18.073  66.777  1.00  0.00    -0.274 C  
ENDROOT
BRANCH   2   3
HETATM    3  C   UNL     1      -8.041  17.962  68.226  1.00  0.00    -0.293 C  
BRANCH   3   4
HETATM    4  S   UNL     1      -6.256  17.792  68.315  1.00  0.00    -0.179 S  
HETATM    5  O   UNL     1      -5.648  19.103  68.334  1.00  0.00    -0.198 OA 
HETATM    6  O   UNL     1      -5.846  16.774  67.379  1.00  0.00    -0.133 OA 
BRANCH   4   7
HETATM    7  N   UNL     1      -6.079  17.062  69.831  1.00  0.00    -0.224 N  
HETATM    8  H   UNL     1      -5.921  17.619  70.670  1.00  0.00     0.000 HD 
BRANCH   7   9
HETATM    9  C   UNL     1      -6.160  15.635  69.892  1.00  0.00    -0.162 A  
HETATM   10  C   UNL     1      -7.149  14.949  69.176  1.00  0.00    -0.148 A  
HETATM   11  C   UNL     1      -7.079  13.563  69.022  1.00  0.00    -0.066 A  
HETATM   12  F   UNL     1      -8.117  15.661  68.576  1.00  0.00    -0.131 F  
HETATM   13  C   UNL     1      -5.219  14.926  70.634  1.00  0.00    -0.128 A  
HETATM   14  C   UNL     1      -6.133  12.862  69.773  1.00  0.00    -0.125 A  
HETATM   15  C   UNL     1      -5.226  13.533  70.597  1.00  0.00    -0.125 A  
HETATM   16  F   UNL     1      -6.034  11.527  69.701  1.00  0.00    -0.062 F  
BRANCH  11  17
HETATM   17  C   UNL     1      -7.932  12.826  68.059  1.00  0.00    -0.160 C  
HETATM   18  O   UNL     1      -7.433  12.445  67.002  1.00  0.00    -0.128 OA 
BRANCH  17  19
HETATM   19  C   UNL     1      -9.336  12.537  68.379  1.00  0.00    -0.149 A  
HETATM   20  C   UNL     1     -10.379  13.365  67.988  1.00  0.00    -0.241 A  
HETATM   21  N   UNL     1     -11.565  12.745  68.278  1.00  0.00    -0.312 NA 
HETATM   22  C   UNL     1     -11.319  11.548  68.887  1.00  0.00    -0.268 A  
HETATM   23  H   UNL     1     -12.490  13.120  68.071  1.00  0.00     0.000 HD 
HETATM   24  N   UNL     1     -12.268  10.660  69.232  1.00  0.00    -0.290 NA 
HETATM   25  C   UNL     1     -11.762   9.548  69.830  1.00  0.00     0.098 A  
HETATM   26  C   UNL     1     -10.424   9.303  70.155  1.00  0.00    -0.265 A  
HETATM   27  C   UNL     1      -9.508  10.307  69.795  1.00  0.00    -0.128 A  
HETATM   28  C   UNL     1      -9.947  11.436  69.075  1.00  0.00    -0.087 A  
BRANCH  26  29
HETATM   29  C   UNL     1      -9.961   8.049  70.793  1.00  0.00    -0.202 A  
HETATM   30  C   UNL     1      -9.956   7.886  72.192  1.00  0.00    -0.266 A  
HETATM   31  C   UNL     1      -9.582   6.671  72.782  1.00  0.00    -0.157 A  
HETATM   32  C   UNL     1      -9.213   5.594  71.982  1.00  0.00    -0.144 A  
HETATM   33  C   UNL     1      -9.194   5.728  70.600  1.00  0.00    -0.172 A  
HETATM   34 CL   UNL     1      -8.788   4.092  72.701  1.00  0.00    -0.110 Cl 
HETATM   35  C   UNL     1      -9.555   6.947  70.015  1.00  0.00    -0.158 A  
ENDBRANCH  26  29
ENDBRANCH  17  19
ENDBRANCH  11  17
ENDBRANCH   7   9
ENDBRANCH   4   7
ENDBRANCH   3   4
ENDBRANCH   2   3
TORSDOF 7
ENDMDL
MODEL      209
REMARK 921   NORMALIZED FREE ENERGY PREDICTED BY IDOCK:   -2.19 KCAL/MOL
REMARK 922        TOTAL FREE ENERGY PREDICTED BY IDOCK:   -4.83 KCAL/MOL
REMARK 923 INTER-LIGAND FREE ENERGY PREDICTED BY IDOCK:   -5.49 KCAL/MOL
REMARK 924 INTRA-LIGAND FREE ENERGY PREDICTED BY IDOCK:    0.66 KCAL/MOL
REMARK 927      BINDING AFFINITY PREDICTED BY RF-SCORE:    0.00 PKD
ROOT
HETATM    1  C   UNL     1     -10.837  17.800  68.970  1.00  0.00     0.352 C  
HETATM    2  C   UNL     1     -10.374  17.335  70.342  1.00  0.00     1.077 C  
ENDROOT
BRANCH   2   3
HETATM    3  C   UNL     1     -10.695  15.863  70.580  1.00  0.00    -0.188 C  
BRANCH   3   4
HETATM    4  S   UNL     1     -11.796  15.666  71.983  1.00  0.00    -0.507 S  
HETATM    5  O   UNL     1     -12.235  16.967  72.437  1.00  0.00     0.118 OA 
HETATM    6  O   UNL     1     -11.221  14.698  72.885  1.00  0.00     0.379 OA 
BRANCH   4   7
HETATM    7  N   UNL     1     -13.090  14.849  71.264  1.00  0.00    -0.354 N  
HETATM    8  H   UNL     1     -13.934  15.345  70.976  1.00  0.00     0.000 HD 
BRANCH   7   9
HETATM    9  C   UNL     1     -12.959  13.438  71.073  1.00  0.00    -0.184 A  
HETATM   10  C   UNL     1     -12.295  12.933  69.948  1.00  0.00    -0.088 A  
HETATM   11  C   UNL     1     -11.937  11.584  69.883  1.00  0.00    -0.426 A  
HETATM   12  F   UNL     1     -11.941  13.788  68.975  1.00  0.00    -0.327 F  
HETATM   13  C   UNL     1     -13.457  12.566  72.038  1.00  0.00    -0.486 A  
HETATM   14  C   UNL     1     -12.445  10.719  70.854  1.00  0.00    -0.402 A  
HETATM   15  C   UNL     1     -13.224  11.198  71.910  1.00  0.00    -0.488 A  
HETATM   16  F   UNL     1     -12.171   9.407  70.833  1.00  0.00    -0.316 F  
BRANCH  11  17
HETATM   17  C   UNL     1     -11.006  11.058  68.857  1.00  0.00    -0.227 C  
HETATM   18  O   UNL     1     -10.067  10.353  69.221  1.00  0.00    -0.209 OA 
BRANCH  17  19
HETATM   19  C   UNL     1     -11.222  11.354  67.435  1.00  0.00    -0.370 A  
HETATM   20  C   UNL     1     -12.102  12.334  66.998  1.00  0.00     0.052 A  
HETATM   21  N   UNL     1     -11.953  12.490  65.647  1.00  0.00    -0.488 NA 
HETATM   22  C   UNL     1     -11.023  11.603  65.183  1.00  0.00    -0.266 A  
HETATM   23  H   UNL     1     -12.459  13.165  65.073  1.00  0.00     0.000 HD 
HETATM   24  N   UNL     1     -10.590  11.549  63.912  1.00  0.00    -0.356 NA 
HETATM   25  C   UNL     1      -9.666  10.571  63.708  1.00  0.00    -0.326 A  
HETATM   26  C   UNL     1      -9.212   9.635  64.642  1.00  0.00    -0.293 A  
HETATM   27  C   UNL     1      -9.752   9.742  65.935  1.00  0.00    -0.332 A  
HETATM   28  C   UNL     1     -10.632  10.798  66.246  1.00  0.00    -0.257 A  
BRANCH  26  29
HETATM   29  C   UNL     1      -8.185   8.614  64.332  1.00  0.00    -0.163 A  
HETATM   30  C   UNL     1      -8.038   7.449  65.109  1.00  0.00    -0.129 A  
HETATM   31  C   UNL     1      -7.110   6.456  64.767  1.00  0.00    -0.057 A  
HETATM   32  C   UNL     1      -6.317   6.608  63.634  1.00  0.00    -0.041 A  
HETATM   33  C   UNL     1      -6.428   7.752  62.855  1.00  0.00    -0.075 A  
HETATM   34 CL   UNL     1      -5.203   5.376  63.190  1.00  0.00    -0.013 Cl 
HETATM   35  C   UNL     1      -7.346   8.747  63.208  1.00  0.00    -0.100 A  
ENDBRANCH  26  29
ENDBRANCH  17  19
ENDBRANCH  11  17
ENDBRANCH   7   9
ENDBRANCH   4   7
ENDBRANCH   3   4
ENDBRANCH   2   3
TORSDOF 7
ENDMDL
MODEL      210
REMARK 921   NORMALIZED FREE ENERGY PREDICTED BY IDOCK:   -2.02 KCAL/MOL
REMARK 922        TOTAL FREE ENERGY PREDICTED BY IDOCK:   -4.60 KCAL/MOL
REMARK 923 INTER-LIGAND FREE ENERGY PREDICTED BY IDOCK:   -4.01 KCAL/MOL
REMARK 924 INTRA-LIGAND FREE ENERGY PREDICTED BY IDOCK:   -0.59 KCAL/MOL
REMARK 927      BINDING AFFINITY PREDICTED BY RF-SCORE:    0.00 PKD
ROOT
HETATM    1  C   UNL     1      -7.257   5.832  63.352  1.00  0.00    -0.057 C  
HETATM    2  C   UNL     1      -6.158   6.116  64.364  1.00  0.00    -0.029 C  
ENDROOT
BRANCH   2   3
HETATM    3  C   UNL     1      -6.572   7.193  65.362  1.00  0.00    -0.047 C  
BRANCH   3   4
HETATM    4  S   UNL     1      -8.270   6.956  65.894  1.00  0.00    -0.134 S  
HETATM    5  O   UNL     1      -8.331   6.984  67.338  1.00  0.00    -0.121 OA 
HETATM    6  O   UNL     1      -8.844   5.877  65.126  1.00  0.00    -0.097 OA 
BRANCH   4   7
HETATM    7  N   UNL     1      -9.000   8.347  65.267  1.00  0.00    -0.397 N  
HETATM    8  H   UNL     1      -9.134   8.467  64.263  1.00  0.00     0.000 HD 
BRANCH   7   9
HETATM    9  C   UNL     1      -9.422   9.349  66.196  1.00  0.00    -0.226 A  
HETATM   10  C   UNL     1      -8.539  10.360  66.599  1.00  0.00    -0.125 A  
HETATM   11  C   UNL     1      -9.011  11.476  67.293  1.00  0.00    -0.162 A  
HETATM   12  F   UNL     1      -7.250  10.268  66.235  1.00  0.00    -0.095 F  
HETATM   13  C   UNL     1     -10.734   9.342  66.663  1.00  0.00    -0.076 A  
HETATM   14  C   UNL     1     -10.327  11.457  67.760  1.00  0.00    -0.182 A  
HETATM   15  C   UNL     1     -11.177  10.386  67.474  1.00  0.00    -0.254 A  
HETATM   16  F   UNL     1     -10.834  12.479  68.463  1.00  0.00    -0.219 F  
BRANCH  11  17
HETATM   17  C   UNL     1      -8.184  12.688  67.503  1.00  0.00    -0.178 C  
HETATM   18  O   UNL     1      -8.434  13.693  66.841  1.00  0.00    -0.164 OA 
BRANCH  17  19
HETATM   19  C   UNL     1      -7.108  12.691  68.501  1.00  0.00    -0.101 A  
HETATM   20  C   UNL     1      -6.308  13.802  68.738  1.00  0.00    -0.092 A  
HETATM   21  N   UNL     1      -5.524  13.555  69.833  1.00  0.00    -0.094 NA 
HETATM   22  C   UNL     1      -5.764  12.290  70.292  1.00  0.00    -0.167 A  
HETATM   23  H   UNL     1      -4.862  14.213  70.243  1.00  0.00     0.000 HD 
HETATM   24  N   UNL     1      -5.211  11.765  71.399  1.00  0.00    -0.312 NA 
HETATM   25  C   UNL     1      -5.610  10.485  71.634  1.00  0.00     0.185 A  
HETATM   26  C   UNL     1      -6.443   9.702  70.829  1.00  0.00    -0.104 A  
HETATM   27  C   UNL     1      -6.940  10.322  69.669  1.00  0.00    -0.114 A  
HETATM   28  C   UNL     1      -6.656  11.680  69.419  1.00  0.00    -0.115 A  
BRANCH  26  29
HETATM   29  C   UNL     1      -6.838   8.318  71.177  1.00  0.00    -0.052 A  
HETATM   30  C   UNL     1      -8.115   7.811  70.867  1.00  0.00    -0.102 A  
HETATM   31  C   UNL     1      -8.455   6.479  71.139  1.00  0.00    -0.126 A  
HETATM   32  C   UNL     1      -7.520   5.627  71.718  1.00  0.00    -0.094 A  
HETATM   33  C   UNL     1      -6.257   6.101  72.048  1.00  0.00    -0.042 A  
HETATM   34 CL   UNL     1      -7.921   3.983  72.019  1.00  0.00    -0.082 Cl 
HETATM   35  C   UNL     1      -5.926   7.435  71.788  1.00  0.00    -0.036 A  
ENDBRANCH  26  29
ENDBRANCH  17  19
ENDBRANCH  11  17
ENDBRANCH   7   9
ENDBRANCH   4   7
ENDBRANCH   3   4
ENDBRANCH   2   3
TORSDOF 7
ENDMDL
MODEL      211
REMARK 921   NORMALIZED FREE ENERGY PREDICTED BY IDOCK:   -1.89 KCAL/MOL
REMARK 922        TOTAL FREE ENERGY PREDICTED BY IDOCK:   -4.42 KCAL/MOL
REMARK 923 INTER-LIGAND FREE ENERGY PREDICTED BY IDOCK:   -4.87 KCAL/MOL
REMARK 924 INTRA-LIGAND FREE ENERGY PREDICTED BY IDOCK:    0.45 KCAL/MOL
REMARK 927      BINDING AFFINITY PREDICTED BY RF-SCORE:    0.00 PKD
ROOT
HETATM    1  C   UNL     1     -13.564  13.440  71.966  1.00  0.00    -0.577 C  
HETATM    2  C   UNL     1     -12.370  13.207  71.053  1.00  0.00    -0.355 C  
ENDROOT
BRANCH   2   3
HETATM    3  C   UNL     1     -12.661  12.142  70.000  1.00  0.00     0.155 C  
BRANCH   3   4
HETATM    4  S   UNL     1     -11.495  12.252  68.640  1.00  0.00    -0.332 S  
HETATM    5  O   UNL     1     -10.875  13.558  68.641  1.00  0.00    -0.248 OA 
HETATM    6  O   UNL     1     -12.116  11.702  67.458  1.00  0.00    -0.611 OA 
BRANCH   4   7
HETATM    7  N   UNL     1     -10.360  11.084  69.095  1.00  0.00    -0.300 N  
HETATM    8  H   UNL     1      -9.377  11.325  69.224  1.00  0.00     0.000 HD 
BRANCH   7   9
HETATM    9  C   UNL     1     -10.827   9.747  69.293  1.00  0.00    -0.216 A  
HETATM   10  C   UNL     1     -10.680   8.787  68.284  1.00  0.00    -0.067 A  
HETATM   11  C   UNL     1     -10.893   7.434  68.557  1.00  0.00    -0.071 A  
HETATM   12  F   UNL     1     -10.253   9.188  67.075  1.00  0.00    -0.248 F  
HETATM   13  C   UNL     1     -11.391   9.392  70.516  1.00  0.00    -0.328 A  
HETATM   14  C   UNL     1     -11.462   7.089  69.785  1.00  0.00    -0.130 A  
HETATM   15  C   UNL     1     -11.738   8.061  70.749  1.00  0.00    -0.215 A  
HETATM   16  F   UNL     1     -11.726   5.813  70.099  1.00  0.00    -0.287 F  
BRANCH  11  17
HETATM   17  C   UNL     1     -10.492   6.361  67.616  1.00  0.00    -0.228 C  
HETATM   18  O   UNL     1     -11.190   5.353  67.542  1.00  0.00     0.351 OA 
BRANCH  17  19
HETATM   19  C   UNL     1      -9.299   6.517  66.774  1.00  0.00    -0.179 A  
HETATM   20  C   UNL     1      -9.082   5.755  65.634  1.00  0.00    -0.071 A  
HETATM   21  N   UNL     1      -7.987   6.248  64.977  1.00  0.00    -0.115 NA 
HETATM   22  C   UNL     1      -7.459   7.291  65.684  1.00  0.00    -0.085 A  
HETATM   23  H   UNL     1      -7.621   5.891  64.094  1.00  0.00     0.000 HD 
HETATM   24  N   UNL     1      -6.423   8.043  65.273  1.00  0.00    -0.048 NA 
HETATM   25  C   UNL     1      -6.088   9.015  66.163  1.00  0.00    -0.059 A  
HETATM   26  C   UNL     1      -6.655   9.235  67.422  1.00  0.00    -0.064 A  
HETATM   27  C   UNL     1      -7.705   8.372  67.785  1.00  0.00    -0.103 A  
HETATM   28  C   UNL     1      -8.177   7.412  66.867  1.00  0.00    -0.121 A  
BRANCH  26  29
HETATM   29  C   UNL     1      -6.235  10.335  68.320  1.00  0.00    -0.048 A  
HETATM   30  C   UNL     1      -5.487  11.432  67.851  1.00  0.00    -0.044 A  
HETATM   31  C   UNL     1      -5.154  12.501  68.693  1.00  0.00    -0.056 A  
HETATM   32  C   UNL     1      -5.570  12.495  70.021  1.00  0.00    -0.128 A  
HETATM   33  C   UNL     1      -6.297  11.421  70.518  1.00  0.00     0.170 A  
HETATM   34 CL   UNL     1      -5.195  13.821  71.048  1.00  0.00    -0.130 Cl 
HETATM   35  C   UNL     1      -6.616  10.350  69.677  1.00  0.00    -0.085 A  
ENDBRANCH  26  29
ENDBRANCH  17  19
ENDBRANCH  11  17
ENDBRANCH   7   9
ENDBRANCH   4   7
ENDBRANCH   3   4
ENDBRANCH   2   3
TORSDOF 7
ENDMDL
MODEL      212
REMARK 921   NORMALIZED FREE ENERGY PREDICTED BY IDOCK:   -1.70 KCAL/MOL
REMARK 922        TOTAL FREE ENERGY PREDICTED BY IDOCK:   -4.14 KCAL/MOL
REMARK 923 INTER-LIGAND FREE ENERGY PREDICTED BY IDOCK:   -5.76 KCAL/MOL
REMARK 924 INTRA-LIGAND FREE ENERGY PREDICTED BY IDOCK:    1.61 KCAL/MOL
REMARK 927      BINDING AFFINITY PREDICTED BY RF-SCORE:    0.00 PKD
ROOT
HETATM    1  C   UNL     1      -6.590  18.858  65.389  1.00  0.00    -0.288 C  
HETATM    2  C   UNL     1      -7.189  18.018  66.505  1.00  0.00    -0.270 C  
ENDROOT
BRANCH   2   3
HETATM    3  C   UNL     1      -8.636  18.408  66.793  1.00  0.00    -0.276 C  
BRANCH   3   4
HETATM    4  S   UNL     1      -9.642  16.953  67.100  1.00  0.00    -0.251 S  
HETATM    5  O   UNL     1      -9.493  16.025  66.003  1.00  0.00    -0.307 OA 
HETATM    6  O   UNL     1     -10.939  17.383  67.566  1.00  0.00    -0.256 OA 
BRANCH   4   7
HETATM    7  N   UNL     1      -8.889  16.328  68.480  1.00  0.00    -0.209 N  
HETATM    8  H   UNL     1      -8.948  16.808  69.377  1.00  0.00     0.000 HD 
BRANCH   7   9
HETATM    9  C   UNL     1      -8.167  15.101  68.341  1.00  0.00    -0.145 A  
HETATM   10  C   UNL     1      -8.774  13.880  68.660  1.00  0.00    -0.075 A  
HETATM   11  C   UNL     1      -8.177  12.674  68.288  1.00  0.00    -0.164 A  
HETATM   12  F   UNL     1      -9.977  13.899  69.257  1.00  0.00    -0.112 F  
HETATM   13  C   UNL     1      -6.866  15.124  67.844  1.00  0.00    -0.171 A  
HETATM   14  C   UNL     1      -6.872  12.708  67.793  1.00  0.00    -0.128 A  
HETATM   15  C   UNL     1      -6.206  13.920  67.598  1.00  0.00    -0.109 A  
HETATM   16  F   UNL     1      -6.226  11.585  67.449  1.00  0.00    -0.058 F  
BRANCH  11  17
HETATM   17  C   UNL     1      -8.895  11.379  68.353  1.00  0.00    -0.167 C  
HETATM   18  O   UNL     1      -8.309  10.362  67.989  1.00  0.00    -0.116 OA 
BRANCH  17  19
HETATM   19  C   UNL     1     -10.269  11.314  68.869  1.00  0.00    -0.195 A  
HETATM   20  C   UNL     1     -11.244  12.238  68.519  1.00  0.00    -0.271 A  
HETATM   21  N   UNL     1     -12.448  11.816  69.014  1.00  0.00    -0.085 NA 
HETATM   22  C   UNL     1     -12.274  10.656  69.716  1.00  0.00    -0.247 A  
HETATM   23  H   UNL     1     -13.339  12.293  68.881  1.00  0.00     0.000 HD 
HETATM   24  N   UNL     1     -13.271   9.942  70.266  1.00  0.00     0.154 NA 
HETATM   25  C   UNL     1     -12.831   8.830  70.916  1.00  0.00     0.122 A  
HETATM   26  C   UNL     1     -11.502   8.435  71.102  1.00  0.00    -0.314 A  
HETATM   27  C   UNL     1     -10.525   9.268  70.528  1.00  0.00    -0.312 A  
HETATM   28  C   UNL     1     -10.914  10.376  69.748  1.00  0.00    -0.345 A  
BRANCH  26  29
HETATM   29  C   UNL     1     -11.118   7.194  71.812  1.00  0.00    -0.267 A  
HETATM   30  C   UNL     1     -12.012   6.118  71.963  1.00  0.00    -0.310 A  
HETATM   31  C   UNL     1     -11.616   4.921  72.575  1.00  0.00     0.058 A  
HETATM   32  C   UNL     1     -10.313   4.777  73.040  1.00  0.00    -0.184 A  
HETATM   33  C   UNL     1      -9.410   5.825  72.918  1.00  0.00    -0.146 A  
HETATM   34 CL   UNL     1      -9.812   3.297  73.758  1.00  0.00    -0.144 Cl 
HETATM   35  C   UNL     1      -9.814   7.023  72.319  1.00  0.00    -0.170 A  
ENDBRANCH  26  29
ENDBRANCH  17  19
ENDBRANCH  11  17
ENDBRANCH   7   9
ENDBRANCH   4   7
ENDBRANCH   3   4
ENDBRANCH   2   3
TORSDOF 7
ENDMDL
MODEL      213
REMARK 921   NORMALIZED FREE ENERGY PREDICTED BY IDOCK:   -1.39 KCAL/MOL
REMARK 922        TOTAL FREE ENERGY PREDICTED BY IDOCK:   -3.71 KCAL/MOL
REMARK 923 INTER-LIGAND FREE ENERGY PREDICTED BY IDOCK:   -4.04 KCAL/MOL
REMARK 924 INTRA-LIGAND FREE ENERGY PREDICTED BY IDOCK:    0.33 KCAL/MOL
REMARK 927      BINDING AFFINITY PREDICTED BY RF-SCORE:    0.00 PKD
ROOT
HETATM    1  C   UNL     1      -7.307   5.348  63.731  1.00  0.00    -0.053 C  
HETATM    2  C   UNL     1      -6.238   5.636  64.773  1.00  0.00    -0.025 C  
ENDROOT
BRANCH   2   3
HETATM    3  C   UNL     1      -6.713   6.652  65.807  1.00  0.00    -0.048 C  
BRANCH   3   4
HETATM    4  S   UNL     1      -8.484   6.522  66.065  1.00  0.00    -0.148 S  
HETATM    5  O   UNL     1      -8.760   6.443  67.482  1.00  0.00    -0.115 OA 
HETATM    6  O   UNL     1      -9.015   5.559  65.130  1.00  0.00    -0.129 OA 
BRANCH   4   7
HETATM    7  N   UNL     1      -9.006   8.016  65.467  1.00  0.00    -0.377 N  
HETATM    8  H   UNL     1      -9.107   8.177  64.465  1.00  0.00     0.000 HD 
BRANCH   7   9
HETATM    9  C   UNL     1      -9.299   9.043  66.417  1.00  0.00    -0.206 A  
HETATM   10  C   UNL     1      -8.274   9.621  67.177  1.00  0.00    -0.120 A  
HETATM   11  C   UNL     1      -8.506  10.788  67.909  1.00  0.00    -0.122 A  
HETATM   12  F   UNL     1      -7.049   9.074  67.122  1.00  0.00    -0.075 F  
HETATM   13  C   UNL     1     -10.608   9.501  66.550  1.00  0.00    -0.133 A  
HETATM   14  C   UNL     1      -9.823  11.235  68.039  1.00  0.00    -0.178 A  
HETATM   15  C   UNL     1     -10.873  10.582  67.389  1.00  0.00    -0.349 A  
HETATM   16  F   UNL     1     -10.121  12.328  68.755  1.00  0.00    -0.213 F  
BRANCH  11  17
HETATM   17  C   UNL     1      -7.407  11.585  68.503  1.00  0.00    -0.104 C  
HETATM   18  O   UNL     1      -7.134  12.674  68.003  1.00  0.00    -0.082 OA 
BRANCH  17  19
HETATM   19  C   UNL     1      -6.680  11.090  69.679  1.00  0.00    -0.137 A  
HETATM   20  C   UNL     1      -5.472  11.632  70.096  1.00  0.00    -0.113 A  
HETATM   21  N   UNL     1      -5.137  11.084  71.305  1.00  0.00    -0.142 NA 
HETATM   22  C   UNL     1      -6.081  10.166  71.668  1.00  0.00     0.373 A  
HETATM   23  H   UNL     1      -4.310  11.325  71.851  1.00  0.00     0.000 HD 
HETATM   24  N   UNL     1      -6.088   9.503  72.838  1.00  0.00    -0.263 NA 
HETATM   25  C   UNL     1      -7.133   8.640  72.953  1.00  0.00     0.065 A  
HETATM   26  C   UNL     1      -8.100   8.357  71.983  1.00  0.00    -0.194 A  
HETATM   27  C   UNL     1      -7.988   9.067  70.775  1.00  0.00    -0.172 A  
HETATM   28  C   UNL     1      -6.994  10.056  70.628  1.00  0.00    -0.031 A  
BRANCH  26  29
HETATM   29  C   UNL     1      -9.218   7.411  72.205  1.00  0.00    -0.162 A  
HETATM   30  C   UNL     1      -9.495   6.365  71.304  1.00  0.00    -0.175 A  
HETATM   31  C   UNL     1     -10.511   5.434  71.559  1.00  0.00    -0.289 A  
HETATM   32  C   UNL     1     -11.263   5.528  72.725  1.00  0.00    -0.305 A  
HETATM   33  C   UNL     1     -11.022   6.556  73.628  1.00  0.00    -0.021 A  
HETATM   34 CL   UNL     1     -12.485   4.366  73.059  1.00  0.00     0.381 Cl 
HETATM   35  C   UNL     1     -10.017   7.491  73.363  1.00  0.00    -0.378 A  
ENDBRANCH  26  29
ENDBRANCH  17  19
ENDBRANCH  11  17
ENDBRANCH   7   9
ENDBRANCH   4   7
ENDBRANCH   3   4
ENDBRANCH   2   3
TORSDOF 7
ENDMDL
MODEL      214
REMARK 921   NORMALIZED FREE ENERGY PREDICTED BY IDOCK:   -1.32 KCAL/MOL
REMARK 922        TOTAL FREE ENERGY PREDICTED BY IDOCK:   -3.62 KCAL/MOL
REMARK 923 INTER-LIGAND FREE ENERGY PREDICTED BY IDOCK:   -3.95 KCAL/MOL
REMARK 924 INTRA-LIGAND FREE ENERGY PREDICTED BY IDOCK:    0.33 KCAL/MOL
REMARK 927      BINDING AFFINITY PREDICTED BY RF-SCORE:    0.00 PKD
ROOT
HETATM    1  C   UNL     1      -8.631  14.615  67.352  1.00  0.00    -0.212 C  
HETATM    2  C   UNL     1     -10.086  14.976  67.101  1.00  0.00    -0.239 C  
ENDROOT
BRANCH   2   3
HETATM    3  C   UNL     1     -10.932  13.742  66.802  1.00  0.00    -0.304 C  
BRANCH   3   4
HETATM    4  S   UNL     1      -9.923  12.421  66.126  1.00  0.00    -0.255 S  
HETATM    5  O   UNL     1      -8.555  12.873  66.008  1.00  0.00     0.378 OA 
HETATM    6  O   UNL     1     -10.629  11.827  65.016  1.00  0.00    -0.267 OA 
BRANCH   4   7
HETATM    7  N   UNL     1     -10.037  11.268  67.358  1.00  0.00    -0.185 N  
HETATM    8  H   UNL     1     -10.788  11.304  68.047  1.00  0.00     0.000 HD 
BRANCH   7   9
HETATM    9  C   UNL     1      -9.041  10.242  67.399  1.00  0.00    -0.138 A  
HETATM   10  C   UNL     1      -9.155   9.110  66.582  1.00  0.00    -0.148 A  
HETATM   11  C   UNL     1      -8.074   8.239  66.425  1.00  0.00    -0.105 A  
HETATM   12  F   UNL     1     -10.294   8.927  65.895  1.00  0.00    -0.322 F  
HETATM   13  C   UNL     1      -7.931  10.397  68.226  1.00  0.00    -0.111 A  
HETATM   14  C   UNL     1      -6.968   8.401  67.261  1.00  0.00    -0.075 A  
HETATM   15  C   UNL     1      -6.905   9.454  68.177  1.00  0.00    -0.064 A  
HETATM   16  F   UNL     1      -5.911   7.580  67.188  1.00  0.00    -0.027 F  
BRANCH  11  17
HETATM   17  C   UNL     1      -8.044   7.193  65.376  1.00  0.00    -0.137 C  
HETATM   18  O   UNL     1      -8.353   7.502  64.227  1.00  0.00    -0.046 OA 
BRANCH  17  19
HETATM   19  C   UNL     1      -7.627   5.823  65.703  1.00  0.00    -0.086 A  
HETATM   20  C   UNL     1      -6.879   5.040  64.834  1.00  0.00    -0.049 A  
HETATM   21  N   UNL     1      -6.504   3.896  65.485  1.00  0.00    -0.032 NA 
HETATM   22  C   UNL     1      -7.027   3.895  66.748  1.00  0.00    -0.059 A  
HETATM   23  H   UNL     1      -5.924   3.157  65.089  1.00  0.00     0.000 HD 
HETATM   24  N   UNL     1      -6.784   2.948  67.671  1.00  0.00    -0.040 NA 
HETATM   25  C   UNL     1      -7.429   3.177  68.847  1.00  0.00    -0.048 A  
HETATM   26  C   UNL     1      -8.322   4.216  69.128  1.00  0.00    -0.086 A  
HETATM   27  C   UNL     1      -8.547   5.134  68.087  1.00  0.00    -0.102 A  
HETATM   28  C   UNL     1      -7.829   5.021  66.879  1.00  0.00    -0.096 A  
BRANCH  26  29
HETATM   29  C   UNL     1      -8.966   4.396  70.449  1.00  0.00    -0.145 A  
HETATM   30  C   UNL     1      -8.479   3.758  71.606  1.00  0.00    -0.097 A  
HETATM   31  C   UNL     1      -9.054   3.990  72.863  1.00  0.00    -0.122 A  
HETATM   32  C   UNL     1     -10.123   4.871  72.986  1.00  0.00    -0.163 A  
HETATM   33  C   UNL     1     -10.636   5.505  71.861  1.00  0.00    -0.293 A  
HETATM   34 CL   UNL     1     -10.808   5.186  74.531  1.00  0.00     0.039 Cl 
HETATM   35  C   UNL     1     -10.068   5.260  70.607  1.00  0.00    -0.310 A  
ENDBRANCH  26  29
ENDBRANCH  17  19
ENDBRANCH  11  17
ENDBRANCH   7   9
ENDBRANCH   4   7
ENDBRANCH   3   4
ENDBRANCH   2   3
TORSDOF 7
ENDMDL
MODEL      215
REMARK 921   NORMALIZED FREE ENERGY PREDICTED BY IDOCK:   -1.27 KCAL/MOL
REMARK 922        TOTAL FREE ENERGY PREDICTED BY IDOCK:   -3.54 KCAL/MOL
REMARK 923 INTER-LIGAND FREE ENERGY PREDICTED BY IDOCK:   -3.66 KCAL/MOL
REMARK 924 INTRA-LIGAND FREE ENERGY PREDICTED BY IDOCK:    0.12 KCAL/MOL
REMARK 927      BINDING AFFINITY PREDICTED BY RF-SCORE:    0.00 PKD
ROOT
HETATM    1  C   UNL     1      -5.558  16.136  67.118  1.00  0.00    -0.008 C  
HETATM    2  C   UNL     1      -6.374  16.915  68.136  1.00  0.00    -0.143 C  
ENDROOT
BRANCH   2   3
HETATM    3  C   UNL     1      -7.461  16.052  68.771  1.00  0.00    -0.176 C  
BRANCH   3   4
HETATM    4  S   UNL     1      -6.837  14.414  69.154  1.00  0.00    -0.125 S  
HETATM    5  O   UNL     1      -6.391  14.378  70.528  1.00  0.00    -0.182 OA 
HETATM    6  O   UNL     1      -5.994  13.978  68.066  1.00  0.00    -0.119 OA 
BRANCH   4   7
HETATM    7  N   UNL     1      -8.243  13.488  68.988  1.00  0.00    -0.332 N  
HETATM    8  H   UNL     1      -9.137  13.817  69.351  1.00  0.00     0.000 HD 
BRANCH   7   9
HETATM    9  C   UNL     1      -8.131  12.228  68.322  1.00  0.00    -0.166 A  
HETATM   10  C   UNL     1      -7.505  11.145  68.953  1.00  0.00    -0.125 A  
HETATM   11  C   UNL     1      -7.618   9.856  68.426  1.00  0.00    -0.083 A  
HETATM   12  F   UNL     1      -6.864  11.361  70.113  1.00  0.00    -0.126 F  
HETATM   13  C   UNL     1      -8.690  12.069  67.057  1.00  0.00    -0.188 A  
HETATM   14  C   UNL     1      -8.178   9.709  67.155  1.00  0.00    -0.120 A  
HETATM   15  C   UNL     1      -8.685  10.809  66.459  1.00  0.00    -0.154 A  
HETATM   16  F   UNL     1      -8.286   8.506  66.574  1.00  0.00    -0.101 F  
BRANCH  11  17
HETATM   17  C   UNL     1      -7.215   8.649  69.185  1.00  0.00    -0.064 C  
HETATM   18  O   UNL     1      -6.075   8.596  69.643  1.00  0.00    -0.032 OA 
BRANCH  17  19
HETATM   19  C   UNL     1      -8.169   7.555  69.406  1.00  0.00    -0.130 A  
HETATM   20  C   UNL     1      -9.137   7.594  70.400  1.00  0.00    -0.152 A  
HETATM   21  N   UNL     1      -9.974   6.522  70.242  1.00  0.00    -0.174 NA 
HETATM   22  C   UNL     1      -9.549   5.760  69.191  1.00  0.00    -0.135 A  
HETATM   23  H   UNL     1     -10.789   6.322  70.821  1.00  0.00     0.000 HD 
HETATM   24  N   UNL     1     -10.195   4.677  68.726  1.00  0.00    -0.019 NA 
HETATM   25  C   UNL     1      -9.560   4.092  67.674  1.00  0.00    -0.159 A  
HETATM   26  C   UNL     1      -8.332   4.466  67.119  1.00  0.00    -0.101 A  
HETATM   27  C   UNL     1      -7.708   5.585  67.699  1.00  0.00    -0.093 A  
HETATM   28  C   UNL     1      -8.361   6.305  68.720  1.00  0.00    -0.120 A  
BRANCH  26  29
HETATM   29  C   UNL     1      -7.723   3.777  65.957  1.00  0.00    -0.089 A  
HETATM   30  C   UNL     1      -6.568   4.272  65.323  1.00  0.00    -0.047 A  
HETATM   31  C   UNL     1      -5.961   3.575  64.269  1.00  0.00    -0.018 A  
HETATM   32  C   UNL     1      -6.496   2.367  63.836  1.00  0.00    -0.022 A  
HETATM   33  C   UNL     1      -7.643   1.859  64.432  1.00  0.00    -0.060 A  
HETATM   34 CL   UNL     1      -5.734   1.492  62.568  1.00  0.00    -0.007 Cl 
HETATM   35  C   UNL     1      -8.254   2.564  65.474  1.00  0.00    -0.086 A  
ENDBRANCH  26  29
ENDBRANCH  17  19
ENDBRANCH  11  17
ENDBRANCH   7   9
ENDBRANCH   4   7
ENDBRANCH   3   4
ENDBRANCH   2   3
TORSDOF 7
ENDMDL
MODEL      216
REMARK 921   NORMALIZED FREE ENERGY PREDICTED BY IDOCK:   -1.20 KCAL/MOL
REMARK 922        TOTAL FREE ENERGY PREDICTED BY IDOCK:   -3.44 KCAL/MOL
REMARK 923 INTER-LIGAND FREE ENERGY PREDICTED BY IDOCK:   -3.90 KCAL/MOL
REMARK 924 INTRA-LIGAND FREE ENERGY PREDICTED BY IDOCK:    0.46 KCAL/MOL
REMARK 927      BINDING AFFINITY PREDICTED BY RF-SCORE:    0.00 PKD
ROOT
HETATM    1  C   UNL     1      -8.663  14.812  71.254  1.00  0.00     3.776 C  
HETATM    2  C   UNL     1      -8.664  15.076  69.756  1.00  0.00     0.120 C  
ENDROOT
BRANCH   2   3
HETATM    3  C   UNL     1      -7.405  15.813  69.310  1.00  0.00    -0.216 C  
BRANCH   3   4
HETATM    4  S   UNL     1      -6.316  14.722  68.391  1.00  0.00    -0.113 S  
HETATM    5  O   UNL     1      -7.085  13.636  67.828  1.00  0.00    -0.129 OA 
HETATM    6  O   UNL     1      -5.129  14.489  69.180  1.00  0.00    -0.080 OA 
BRANCH   4   7
HETATM    7  N   UNL     1      -5.798  15.752  67.154  1.00  0.00     0.078 N  
HETATM    8  H   UNL     1      -4.859  15.678  66.763  1.00  0.00     0.000 HD 
BRANCH   7   9
HETATM    9  C   UNL     1      -6.725  16.731  66.676  1.00  0.00    -0.206 A  
HETATM   10  C   UNL     1      -8.088  16.426  66.572  1.00  0.00    -0.310 A  
HETATM   11  C   UNL     1      -9.026  17.439  66.357  1.00  0.00    -0.274 A  
HETATM   12  F   UNL     1      -8.477  15.155  66.763  1.00  0.00    -0.231 F  
HETATM   13  C   UNL     1      -6.270  18.007  66.355  1.00  0.00    -0.236 A  
HETATM   14  C   UNL     1      -8.558  18.714  66.033  1.00  0.00    -0.001 A  
HETATM   15  C   UNL     1      -7.190  18.994  66.003  1.00  0.00    -0.295 A  
HETATM   16  F   UNL     1      -9.403  19.724  65.781  1.00  0.00    -0.375 F  
BRANCH  11  17
HETATM   17  C   UNL     1     -10.483  17.217  66.510  1.00  0.00    -0.255 C  
HETATM   18  O   UNL     1     -11.115  17.953  67.264  1.00  0.00    -0.144 OA 
BRANCH  17  19
HETATM   19  C   UNL     1     -11.158  16.155  65.752  1.00  0.00     0.014 A  
HETATM   20  C   UNL     1     -11.613  16.335  64.453  1.00  0.00    -0.056 A  
HETATM   21  N   UNL     1     -12.033  15.128  63.962  1.00  0.00    -0.913 NA 
HETATM   22  C   UNL     1     -11.900  14.170  64.926  1.00  0.00    -0.402 A  
HETATM   23  H   UNL     1     -12.390  14.968  63.020  1.00  0.00     0.000 HD 
HETATM   24  N   UNL     1     -12.153  12.863  64.741  1.00  0.00    -0.396 NA 
HETATM   25  C   UNL     1     -11.947  12.119  65.862  1.00  0.00    -0.177 A  
HETATM   26  C   UNL     1     -11.583  12.588  67.128  1.00  0.00    -0.437 A  
HETATM   27  C   UNL     1     -11.381  13.975  67.237  1.00  0.00    -0.350 A  
HETATM   28  C   UNL     1     -11.470  14.793  66.092  1.00  0.00    -0.311 A  
BRANCH  26  29
HETATM   29  C   UNL     1     -11.364  11.697  68.290  1.00  0.00    -0.348 A  
HETATM   30  C   UNL     1     -12.398  11.391  69.196  1.00  0.00    -0.097 A  
HETATM   31  C   UNL     1     -12.198  10.492  70.253  1.00  0.00    -0.393 A  
HETATM   32  C   UNL     1     -10.961   9.877  70.417  1.00  0.00    -0.318 A  
HETATM   33  C   UNL     1      -9.917  10.170  69.549  1.00  0.00    -0.257 A  
HETATM   34 CL   UNL     1     -10.723   8.747  71.691  1.00  0.00    -0.369 Cl 
HETATM   35  C   UNL     1     -10.117  11.078  68.504  1.00  0.00    -0.198 A  
ENDBRANCH  26  29
ENDBRANCH  17  19
ENDBRANCH  11  17
ENDBRANCH   7   9
ENDBRANCH   4   7
ENDBRANCH   3   4
ENDBRANCH   2   3
TORSDOF 7
ENDMDL
MODEL      217
REMARK 921   NORMALIZED FREE ENERGY PREDICTED BY IDOCK:   -1.12 KCAL/MOL
REMARK 922        TOTAL FREE ENERGY PREDICTED BY IDOCK:   -3.33 KCAL/MOL
REMARK 923 INTER-LIGAND FREE ENERGY PREDICTED BY IDOCK:   -3.45 KCAL/MOL
REMARK 924 INTRA-LIGAND FREE ENERGY PREDICTED BY IDOCK:    0.12 KCAL/MOL
REMARK 927      BINDING AFFINITY PREDICTED BY RF-SCORE:    0.00 PKD
ROOT
HETATM    1  C   UNL     1     -10.955  14.857  70.719  1.00  0.00    -0.088 C  
HETATM    2  C   UNL     1     -11.157  15.876  69.609  1.00  0.00    -0.320 C  
ENDROOT
BRANCH   2   3
HETATM    3  C   UNL     1     -10.743  15.324  68.249  1.00  0.00    -0.254 C  
BRANCH   3   4
HETATM    4  S   UNL     1      -9.996  16.604  67.237  1.00  0.00    -0.277 S  
HETATM    5  O   UNL     1      -9.497  17.660  68.089  1.00  0.00    -0.268 OA 
HETATM    6  O   UNL     1     -10.870  16.873  66.120  1.00  0.00    -0.159 OA 
BRANCH   4   7
HETATM    7  N   UNL     1      -8.698  15.760  66.558  1.00  0.00    -0.293 N  
HETATM    8  H   UNL     1      -7.901  16.253  66.155  1.00  0.00     0.000 HD 
BRANCH   7   9
HETATM    9  C   UNL     1      -8.758  14.332  66.569  1.00  0.00     0.023 A  
HETATM   10  C   UNL     1      -7.610  13.575  66.837  1.00  0.00     0.438 A  
HETATM   11  C   UNL     1      -7.709  12.208  67.104  1.00  0.00    -0.151 A  
HETATM   12  F   UNL     1      -6.428  14.208  66.911  1.00  0.00     0.227 F  
HETATM   13  C   UNL     1      -9.978  13.695  66.356  1.00  0.00    -0.299 A  
HETATM   14  C   UNL     1      -8.936  11.579  66.884  1.00  0.00    -0.179 A  
HETATM   15  C   UNL     1     -10.058  12.309  66.484  1.00  0.00    -0.232 A  
HETATM   16  F   UNL     1      -9.093  10.263  67.086  1.00  0.00    -0.139 F  
BRANCH  11  17
HETATM   17  C   UNL     1      -6.580  11.422  67.656  1.00  0.00    -0.074 C  
HETATM   18  O   UNL     1      -5.467  11.560  67.154  1.00  0.00    -0.066 OA 
BRANCH  17  19
HETATM   19  C   UNL     1      -6.787  10.520  68.796  1.00  0.00    -0.060 A  
HETATM   20  C   UNL     1      -6.868  10.975  70.106  1.00  0.00     0.064 A  
HETATM   21  N   UNL     1      -7.236   9.931  70.912  1.00  0.00    -0.319 NA 
HETATM   22  C   UNL     1      -7.357   8.795  70.163  1.00  0.00    -0.055 A  
HETATM   23  H   UNL     1      -7.394   9.992  71.917  1.00  0.00     0.000 HD 
HETATM   24  N   UNL     1      -7.778   7.610  70.640  1.00  0.00    -0.087 NA 
HETATM   25  C   UNL     1      -7.804   6.636  69.691  1.00  0.00    -0.115 A  
HETATM   26  C   UNL     1      -7.389   6.746  68.360  1.00  0.00    -0.087 A  
HETATM   27  C   UNL     1      -6.924   8.012  67.962  1.00  0.00    -0.074 A  
HETATM   28  C   UNL     1      -6.971   9.096  68.863  1.00  0.00    -0.064 A  
BRANCH  26  29
HETATM   29  C   UNL     1      -7.472   5.631  67.390  1.00  0.00    -0.084 A  
HETATM   30  C   UNL     1      -8.144   5.764  66.160  1.00  0.00    -0.108 A  
HETATM   31  C   UNL     1      -8.157   4.725  65.220  1.00  0.00    -0.105 A  
HETATM   32  C   UNL     1      -7.490   3.535  65.490  1.00  0.00    -0.077 A  
HETATM   33  C   UNL     1      -6.829   3.367  66.701  1.00  0.00    -0.053 A  
HETATM   34 CL   UNL     1      -7.473   2.272  64.325  1.00  0.00    -0.058 Cl 
HETATM   35  C   UNL     1      -6.831   4.401  67.642  1.00  0.00    -0.055 A  
ENDBRANCH  26  29
ENDBRANCH  17  19
ENDBRANCH  11  17
ENDBRANCH   7   9
ENDBRANCH   4   7
ENDBRANCH   3   4
ENDBRANCH   2   3
TORSDOF 7
ENDMDL
MODEL      218
REMARK 921   NORMALIZED FREE ENERGY PREDICTED BY IDOCK:   -1.11 KCAL/MOL
REMARK 922        TOTAL FREE ENERGY PREDICTED BY IDOCK:   -3.32 KCAL/MOL
REMARK 923 INTER-LIGAND FREE ENERGY PREDICTED BY IDOCK:   -5.81 KCAL/MOL
REMARK 924 INTRA-LIGAND FREE ENERGY PREDICTED BY IDOCK:    2.49 KCAL/MOL
REMARK 927      BINDING AFFINITY PREDICTED BY RF-SCORE:    0.00 PKD
ROOT
HETATM    1  C   UNL     1      -9.496  20.663  66.909  1.00  0.00    -0.405 C  
HETATM    2  C   UNL     1     -10.372  19.737  67.737  1.00  0.00    -0.573 C  
ENDROOT
BRANCH   2   3
HETATM    3  C   UNL     1     -10.581  18.390  67.052  1.00  0.00    -0.366 C  
BRANCH   3   4
HETATM    4  S   UNL     1      -9.557  17.123  67.805  1.00  0.00    -0.261 S  
HETATM    5  O   UNL     1     -10.331  16.402  68.791  1.00  0.00    -0.242 OA 
HETATM    6  O   UNL     1      -8.270  17.698  68.116  1.00  0.00    -0.240 OA 
BRANCH   4   7
HETATM    7  N   UNL     1      -9.256  16.121  66.476  1.00  0.00    -0.248 N  
HETATM    8  H   UNL     1      -8.578  16.383  65.760  1.00  0.00     0.000 HD 
BRANCH   7   9
HETATM    9  C   UNL     1      -9.987  14.895  66.391  1.00  0.00    -0.275 A  
HETATM   10  C   UNL     1      -9.439  13.707  66.890  1.00  0.00    -0.262 A  
HETATM   11  C   UNL     1     -10.236  12.571  67.047  1.00  0.00    -0.231 A  
HETATM   12  F   UNL     1      -8.156  13.709  67.287  1.00  0.00    -0.158 F  
HETATM   13  C   UNL     1     -11.270  14.898  65.849  1.00  0.00    -0.328 A  
HETATM   14  C   UNL     1     -11.519  12.583  66.496  1.00  0.00    -0.362 A  
HETATM   15  C   UNL     1     -12.026  13.727  65.875  1.00  0.00    -0.433 A  
HETATM   16  F   UNL     1     -12.325  11.515  66.579  1.00  0.00     0.218 F  
BRANCH  11  17
HETATM   17  C   UNL     1      -9.787  11.385  67.814  1.00  0.00    -0.175 C  
HETATM   18  O   UNL     1     -10.636  10.628  68.279  1.00  0.00    -0.171 OA 
BRANCH  17  19
HETATM   19  C   UNL     1      -8.355  11.110  67.988  1.00  0.00    -0.134 A  
HETATM   20  C   UNL     1      -7.374  12.063  67.745  1.00  0.00    -0.113 A  
HETATM   21  N   UNL     1      -6.167  11.568  68.161  1.00  0.00    -0.045 NA 
HETATM   22  C   UNL     1      -6.331  10.296  68.632  1.00  0.00    -0.051 A  
HETATM   23  H   UNL     1      -5.281  12.072  68.125  1.00  0.00     0.000 HD 
HETATM   24  N   UNL     1      -5.354   9.557  69.185  1.00  0.00    -0.036 NA 
HETATM   25  C   UNL     1      -5.775   8.322  69.568  1.00  0.00    -0.030 A  
HETATM   26  C   UNL     1      -7.047   7.772  69.382  1.00  0.00    -0.071 A  
HETATM   27  C   UNL     1      -7.993   8.603  68.756  1.00  0.00    -0.114 A  
HETATM   28  C   UNL     1      -7.657   9.933  68.431  1.00  0.00    -0.083 A  
BRANCH  26  29
HETATM   29  C   UNL     1      -7.422   6.418  69.850  1.00  0.00    -0.088 A  
HETATM   30  C   UNL     1      -7.556   6.117  71.219  1.00  0.00    -0.094 A  
HETATM   31  C   UNL     1      -7.978   4.851  71.649  1.00  0.00    -0.111 A  
HETATM   32  C   UNL     1      -8.282   3.866  70.715  1.00  0.00    -0.066 A  
HETATM   33  C   UNL     1      -8.146   4.128  69.358  1.00  0.00    -0.063 A  
HETATM   34 CL   UNL     1      -8.835   2.324  71.237  1.00  0.00    -0.112 Cl 
HETATM   35  C   UNL     1      -7.711   5.387  68.934  1.00  0.00    -0.083 A  
ENDBRANCH  26  29
ENDBRANCH  17  19
ENDBRANCH  11  17
ENDBRANCH   7   9
ENDBRANCH   4   7
ENDBRANCH   3   4
ENDBRANCH   2   3
TORSDOF 7
ENDMDL
MODEL      219
REMARK 921   NORMALIZED FREE ENERGY PREDICTED BY IDOCK:   -0.93 KCAL/MOL
REMARK 922        TOTAL FREE ENERGY PREDICTED BY IDOCK:   -3.07 KCAL/MOL
REMARK 923 INTER-LIGAND FREE ENERGY PREDICTED BY IDOCK:   -1.95 KCAL/MOL
REMARK 924 INTRA-LIGAND FREE ENERGY PREDICTED BY IDOCK:   -1.11 KCAL/MOL
REMARK 927      BINDING AFFINITY PREDICTED BY RF-SCORE:    0.00 PKD
ROOT
HETATM    1  C   UNL     1      -6.744  14.433  73.149  1.00  0.00     2.370 C  
HETATM    2  C   UNL     1      -5.469  14.425  72.321  1.00  0.00    -0.126 C  
ENDROOT
BRANCH   2   3
HETATM    3  C   UNL     1      -5.531  15.430  71.175  1.00  0.00     0.013 C  
BRANCH   3   4
HETATM    4  S   UNL     1      -6.132  14.653  69.673  1.00  0.00    -0.132 S  
HETATM    5  O   UNL     1      -5.669  13.284  69.620  1.00  0.00    -0.093 OA 
HETATM    6  O   UNL     1      -5.938  15.567  68.573  1.00  0.00    -0.091 OA 
BRANCH   4   7
HETATM    7  N   UNL     1      -7.801  14.677  69.945  1.00  0.00    -0.388 N  
HETATM    8  H   UNL     1      -8.239  14.031  70.602  1.00  0.00     0.000 HD 
BRANCH   7   9
HETATM    9  C   UNL     1      -8.577  15.635  69.221  1.00  0.00    -0.262 A  
HETATM   10  C   UNL     1      -8.805  15.472  67.848  1.00  0.00    -0.171 A  
HETATM   11  C   UNL     1      -9.763  16.248  67.192  1.00  0.00    -0.240 A  
HETATM   12  F   UNL     1      -8.143  14.500  67.199  1.00  0.00    -0.192 F  
HETATM   13  C   UNL     1      -9.144  16.712  69.898  1.00  0.00     0.990 A  
HETATM   14  C   UNL     1     -10.322  17.327  67.880  1.00  0.00    -0.360 A  
HETATM   15  C   UNL     1      -9.996  17.578  69.215  1.00  0.00    -0.107 A  
HETATM   16  F   UNL     1     -11.221  18.135  67.300  1.00  0.00    -0.276 F  
BRANCH  11  17
HETATM   17  C   UNL     1     -10.236  15.937  65.823  1.00  0.00    -0.365 C  
HETATM   18  O   UNL     1      -9.787  16.589  64.883  1.00  0.00     0.035 OA 
BRANCH  17  19
HETATM   19  C   UNL     1     -11.200  14.853  65.597  1.00  0.00    -0.347 A  
HETATM   20  C   UNL     1     -12.572  15.037  65.701  1.00  0.00     0.412 A  
HETATM   21  N   UNL     1     -13.203  13.903  65.266  1.00  0.00    -0.721 NA 
HETATM   22  C   UNL     1     -12.272  12.965  64.919  1.00  0.00    -0.453 A  
HETATM   23  H   UNL     1     -14.213  13.776  65.211  1.00  0.00     0.000 HD 
HETATM   24  N   UNL     1     -12.561  11.767  64.382  1.00  0.00    -0.185 NA 
HETATM   25  C   UNL     1     -11.454  11.017  64.132  1.00  0.00     0.542 A  
HETATM   26  C   UNL     1     -10.129  11.346  64.435  1.00  0.00    -0.341 A  
HETATM   27  C   UNL     1      -9.927  12.602  65.034  1.00  0.00    -0.179 A  
HETATM   28  C   UNL     1     -11.016  13.476  65.222  1.00  0.00    -0.303 A  
BRANCH  26  29
HETATM   29  C   UNL     1      -8.981  10.469  64.108  1.00  0.00    -0.237 A  
HETATM   30  C   UNL     1      -8.001  10.143  65.064  1.00  0.00    -0.146 A  
HETATM   31  C   UNL     1      -6.957   9.257  64.764  1.00  0.00    -0.091 A  
HETATM   32  C   UNL     1      -6.880   8.675  63.503  1.00  0.00    -0.088 A  
HETATM   33  C   UNL     1      -7.824   8.988  62.534  1.00  0.00    -0.125 A  
HETATM   34 CL   UNL     1      -5.622   7.560  63.143  1.00  0.00    -0.045 Cl 
HETATM   35  C   UNL     1      -8.856   9.883  62.833  1.00  0.00    -0.248 A  
ENDBRANCH  26  29
ENDBRANCH  17  19
ENDBRANCH  11  17
ENDBRANCH   7   9
ENDBRANCH   4   7
ENDBRANCH   3   4
ENDBRANCH   2   3
TORSDOF 7
ENDMDL
MODEL      220
REMARK 921   NORMALIZED FREE ENERGY PREDICTED BY IDOCK:   -0.67 KCAL/MOL
REMARK 922        TOTAL FREE ENERGY PREDICTED BY IDOCK:   -2.69 KCAL/MOL
REMARK 923 INTER-LIGAND FREE ENERGY PREDICTED BY IDOCK:   -4.26 KCAL/MOL
REMARK 924 INTRA-LIGAND FREE ENERGY PREDICTED BY IDOCK:    1.57 KCAL/MOL
REMARK 927      BINDING AFFINITY PREDICTED BY RF-SCORE:    0.00 PKD
ROOT
HETATM    1  C   UNL     1      -9.209  16.794  66.363  1.00  0.00    -0.309 C  
HETATM    2  C   UNL     1      -8.664  18.135  66.829  1.00  0.00    -0.275 C  
ENDROOT
BRANCH   2   3
HETATM    3  C   UNL     1      -8.337  18.126  68.319  1.00  0.00    -0.291 C  
BRANCH   3   4
HETATM    4  S   UNL     1      -6.570  18.288  68.588  1.00  0.00    -0.237 S  
HETATM    5  O   UNL     1      -6.207  19.687  68.577  1.00  0.00    -0.230 OA 
HETATM    6  O   UNL     1      -5.890  17.316  67.765  1.00  0.00    -0.118 OA 
BRANCH   4   7
HETATM    7  N   UNL     1      -6.427  17.676  70.158  1.00  0.00     0.186 N  
HETATM    8  H   UNL     1      -6.433  18.296  70.969  1.00  0.00     0.000 HD 
BRANCH   7   9
HETATM    9  C   UNL     1      -6.297  16.260  70.309  1.00  0.00     0.172 A  
HETATM   10  C   UNL     1      -7.029  15.390  69.491  1.00  0.00    -0.188 A  
HETATM   11  C   UNL     1      -6.721  14.028  69.452  1.00  0.00    -0.107 A  
HETATM   12  F   UNL     1      -7.976  15.906  68.690  1.00  0.00    -0.128 F  
HETATM   13  C   UNL     1      -5.402  15.749  71.245  1.00  0.00     0.023 A  
HETATM   14  C   UNL     1      -5.825  13.526  70.397  1.00  0.00    -0.164 A  
HETATM   15  C   UNL     1      -5.189  14.372  71.308  1.00  0.00    -0.150 A  
HETATM   16  F   UNL     1      -5.511  12.223  70.439  1.00  0.00    -0.092 F  
BRANCH  11  17
HETATM   17  C   UNL     1      -7.271  13.119  68.418  1.00  0.00    -0.107 C  
HETATM   18  O   UNL     1      -6.560  12.817  67.462  1.00  0.00    -0.138 OA 
BRANCH  17  19
HETATM   19  C   UNL     1      -8.627  12.572  68.552  1.00  0.00    -0.054 A  
HETATM   20  C   UNL     1      -9.719  13.355  68.904  1.00  0.00     0.129 A  
HETATM   21  N   UNL     1     -10.857  12.605  68.777  1.00  0.00    -0.266 NA 
HETATM   22  C   UNL     1     -10.529  11.337  68.388  1.00  0.00    -0.197 A  
HETATM   23  H   UNL     1     -11.805  12.942  68.946  1.00  0.00     0.000 HD 
HETATM   24  N   UNL     1     -11.423  10.374  68.101  1.00  0.00    -0.343 NA 
HETATM   25  C   UNL     1     -10.838   9.198  67.744  1.00  0.00    -0.092 A  
HETATM   26  C   UNL     1      -9.470   8.912  67.721  1.00  0.00    -0.163 A  
HETATM   27  C   UNL     1      -8.613   9.969  68.077  1.00  0.00    -0.121 A  
HETATM   28  C   UNL     1      -9.144  11.245  68.353  1.00  0.00    -0.170 A  
BRANCH  26  29
HETATM   29  C   UNL     1      -8.922   7.602  67.299  1.00  0.00    -0.134 A  
HETATM   30  C   UNL     1      -8.446   6.662  68.232  1.00  0.00    -0.120 A  
HETATM   31  C   UNL     1      -7.995   5.398  67.828  1.00  0.00    -0.100 A  
HETATM   32  C   UNL     1      -8.019   5.050  66.481  1.00  0.00    -0.107 A  
HETATM   33  C   UNL     1      -8.470   5.961  65.535  1.00  0.00    -0.154 A  
HETATM   34 CL   UNL     1      -7.500   3.488  65.985  1.00  0.00    -0.075 Cl 
HETATM   35  C   UNL     1      -8.906   7.226  65.941  1.00  0.00    -0.136 A  
ENDBRANCH  26  29
ENDBRANCH  17  19
ENDBRANCH  11  17
ENDBRANCH   7   9
ENDBRANCH   4   7
ENDBRANCH   3   4
ENDBRANCH   2   3
TORSDOF 7
ENDMDL
MODEL      221
REMARK 921   NORMALIZED FREE ENERGY PREDICTED BY IDOCK:   -0.08 KCAL/MOL
REMARK 922        TOTAL FREE ENERGY PREDICTED BY IDOCK:   -1.87 KCAL/MOL
REMARK 923 INTER-LIGAND FREE ENERGY PREDICTED BY IDOCK:   -1.42 KCAL/MOL
REMARK 924 INTRA-LIGAND FREE ENERGY PREDICTED BY IDOCK:   -0.45 KCAL/MOL
REMARK 927      BINDING AFFINITY PREDICTED BY RF-SCORE:    0.00 PKD
ROOT
HETATM    1  C   UNL     1      -9.107  17.909  65.816  1.00  0.00     0.342 C  
HETATM    2  C   UNL     1      -8.932  16.435  66.143  1.00  0.00    -0.367 C  
ENDROOT
BRANCH   2   3
HETATM    3  C   UNL     1     -10.189  15.631  65.826  1.00  0.00    -0.367 C  
BRANCH   3   4
HETATM    4  S   UNL     1     -10.297  14.173  66.867  1.00  0.00    -0.271 S  
HETATM    5  O   UNL     1     -11.573  13.526  66.659  1.00  0.00    -0.331 OA 
HETATM    6  O   UNL     1      -9.821  14.516  68.186  1.00  0.00    -0.213 OA 
BRANCH   4   7
HETATM    7  N   UNL     1      -9.063  13.220  66.213  1.00  0.00    -0.467 N  
HETATM    8  H   UNL     1      -8.170  13.628  65.937  1.00  0.00     0.000 HD 
BRANCH   7   9
HETATM    9  C   UNL     1      -9.317  11.821  66.061  1.00  0.00    -0.220 A  
HETATM   10  C   UNL     1      -9.228  10.959  67.162  1.00  0.00    -0.148 A  
HETATM   11  C   UNL     1      -9.720   9.655  67.081  1.00  0.00    -0.222 A  
HETATM   12  F   UNL     1      -8.734  11.441  68.314  1.00  0.00    -0.133 F  
HETATM   13  C   UNL     1      -9.700  11.325  64.817  1.00  0.00    -0.298 A  
HETATM   14  C   UNL     1     -10.097   9.167  65.829  1.00  0.00     0.065 A  
HETATM   15  C   UNL     1     -10.062   9.984  64.696  1.00  0.00    -0.067 A  
HETATM   16  F   UNL     1     -10.545   7.913  65.674  1.00  0.00     0.879 F  
BRANCH  11  17
HETATM   17  C   UNL     1      -9.899   8.799  68.278  1.00  0.00    -0.165 C  
HETATM   18  O   UNL     1     -11.031   8.410  68.559  1.00  0.00     0.014 OA 
BRANCH  17  19
HETATM   19  C   UNL     1      -8.742   8.405  69.092  1.00  0.00    -0.142 A  
HETATM   20  C   UNL     1      -8.379   7.079  69.285  1.00  0.00    -0.129 A  
HETATM   21  N   UNL     1      -7.174   7.042  69.934  1.00  0.00    -0.077 NA 
HETATM   22  C   UNL     1      -6.762   8.316  70.206  1.00  0.00    -0.036 A  
HETATM   23  H   UNL     1      -6.663   6.195  70.178  1.00  0.00     0.000 HD 
HETATM   24  N   UNL     1      -5.582   8.631  70.769  1.00  0.00    -0.028 NA 
HETATM   25  C   UNL     1      -5.416   9.971  70.938  1.00  0.00    -0.074 A  
HETATM   26  C   UNL     1      -6.345  10.976  70.653  1.00  0.00     0.131 A  
HETATM   27  C   UNL     1      -7.568  10.549  70.107  1.00  0.00     0.189 A  
HETATM   28  C   UNL     1      -7.767   9.187  69.803  1.00  0.00    -0.082 A  
BRANCH  26  29
HETATM   29  C   UNL     1      -6.068  12.417  70.855  1.00  0.00     0.483 A  
HETATM   30  C   UNL     1      -6.569  13.399  69.979  1.00  0.00     0.138 A  
HETATM   31  C   UNL     1      -6.359  14.764  70.218  1.00  0.00    -0.162 A  
HETATM   32  C   UNL     1      -5.649  15.171  71.343  1.00  0.00     0.115 A  
HETATM   33  C   UNL     1      -5.129  14.226  72.218  1.00  0.00    -0.212 A  
HETATM   34 CL   UNL     1      -5.420  16.845  71.658  1.00  0.00     0.315 Cl 
HETATM   35  C   UNL     1      -5.329  12.864  71.968  1.00  0.00     0.117 A  
ENDBRANCH  26  29
ENDBRANCH  17  19
ENDBRANCH  11  17
ENDBRANCH   7   9
ENDBRANCH   4   7
ENDBRANCH   3   4
ENDBRANCH   2   3
TORSDOF 7
ENDMDL
MODEL      222
REMARK 921   NORMALIZED FREE ENERGY PREDICTED BY IDOCK:    0.00 KCAL/MOL
REMARK 922        TOTAL FREE ENERGY PREDICTED BY IDOCK:   -1.75 KCAL/MOL
REMARK 923 INTER-LIGAND FREE ENERGY PREDICTED BY IDOCK:   -8.63 KCAL/MOL
REMARK 924 INTRA-LIGAND FREE ENERGY PREDICTED BY IDOCK:    6.88 KCAL/MOL
REMARK 927      BINDING AFFINITY PREDICTED BY RF-SCORE:    0.00 PKD
ROOT
HETATM    1  C   UNL     1     -11.114   9.884  70.368  1.00  0.00    -0.382 C  
HETATM    2  C   UNL     1     -11.389  10.316  68.937  1.00  0.00    -0.230 C  
ENDROOT
BRANCH   2   3
HETATM    3  C   UNL     1     -10.765  11.673  68.624  1.00  0.00    -0.212 C  
BRANCH   3   4
HETATM    4  S   UNL     1     -11.626  12.988  69.490  1.00  0.00    -0.248 S  
HETATM    5  O   UNL     1     -12.199  12.467  70.710  1.00  0.00    -0.369 OA 
HETATM    6  O   UNL     1     -12.413  13.728  68.532  1.00  0.00    -0.114 OA 
BRANCH   4   7
HETATM    7  N   UNL     1     -10.341  14.023  69.862  1.00  0.00    -0.098 N  
HETATM    8  H   UNL     1      -9.786  13.892  70.708  1.00  0.00     0.000 HD 
BRANCH   7   9
HETATM    9  C   UNL     1     -10.061  15.086  68.948  1.00  0.00    -0.234 A  
HETATM   10  C   UNL     1     -10.393  14.964  67.593  1.00  0.00    -0.242 A  
HETATM   11  C   UNL     1     -10.363  16.080  66.753  1.00  0.00    -0.300 A  
HETATM   12  F   UNL     1     -10.817  13.772  67.142  1.00  0.00    -0.273 F  
HETATM   13  C   UNL     1      -9.494  16.267  69.423  1.00  0.00    -0.161 A  
HETATM   14  C   UNL     1      -9.790  17.257  67.239  1.00  0.00    -0.267 A  
HETATM   15  C   UNL     1      -9.331  17.345  68.555  1.00  0.00    -0.281 A  
HETATM   16  F   UNL     1      -9.697  18.355  66.475  1.00  0.00    -0.294 F  
BRANCH  11  17
HETATM   17  C   UNL     1     -10.959  16.068  65.396  1.00  0.00    -0.253 C  
HETATM   18  O   UNL     1     -11.073  17.134  64.795  1.00  0.00    -0.909 OA 
BRANCH  17  19
HETATM   19  C   UNL     1     -11.378  14.804  64.778  1.00  0.00    -0.399 A  
HETATM   20  C   UNL     1     -12.409  14.729  63.850  1.00  0.00     0.069 A  
HETATM   21  N   UNL     1     -12.444  13.462  63.333  1.00  0.00    -0.841 NA 
HETATM   22  C   UNL     1     -11.486  12.696  63.933  1.00  0.00    -0.442 A  
HETATM   23  H   UNL     1     -13.088  13.139  62.611  1.00  0.00     0.000 HD 
HETATM   24  N   UNL     1     -11.208  11.423  63.598  1.00  0.00    -0.368 NA 
HETATM   25  C   UNL     1     -10.213  10.882  64.352  1.00  0.00    -0.358 A  
HETATM   26  C   UNL     1      -9.547  11.484  65.424  1.00  0.00    -0.249 A  
HETATM   27  C   UNL     1      -9.934  12.800  65.729  1.00  0.00    -0.259 A  
HETATM   28  C   UNL     1     -10.881  13.462  64.921  1.00  0.00    -0.363 A  
BRANCH  26  29
HETATM   29  C   UNL     1      -8.459  10.820  66.178  1.00  0.00    -0.167 A  
HETATM   30  C   UNL     1      -7.232  11.462  66.430  1.00  0.00     0.001 A  
HETATM   31  C   UNL     1      -6.236  10.851  67.204  1.00  0.00    -0.069 A  
HETATM   32  C   UNL     1      -6.454   9.589  67.747  1.00  0.00    -0.058 A  
HETATM   33  C   UNL     1      -7.649   8.923  67.504  1.00  0.00    -0.093 A  
HETATM   34 CL   UNL     1      -5.249   8.851  68.727  1.00  0.00    -0.033 Cl 
HETATM   35  C   UNL     1      -8.634   9.531  66.720  1.00  0.00    -0.133 A  
ENDBRANCH  26  29
ENDBRANCH  17  19
ENDBRANCH  11  17
ENDBRANCH   7   9
ENDBRANCH   4   7
ENDBRANCH   3   4
ENDBRANCH   2   3
TORSDOF 7
ENDMDL
MODEL      223
REMARK 921   NORMALIZED FREE ENERGY PREDICTED BY IDOCK:    0.04 KCAL/MOL
REMARK 922        TOTAL FREE ENERGY PREDICTED BY IDOCK:   -1.69 KCAL/MOL
REMARK 923 INTER-LIGAND FREE ENERGY PREDICTED BY IDOCK:   -5.38 KCAL/MOL
REMARK 924 INTRA-LIGAND FREE ENERGY PREDICTED BY IDOCK:    3.69 KCAL/MOL
REMARK 927      BINDING AFFINITY PREDICTED BY RF-SCORE:    0.00 PKD
ROOT
HETATM    1  C   UNL     1     -10.437   7.085  70.731  1.00  0.00    -0.231 C  
HETATM    2  C   UNL     1      -9.867   6.305  71.905  1.00  0.00    -0.172 C  
ENDROOT
BRANCH   2   3
HETATM    3  C   UNL     1      -9.359   4.930  71.480  1.00  0.00    -0.149 C  
BRANCH   3   4
HETATM    4  S   UNL     1      -7.570   4.846  71.593  1.00  0.00    -0.098 S  
HETATM    5  O   UNL     1      -7.177   3.524  72.024  1.00  0.00    -0.047 OA 
HETATM    6  O   UNL     1      -7.096   6.037  72.256  1.00  0.00    -0.080 OA 
BRANCH   4   7
HETATM    7  N   UNL     1      -7.135   5.069  69.974  1.00  0.00    -0.052 N  
HETATM    8  H   UNL     1      -6.251   4.711  69.610  1.00  0.00     0.000 HD 
BRANCH   7   9
HETATM    9  C   UNL     1      -8.051   5.776  69.133  1.00  0.00    -0.101 A  
HETATM   10  C   UNL     1      -8.124   7.174  69.182  1.00  0.00    -0.121 A  
HETATM   11  C   UNL     1      -8.816   7.881  68.196  1.00  0.00    -0.125 A  
HETATM   12  F   UNL     1      -7.449   7.818  70.147  1.00  0.00    -0.074 F  
HETATM   13  C   UNL     1      -8.840   5.067  68.231  1.00  0.00    -0.110 A  
HETATM   14  C   UNL     1      -9.607   7.161  67.299  1.00  0.00    -0.143 A  
HETATM   15  C   UNL     1      -9.644   5.765  67.330  1.00  0.00    -0.119 A  
HETATM   16  F   UNL     1     -10.325   7.778  66.350  1.00  0.00    -0.313 F  
BRANCH  11  17
HETATM   17  C   UNL     1      -8.700   9.351  68.044  1.00  0.00    -0.124 C  
HETATM   18  O   UNL     1      -8.424  10.025  69.034  1.00  0.00    -0.127 OA 
BRANCH  17  19
HETATM   19  C   UNL     1      -8.884   9.980  66.730  1.00  0.00    -0.144 A  
HETATM   20  C   UNL     1      -8.977   9.246  65.554  1.00  0.00    -0.205 A  
HETATM   21  N   UNL     1      -9.318  10.092  64.534  1.00  0.00    -0.266 NA 
HETATM   22  C   UNL     1      -9.408  11.370  65.008  1.00  0.00    -0.138 A  
HETATM   23  H   UNL     1      -9.479   9.812  63.567  1.00  0.00     0.000 HD 
HETATM   24  N   UNL     1      -9.798  12.428  64.276  1.00  0.00    -0.165 NA 
HETATM   25  C   UNL     1      -9.798  13.591  64.983  1.00  0.00    -0.054 A  
HETATM   26  C   UNL     1      -9.385  13.770  66.307  1.00  0.00    -0.166 A  
HETATM   27  C   UNL     1      -8.953  12.614  66.981  1.00  0.00    -0.216 A  
HETATM   28  C   UNL     1      -9.030  11.358  66.345  1.00  0.00    -0.196 A  
BRANCH  26  29
HETATM   29  C   UNL     1      -9.438  15.077  67.003  1.00  0.00    -0.240 A  
HETATM   30  C   UNL     1     -10.623  15.558  67.590  1.00  0.00    -0.291 A  
HETATM   31  C   UNL     1     -10.645  16.763  68.305  1.00  0.00    -0.352 A  
HETATM   32  C   UNL     1      -9.477  17.504  68.453  1.00  0.00    -0.292 A  
HETATM   33  C   UNL     1      -8.295  17.063  67.874  1.00  0.00    -0.201 A  
HETATM   34 CL   UNL     1      -9.492  18.964  69.361  1.00  0.00    -0.038 Cl 
HETATM   35  C   UNL     1      -8.280  15.867  67.149  1.00  0.00    -0.233 A  
ENDBRANCH  26  29
ENDBRANCH  17  19
ENDBRANCH  11  17
ENDBRANCH   7   9
ENDBRANCH   4   7
ENDBRANCH   3   4
ENDBRANCH   2   3
TORSDOF 7
ENDMDL
MODEL      224
REMARK 921   NORMALIZED FREE ENERGY PREDICTED BY IDOCK:    0.40 KCAL/MOL
REMARK 922        TOTAL FREE ENERGY PREDICTED BY IDOCK:   -1.18 KCAL/MOL
REMARK 923 INTER-LIGAND FREE ENERGY PREDICTED BY IDOCK:   -4.68 KCAL/MOL
REMARK 924 INTRA-LIGAND FREE ENERGY PREDICTED BY IDOCK:    3.49 KCAL/MOL
REMARK 927      BINDING AFFINITY PREDICTED BY RF-SCORE:    0.00 PKD
ROOT
HETATM    1  C   UNL     1      -7.769   4.710  72.317  1.00  0.00    -0.089 C  
HETATM    2  C   UNL     1      -9.022   4.581  73.167  1.00  0.00    -0.119 C  
ENDROOT
BRANCH   2   3
HETATM    3  C   UNL     1     -10.289   4.611  72.318  1.00  0.00    -0.185 C  
BRANCH   3   4
HETATM    4  S   UNL     1     -10.700   6.292  71.841  1.00  0.00    -0.239 S  
HETATM    5  O   UNL     1      -9.484   7.050  71.652  1.00  0.00    -0.157 OA 
HETATM    6  O   UNL     1     -11.768   6.762  72.691  1.00  0.00    -0.199 OA 
BRANCH   4   7
HETATM    7  N   UNL     1     -11.443   6.029  70.344  1.00  0.00    -0.261 N  
HETATM    8  H   UNL     1     -12.063   5.232  70.196  1.00  0.00     0.000 HD 
BRANCH   7   9
HETATM    9  C   UNL     1     -11.170   6.961  69.296  1.00  0.00    -0.137 A  
HETATM   10  C   UNL     1     -10.981   8.319  69.585  1.00  0.00    -0.086 A  
HETATM   11  C   UNL     1     -10.464   9.184  68.617  1.00  0.00    -0.235 A  
HETATM   12  F   UNL     1     -11.231   8.750  70.832  1.00  0.00    -0.261 F  
HETATM   13  C   UNL     1     -11.048   6.505  67.986  1.00  0.00    -0.332 A  
HETATM   14  C   UNL     1     -10.349   8.716  67.307  1.00  0.00    -0.296 A  
HETATM   15  C   UNL     1     -10.665   7.394  66.983  1.00  0.00    -0.389 A  
HETATM   16  F   UNL     1      -9.893   9.503  66.322  1.00  0.00    -0.243 F  
BRANCH  11  17
HETATM   17  C   UNL     1      -9.992  10.550  68.945  1.00  0.00    -0.204 C  
HETATM   18  O   UNL     1     -10.546  11.162  69.856  1.00  0.00    -0.048 OA 
BRANCH  17  19
HETATM   19  C   UNL     1      -8.867  11.145  68.211  1.00  0.00    -0.155 A  
HETATM   20  C   UNL     1      -8.570  12.500  68.265  1.00  0.00    -0.173 A  
HETATM   21  N   UNL     1      -7.379  12.715  67.626  1.00  0.00    -0.125 NA 
HETATM   22  C   UNL     1      -6.911  11.536  67.120  1.00  0.00    -0.139 A  
HETATM   23  H   UNL     1      -6.912  13.618  67.541  1.00  0.00     0.000 HD 
HETATM   24  N   UNL     1      -5.726  11.390  66.500  1.00  0.00    -0.144 NA 
HETATM   25  C   UNL     1      -5.499  10.115  66.085  1.00  0.00    -0.053 A  
HETATM   26  C   UNL     1      -6.375   9.029  66.184  1.00  0.00    -0.064 A  
HETATM   27  C   UNL     1      -7.609   9.287  66.808  1.00  0.00    -0.090 A  
HETATM   28  C   UNL     1      -7.867  10.558  67.360  1.00  0.00    -0.106 A  
BRANCH  26  29
HETATM   29  C   UNL     1      -6.033   7.666  65.716  1.00  0.00    -0.038 A  
HETATM   30  C   UNL     1      -5.668   6.644  66.613  1.00  0.00    -0.014 A  
HETATM   31  C   UNL     1      -5.414   5.340  66.167  1.00  0.00    -0.013 A  
HETATM   32  C   UNL     1      -5.528   5.034  64.815  1.00  0.00    -0.013 A  
HETATM   33  C   UNL     1      -5.872   6.023  63.903  1.00  0.00    -0.022 A  
HETATM   34 CL   UNL     1      -5.252   3.427  64.268  1.00  0.00    -0.008 Cl 
HETATM   35  C   UNL     1      -6.112   7.327  64.351  1.00  0.00    -0.037 A  
ENDBRANCH  26  29
ENDBRANCH  17  19
ENDBRANCH  11  17
ENDBRANCH   7   9
ENDBRANCH   4   7
ENDBRANCH   3   4
ENDBRANCH   2   3
TORSDOF 7
ENDMDL
MODEL      225
REMARK 921   NORMALIZED FREE ENERGY PREDICTED BY IDOCK:    2.29 KCAL/MOL
REMARK 922        TOTAL FREE ENERGY PREDICTED BY IDOCK:    1.48 KCAL/MOL
REMARK 923 INTER-LIGAND FREE ENERGY PREDICTED BY IDOCK:   -0.88 KCAL/MOL
REMARK 924 INTRA-LIGAND FREE ENERGY PREDICTED BY IDOCK:    2.36 KCAL/MOL
REMARK 927      BINDING AFFINITY PREDICTED BY RF-SCORE:    0.00 PKD
ROOT
HETATM    1  C   UNL     1     -14.064  14.647  70.740  1.00  0.00     0.233 C  
HETATM    2  C   UNL     1     -13.490  16.026  70.456  1.00  0.00     1.366 C  
ENDROOT
BRANCH   2   3
HETATM    3  C   UNL     1     -12.255  16.312  71.305  1.00  0.00    -0.012 C  
BRANCH   3   4
HETATM    4  S   UNL     1     -11.064  14.976  71.173  1.00  0.00    -0.040 S  
HETATM    5  O   UNL     1     -11.764  13.718  71.040  1.00  0.00    -0.127 OA 
HETATM    6  O   UNL     1     -10.038  15.177  72.168  1.00  0.00     1.606 OA 
BRANCH   4   7
HETATM    7  N   UNL     1     -10.309  15.363  69.710  1.00  0.00    -0.280 N  
HETATM    8  H   UNL     1      -9.607  16.102  69.658  1.00  0.00     0.000 HD 
BRANCH   7   9
HETATM    9  C   UNL     1     -10.689  14.618  68.551  1.00  0.00    -0.247 A  
HETATM   10  C   UNL     1     -10.451  13.240  68.483  1.00  0.00    -0.250 A  
HETATM   11  C   UNL     1     -11.043  12.467  67.482  1.00  0.00    -0.313 A  
HETATM   12  F   UNL     1      -9.709  12.669  69.447  1.00  0.00     0.290 F  
HETATM   13  C   UNL     1     -11.341  15.265  67.503  1.00  0.00    -0.300 A  
HETATM   14  C   UNL     1     -11.691  13.126  66.435  1.00  0.00    -0.379 A  
HETATM   15  C   UNL     1     -11.816  14.517  66.427  1.00  0.00    -0.361 A  
HETATM   16  F   UNL     1     -12.251  12.448  65.424  1.00  0.00    -0.451 F  
BRANCH  11  17
HETATM   17  C   UNL     1     -11.050  10.985  67.521  1.00  0.00    -0.302 C  
HETATM   18  O   UNL     1     -11.760  10.378  66.723  1.00  0.00     0.295 OA 
BRANCH  17  19
HETATM   19  C   UNL     1     -10.202  10.263  68.478  1.00  0.00    -0.192 A  
HETATM   20  C   UNL     1     -10.264  10.481  69.848  1.00  0.00    -0.061 A  
HETATM   21  N   UNL     1      -9.490   9.545  70.479  1.00  0.00    -0.262 NA 
HETATM   22  C   UNL     1      -8.890   8.744  69.549  1.00  0.00    -0.144 A  
HETATM   23  H   UNL     1      -9.378   9.458  71.489  1.00  0.00     0.000 HD 
HETATM   24  N   UNL     1      -8.124   7.679  69.841  1.00  0.00    -0.122 NA 
HETATM   25  C   UNL     1      -7.641   7.053  68.734  1.00  0.00    -0.105 A  
HETATM   26  C   UNL     1      -7.811   7.448  67.403  1.00  0.00    -0.111 A  
HETATM   27  C   UNL     1      -8.592   8.598  67.196  1.00  0.00    -0.123 A  
HETATM   28  C   UNL     1      -9.215   9.234  68.290  1.00  0.00    -0.134 A  
BRANCH  26  29
HETATM   29  C   UNL     1      -7.259   6.690  66.256  1.00  0.00    -0.072 A  
HETATM   30  C   UNL     1      -5.875   6.621  66.009  1.00  0.00    -0.026 A  
HETATM   31  C   UNL     1      -5.360   5.845  64.962  1.00  0.00    -0.013 A  
HETATM   32  C   UNL     1      -6.221   5.118  64.148  1.00  0.00    -0.022 A  
HETATM   33  C   UNL     1      -7.593   5.176  64.357  1.00  0.00    -0.079 A  
HETATM   34 CL   UNL     1      -5.590   4.136  62.885  1.00  0.00    -0.012 Cl 
HETATM   35  C   UNL     1      -8.104   5.963  65.394  1.00  0.00    -0.130 A  
ENDBRANCH  26  29
ENDBRANCH  17  19
ENDBRANCH  11  17
ENDBRANCH   7   9
ENDBRANCH   4   7
ENDBRANCH   3   4
ENDBRANCH   2   3
TORSDOF 7
ENDMDL
MODEL      226
REMARK 921   NORMALIZED FREE ENERGY PREDICTED BY IDOCK:    3.38 KCAL/MOL
REMARK 922        TOTAL FREE ENERGY PREDICTED BY IDOCK:    3.01 KCAL/MOL
REMARK 923 INTER-LIGAND FREE ENERGY PREDICTED BY IDOCK:    1.17 KCAL/MOL
REMARK 924 INTRA-LIGAND FREE ENERGY PREDICTED BY IDOCK:    1.84 KCAL/MOL
REMARK 927      BINDING AFFINITY PREDICTED BY RF-SCORE:    0.00 PKD
ROOT
HETATM    1  C   UNL     1     -11.061  15.039  70.923  1.00  0.00    -0.225 C  
HETATM    2  C   UNL     1     -11.712  16.173  70.148  1.00  0.00    -0.193 C  
ENDROOT
BRANCH   2   3
HETATM    3  C   UNL     1     -11.320  16.151  68.674  1.00  0.00    -0.365 C  
BRANCH   3   4
HETATM    4  S   UNL     1     -10.223  17.517  68.283  1.00  0.00    -0.386 S  
HETATM    5  O   UNL     1      -9.963  18.284  69.481  1.00  0.00    -0.054 OA 
HETATM    6  O   UNL     1     -10.681  18.139  67.064  1.00  0.00    -0.353 OA 
BRANCH   4   7
HETATM    7  N   UNL     1      -8.823  16.685  67.827  1.00  0.00    -0.204 N  
HETATM    8  H   UNL     1      -8.029  17.174  67.414  1.00  0.00     0.000 HD 
BRANCH   7   9
HETATM    9  C   UNL     1      -8.794  15.271  68.040  1.00  0.00    -0.169 A  
HETATM   10  C   UNL     1      -7.652  14.656  68.569  1.00  0.00    -0.120 A  
HETATM   11  C   UNL     1      -7.703  13.335  69.019  1.00  0.00     0.166 A  
HETATM   12  F   UNL     1      -6.535  15.390  68.706  1.00  0.00    -0.099 F  
HETATM   13  C   UNL     1      -9.928  14.512  67.761  1.00  0.00    -0.225 A  
HETATM   14  C   UNL     1      -8.843  12.583  68.730  1.00  0.00     0.168 A  
HETATM   15  C   UNL     1      -9.939  13.155  68.081  1.00  0.00    -0.234 A  
HETATM   16  F   UNL     1      -8.945  11.299  69.102  1.00  0.00    -0.136 F  
BRANCH  11  17
HETATM   17  C   UNL     1      -6.618  12.729  69.827  1.00  0.00     0.071 C  
HETATM   18  O   UNL     1      -5.633  13.413  70.095  1.00  0.00    -0.105 OA 
BRANCH  17  19
HETATM   19  C   UNL     1      -6.736  11.350  70.316  1.00  0.00     0.324 A  
HETATM   20  C   UNL     1      -7.015  11.046  71.642  1.00  0.00     3.911 A  
HETATM   21  N   UNL     1      -7.233   9.699  71.749  1.00  0.00     0.074 NA 
HETATM   22  C   UNL     1      -7.062   9.109  70.528  1.00  0.00    -0.088 A  
HETATM   23  H   UNL     1      -7.485   9.210  72.607  1.00  0.00     0.000 HD 
HETATM   24  N   UNL     1      -7.276   7.806  70.276  1.00  0.00    -0.061 NA 
HETATM   25  C   UNL     1      -7.028   7.469  68.981  1.00  0.00    -0.073 A  
HETATM   26  C   UNL     1      -6.533   8.305  67.975  1.00  0.00    -0.057 A  
HETATM   27  C   UNL     1      -6.298   9.641  68.343  1.00  0.00    -0.051 A  
HETATM   28  C   UNL     1      -6.636  10.086  69.637  1.00  0.00    -0.062 A  
BRANCH  26  29
HETATM   29  C   UNL     1      -6.310   7.852  66.582  1.00  0.00    -0.050 A  
HETATM   30  C   UNL     1      -5.967   8.751  65.555  1.00  0.00    -0.051 A  
HETATM   31  C   UNL     1      -5.689   8.303  64.257  1.00  0.00    -0.060 A  
HETATM   32  C   UNL     1      -5.743   6.944  63.964  1.00  0.00    -0.032 A  
HETATM   33  C   UNL     1      -6.092   6.033  64.953  1.00  0.00    -0.026 A  
HETATM   34 CL   UNL     1      -5.368   6.387  62.382  1.00  0.00    -0.022 Cl 
HETATM   35  C   UNL     1      -6.381   6.486  66.244  1.00  0.00    -0.042 A  
ENDBRANCH  26  29
ENDBRANCH  17  19
ENDBRANCH  11  17
ENDBRANCH   7   9
ENDBRANCH   4   7
ENDBRANCH   3   4
ENDBRANCH   2   3
TORSDOF 7
ENDMDL
MODEL      227
REMARK 921   NORMALIZED FREE ENERGY PREDICTED BY IDOCK:    3.97 KCAL/MOL
REMARK 922        TOTAL FREE ENERGY PREDICTED BY IDOCK:    3.84 KCAL/MOL
REMARK 923 INTER-LIGAND FREE ENERGY PREDICTED BY IDOCK:   -2.95 KCAL/MOL
REMARK 924 INTRA-LIGAND FREE ENERGY PREDICTED BY IDOCK:    6.80 KCAL/MOL
REMARK 927      BINDING AFFINITY PREDICTED BY RF-SCORE:    0.00 PKD
ROOT
HETATM    1  C   UNL     1      -5.279   6.960  69.158  1.00  0.00    -0.014 C  
HETATM    2  C   UNL     1      -6.360   6.975  70.227  1.00  0.00    -0.038 C  
ENDROOT
BRANCH   2   3
HETATM    3  C   UNL     1      -7.469   7.969  69.896  1.00  0.00    -0.078 C  
BRANCH   3   4
HETATM    4  S   UNL     1      -7.177   9.546  70.702  1.00  0.00    -0.093 S  
HETATM    5  O   UNL     1      -6.316   9.349  71.847  1.00  0.00    -0.273 OA 
HETATM    6  O   UNL     1      -8.434  10.249  70.804  1.00  0.00     0.397 OA 
BRANCH   4   7
HETATM    7  N   UNL     1      -6.333  10.373  69.492  1.00  0.00    -0.052 N  
HETATM    8  H   UNL     1      -5.816   9.870  68.771  1.00  0.00     0.000 HD 
BRANCH   7   9
HETATM    9  C   UNL     1      -6.370  11.802  69.517  1.00  0.00    -0.123 A  
HETATM   10  C   UNL     1      -7.002  12.514  68.490  1.00  0.00    -0.086 A  
HETATM   11  C   UNL     1      -7.268  13.878  68.633  1.00  0.00    -0.108 A  
HETATM   12  F   UNL     1      -7.415  11.841  67.404  1.00  0.00    -0.108 F  
HETATM   13  C   UNL     1      -5.812  12.484  70.596  1.00  0.00    -0.078 A  
HETATM   14  C   UNL     1      -6.701  14.552  69.716  1.00  0.00    -0.150 A  
HETATM   15  C   UNL     1      -5.953  13.869  70.678  1.00  0.00    -0.174 A  
HETATM   16  F   UNL     1      -6.886  15.867  69.895  1.00  0.00    -0.189 F  
BRANCH  11  17
HETATM   17  C   UNL     1      -8.165  14.613  67.710  1.00  0.00    -0.162 C  
HETATM   18  O   UNL     1      -7.667  15.220  66.765  1.00  0.00    -0.147 OA 
BRANCH  17  19
HETATM   19  C   UNL     1      -9.620  14.590  67.910  1.00  0.00    -0.217 A  
HETATM   20  C   UNL     1     -10.469  15.531  67.342  1.00  0.00    -0.281 A  
HETATM   21  N   UNL     1     -11.763  15.145  67.564  1.00  0.00    -0.316 NA 
HETATM   22  C   UNL     1     -11.779  13.995  68.300  1.00  0.00    -0.357 A  
HETATM   23  H   UNL     1     -12.590  15.641  67.231  1.00  0.00     0.000 HD 
HETATM   24  N   UNL     1     -12.892  13.314  68.625  1.00  0.00     1.082 NA 
HETATM   25  C   UNL     1     -12.637  12.204  69.369  1.00  0.00     0.477 A  
HETATM   26  C   UNL     1     -11.393  11.782  69.850  1.00  0.00    -0.201 A  
HETATM   27  C   UNL     1     -10.291  12.580  69.496  1.00  0.00     0.641 A  
HETATM   28  C   UNL     1     -10.468  13.683  68.636  1.00  0.00    -0.242 A  
BRANCH  26  29
HETATM   29  C   UNL     1     -11.208  10.544  70.642  1.00  0.00    -0.283 A  
HETATM   30  C   UNL     1     -12.280   9.923  71.310  1.00  0.00    -0.480 A  
HETATM   31  C   UNL     1     -12.108   8.715  71.999  1.00  0.00    -0.442 A  
HETATM   32  C   UNL     1     -10.859   8.102  72.025  1.00  0.00    -0.284 A  
HETATM   33  C   UNL     1      -9.778   8.697  71.387  1.00  0.00    -0.314 A  
HETATM   34 CL   UNL     1     -10.652   6.602  72.839  1.00  0.00    -0.250 Cl 
HETATM   35  C   UNL     1      -9.952   9.910  70.712  1.00  0.00    -0.009 A  
ENDBRANCH  26  29
ENDBRANCH  17  19
ENDBRANCH  11  17
ENDBRANCH   7   9
ENDBRANCH   4   7
ENDBRANCH   3   4
ENDBRANCH   2   3
TORSDOF 7
ENDMDL
MODEL      228
REMARK 921   NORMALIZED FREE ENERGY PREDICTED BY IDOCK:    4.56 KCAL/MOL
REMARK 922        TOTAL FREE ENERGY PREDICTED BY IDOCK:    4.68 KCAL/MOL
REMARK 923 INTER-LIGAND FREE ENERGY PREDICTED BY IDOCK:   -2.95 KCAL/MOL
REMARK 924 INTRA-LIGAND FREE ENERGY PREDICTED BY IDOCK:    7.63 KCAL/MOL
REMARK 927      BINDING AFFINITY PREDICTED BY RF-SCORE:    0.00 PKD
ROOT
HETATM    1  C   UNL     1     -11.887  10.874  67.029  1.00  0.00     0.815 C  
HETATM    2  C   UNL     1     -12.152  11.413  65.632  1.00  0.00     1.114 C  
ENDROOT
BRANCH   2   3
HETATM    3  C   UNL     1     -11.720  12.870  65.495  1.00  0.00    -0.383 C  
BRANCH   3   4
HETATM    4  S   UNL     1     -11.061  13.191  63.857  1.00  0.00    -0.224 S  
HETATM    5  O   UNL     1     -12.151  13.313  62.915  1.00  0.00    -0.246 OA 
HETATM    6  O   UNL     1      -9.950  12.299  63.627  1.00  0.00    -0.382 OA 
BRANCH   4   7
HETATM    7  N   UNL     1     -10.340  14.703  64.091  1.00  0.00     0.222 N  
HETATM    8  H   UNL     1     -10.209  15.351  63.315  1.00  0.00     0.000 HD 
BRANCH   7   9
HETATM    9  C   UNL     1      -9.922  15.038  65.417  1.00  0.00    -0.330 A  
HETATM   10  C   UNL     1     -10.195  14.177  66.487  1.00  0.00    -0.278 A  
HETATM   11  C   UNL     1      -9.574  14.365  67.724  1.00  0.00    -0.216 A  
HETATM   12  F   UNL     1     -11.002  13.125  66.273  1.00  0.00    -0.276 F  
HETATM   13  C   UNL     1      -9.199  16.209  65.632  1.00  0.00    -0.022 A  
HETATM   14  C   UNL     1      -8.854  15.544  67.929  1.00  0.00    -0.171 A  
HETATM   15  C   UNL     1      -8.689  16.476  66.902  1.00  0.00    -0.233 A  
HETATM   16  F   UNL     1      -8.262  15.805  69.103  1.00  0.00    -0.181 F  
BRANCH  11  17
HETATM   17  C   UNL     1      -9.612  13.342  68.795  1.00  0.00     0.066 C  
HETATM   18  O   UNL     1      -8.658  12.576  68.912  1.00  0.00     0.106 OA 
BRANCH  17  19
HETATM   19  C   UNL     1     -10.757  13.266  69.712  1.00  0.00     0.504 A  
HETATM   20  C   UNL     1     -11.565  14.360  69.994  1.00  0.00    -0.275 A  
HETATM   21  N   UNL     1     -12.636  13.937  70.733  1.00  0.00    -0.351 NA 
HETATM   22  C   UNL     1     -12.525  12.597  70.976  1.00  0.00    -0.260 A  
HETATM   23  H   UNL     1     -13.401  14.530  71.054  1.00  0.00     0.000 HD 
HETATM   24  N   UNL     1     -13.452  11.859  71.612  1.00  0.00    -0.118 NA 
HETATM   25  C   UNL     1     -13.097  10.551  71.731  1.00  0.00    -0.464 A  
HETATM   26  C   UNL     1     -11.892   9.966  71.330  1.00  0.00    -0.476 A  
HETATM   27  C   UNL     1     -10.965  10.825  70.713  1.00  0.00     0.432 A  
HETATM   28  C   UNL     1     -11.309  12.168  70.458  1.00  0.00     0.704 A  
BRANCH  26  29
HETATM   29  C   UNL     1     -11.600   8.522  71.485  1.00  0.00    -0.352 A  
HETATM   30  C   UNL     1     -11.548   7.652  70.379  1.00  0.00    -0.138 A  
HETATM   31  C   UNL     1     -11.203   6.303  70.529  1.00  0.00    -0.420 A  
HETATM   32  C   UNL     1     -10.896   5.800  71.789  1.00  0.00    -0.252 A  
HETATM   33  C   UNL     1     -10.951   6.630  72.902  1.00  0.00    -0.286 A  
HETATM   34 CL   UNL     1     -10.437   4.154  71.973  1.00  0.00    -0.138 Cl 
HETATM   35  C   UNL     1     -11.310   7.973  72.750  1.00  0.00    -0.439 A  
ENDBRANCH  26  29
ENDBRANCH  17  19
ENDBRANCH  11  17
ENDBRANCH   7   9
ENDBRANCH   4   7
ENDBRANCH   3   4
ENDBRANCH   2   3
TORSDOF 7
ENDMDL
MODEL      229
REMARK 921   NORMALIZED FREE ENERGY PREDICTED BY IDOCK:    5.64 KCAL/MOL
REMARK 922        TOTAL FREE ENERGY PREDICTED BY IDOCK:    6.19 KCAL/MOL
REMARK 923 INTER-LIGAND FREE ENERGY PREDICTED BY IDOCK:   -0.81 KCAL/MOL
REMARK 924 INTRA-LIGAND FREE ENERGY PREDICTED BY IDOCK:    7.00 KCAL/MOL
REMARK 927      BINDING AFFINITY PREDICTED BY RF-SCORE:    0.00 PKD
ROOT
HETATM    1  C   UNL     1      -7.465  12.827  66.155  1.00  0.00     1.926 C  
HETATM    2  C   UNL     1      -8.179  14.158  65.983  1.00  0.00     1.713 C  
ENDROOT
BRANCH   2   3
HETATM    3  C   UNL     1      -9.030  14.506  67.201  1.00  0.00    -0.230 C  
BRANCH   3   4
HETATM    4  S   UNL     1     -10.395  13.355  67.379  1.00  0.00    -0.241 S  
HETATM    5  O   UNL     1     -11.636  14.026  67.064  1.00  0.00    -0.331 OA 
HETATM    6  O   UNL     1     -10.216  12.619  68.608  1.00  0.00    -0.222 OA 
BRANCH   4   7
HETATM    7  N   UNL     1     -10.031  12.235  66.165  1.00  0.00    -0.238 N  
HETATM    8  H   UNL     1      -9.944  12.522  65.191  1.00  0.00     0.000 HD 
BRANCH   7   9
HETATM    9  C   UNL     1      -9.849  10.871  66.555  1.00  0.00    -0.204 A  
HETATM   10  C   UNL     1      -9.785  10.523  67.910  1.00  0.00    -0.153 A  
HETATM   11  C   UNL     1      -9.868   9.185  68.302  1.00  0.00    -0.181 A  
HETATM   12  F   UNL     1      -9.722  11.506  68.823  1.00  0.00    -0.197 F  
HETATM   13  C   UNL     1      -9.782   9.882  65.577  1.00  0.00    -0.370 A  
HETATM   14  C   UNL     1      -9.796   8.201  67.314  1.00  0.00    -0.197 A  
HETATM   15  C   UNL     1      -9.725   8.542  65.961  1.00  0.00    -0.195 A  
HETATM   16  F   UNL     1      -9.835   6.897  67.622  1.00  0.00    -0.129 F  
BRANCH  11  17
HETATM   17  C   UNL     1     -10.078   8.782  69.713  1.00  0.00    -0.196 C  
HETATM   18  O   UNL     1     -11.122   9.115  70.271  1.00  0.00    -0.240 OA 
BRANCH  17  19
HETATM   19  C   UNL     1      -9.069   7.980  70.417  1.00  0.00    -0.150 A  
HETATM   20  C   UNL     1      -8.829   8.105  71.779  1.00  0.00    -0.155 A  
HETATM   21  N   UNL     1      -7.969   7.113  72.167  1.00  0.00    -0.091 NA 
HETATM   22  C   UNL     1      -7.608   6.369  71.079  1.00  0.00    -0.090 A  
HETATM   23  H   UNL     1      -7.646   6.955  73.121  1.00  0.00     0.000 HD 
HETATM   24  N   UNL     1      -6.832   5.272  71.132  1.00  0.00    -0.043 NA 
HETATM   25  C   UNL     1      -6.617   4.716  69.908  1.00  0.00    -0.036 A  
HETATM   26  C   UNL     1      -7.056   5.204  68.674  1.00  0.00    -0.058 A  
HETATM   27  C   UNL     1      -7.826   6.380  68.714  1.00  0.00    -0.109 A  
HETATM   28  C   UNL     1      -8.179   6.950  69.954  1.00  0.00    -0.127 A  
BRANCH  26  29
HETATM   29  C   UNL     1      -6.787   4.518  67.389  1.00  0.00    -0.059 A  
HETATM   30  C   UNL     1      -5.562   4.664  66.711  1.00  0.00    -0.014 A  
HETATM   31  C   UNL     1      -5.292   3.956  65.532  1.00  0.00    -0.009 A  
HETATM   32  C   UNL     1      -6.243   3.083  65.014  1.00  0.00    -0.023 A  
HETATM   33  C   UNL     1      -7.467   2.928  65.651  1.00  0.00    -0.073 A  
HETATM   34 CL   UNL     1      -5.902   2.186  63.587  1.00  0.00    -0.009 Cl 
HETATM   35  C   UNL     1      -7.737   3.647  66.820  1.00  0.00    -0.081 A  
ENDBRANCH  26  29
ENDBRANCH  17  19
ENDBRANCH  11  17
ENDBRANCH   7   9
ENDBRANCH   4   7
ENDBRANCH   3   4
ENDBRANCH   2   3
TORSDOF 7
ENDMDL
MODEL      230
REMARK 921   NORMALIZED FREE ENERGY PREDICTED BY IDOCK:    5.71 KCAL/MOL
REMARK 922        TOTAL FREE ENERGY PREDICTED BY IDOCK:    6.30 KCAL/MOL
REMARK 923 INTER-LIGAND FREE ENERGY PREDICTED BY IDOCK:    5.93 KCAL/MOL
REMARK 924 INTRA-LIGAND FREE ENERGY PREDICTED BY IDOCK:    0.37 KCAL/MOL
REMARK 927      BINDING AFFINITY PREDICTED BY RF-SCORE:    0.00 PKD
ROOT
HETATM    1  C   UNL     1     -11.640  20.621  64.081  1.00  0.00     3.889 C  
HETATM    2  C   UNL     1     -11.740  19.917  65.425  1.00  0.00     2.027 C  
ENDROOT
BRANCH   2   3
HETATM    3  C   UNL     1     -10.366  19.686  66.047  1.00  0.00    -0.523 C  
BRANCH   3   4
HETATM    4  S   UNL     1      -9.890  17.960  65.924  1.00  0.00     0.066 S  
HETATM    5  O   UNL     1      -8.450  17.851  65.995  1.00  0.00    -0.498 OA 
HETATM    6  O   UNL     1     -10.650  17.349  64.860  1.00  0.00    -0.538 OA 
BRANCH   4   7
HETATM    7  N   UNL     1     -10.577  17.336  67.339  1.00  0.00    -0.332 N  
HETATM    8  H   UNL     1     -11.308  17.842  67.838  1.00  0.00     0.000 HD 
BRANCH   7   9
HETATM    9  C   UNL     1     -10.095  16.074  67.808  1.00  0.00    -0.243 A  
HETATM   10  C   UNL     1      -9.516  15.160  66.919  1.00  0.00    -0.238 A  
HETATM   11  C   UNL     1      -8.816  14.051  67.400  1.00  0.00    -0.210 A  
HETATM   12  F   UNL     1      -9.580  15.418  65.602  1.00  0.00    -0.333 F  
HETATM   13  C   UNL     1     -10.163  15.777  69.167  1.00  0.00    -0.231 A  
HETATM   14  C   UNL     1      -8.895  13.760  68.763  1.00  0.00     0.044 A  
HETATM   15  C   UNL     1      -9.586  14.599  69.640  1.00  0.00     0.247 A  
HETATM   16  F   UNL     1      -8.277  12.692  69.286  1.00  0.00     0.208 F  
BRANCH  11  17
HETATM   17  C   UNL     1      -7.962  13.211  66.526  1.00  0.00     0.718 C  
HETATM   18  O   UNL     1      -6.745  13.385  66.551  1.00  0.00     0.957 OA 
BRANCH  17  19
HETATM   19  C   UNL     1      -8.560  12.178  65.671  1.00  0.00     0.602 A  
HETATM   20  C   UNL     1      -8.766  12.359  64.310  1.00  0.00     1.943 A  
HETATM   21  N   UNL     1      -9.170  11.170  63.765  1.00  0.00    -0.362 NA 
HETATM   22  C   UNL     1      -9.272  10.226  64.747  1.00  0.00    -0.241 A  
HETATM   23  H   UNL     1      -9.365  11.012  62.776  1.00  0.00     0.000 HD 
HETATM   24  N   UNL     1      -9.573   8.933  64.533  1.00  0.00     0.698 NA 
HETATM   25  C   UNL     1      -9.618   8.202  65.679  1.00  0.00     0.321 A  
HETATM   26  C   UNL     1      -9.453   8.675  66.985  1.00  0.00    -0.221 A  
HETATM   27  C   UNL     1      -9.184  10.049  67.114  1.00  0.00    -0.161 A  
HETATM   28  C   UNL     1      -9.015  10.845  65.964  1.00  0.00    -0.200 A  
BRANCH  26  29
HETATM   29  C   UNL     1      -9.502   7.797  68.177  1.00  0.00    -0.152 A  
HETATM   30  C   UNL     1      -8.525   7.865  69.189  1.00  0.00    -0.137 A  
HETATM   31  C   UNL     1      -8.618   7.078  70.345  1.00  0.00    -0.142 A  
HETATM   32  C   UNL     1      -9.696   6.215  70.513  1.00  0.00    -0.173 A  
HETATM   33  C   UNL     1     -10.669   6.115  69.527  1.00  0.00    -0.386 A  
HETATM   34 CL   UNL     1      -9.833   5.276  71.947  1.00  0.00    -0.217 Cl 
HETATM   35  C   UNL     1     -10.564   6.892  68.368  1.00  0.00    -0.249 A  
ENDBRANCH  26  29
ENDBRANCH  17  19
ENDBRANCH  11  17
ENDBRANCH   7   9
ENDBRANCH   4   7
ENDBRANCH   3   4
ENDBRANCH   2   3
TORSDOF 7
ENDMDL
MODEL      231
REMARK 921   NORMALIZED FREE ENERGY PREDICTED BY IDOCK:    6.97 KCAL/MOL
REMARK 922        TOTAL FREE ENERGY PREDICTED BY IDOCK:    8.08 KCAL/MOL
REMARK 923 INTER-LIGAND FREE ENERGY PREDICTED BY IDOCK:    1.98 KCAL/MOL
REMARK 924 INTRA-LIGAND FREE ENERGY PREDICTED BY IDOCK:    6.09 KCAL/MOL
REMARK 927      BINDING AFFINITY PREDICTED BY RF-SCORE:    0.00 PKD
ROOT
HETATM    1  C   UNL     1      -8.761  14.712  71.435  1.00  0.00     4.387 C  
HETATM    2  C   UNL     1      -8.835  15.072  69.960  1.00  0.00     0.424 C  
ENDROOT
BRANCH   2   3
HETATM    3  C   UNL     1      -7.589  15.819  69.495  1.00  0.00    -0.177 C  
BRANCH   3   4
HETATM    4  S   UNL     1      -6.429  14.699  68.706  1.00  0.00    -0.094 S  
HETATM    5  O   UNL     1      -7.118  13.922  67.701  1.00  0.00    -0.157 OA 
HETATM    6  O   UNL     1      -5.621  14.080  69.729  1.00  0.00    -0.094 OA 
BRANCH   4   7
HETATM    7  N   UNL     1      -5.383  15.797  67.957  1.00  0.00    -0.115 N  
HETATM    8  H   UNL     1      -4.372  15.727  68.073  1.00  0.00     0.000 HD 
BRANCH   7   9
HETATM    9  C   UNL     1      -5.967  16.826  67.154  1.00  0.00    -0.173 A  
HETATM   10  C   UNL     1      -7.359  16.925  67.029  1.00  0.00    -0.193 A  
HETATM   11  C   UNL     1      -7.940  18.064  66.468  1.00  0.00    -0.294 A  
HETATM   12  F   UNL     1      -8.119  15.938  67.531  1.00  0.00    -0.137 F  
HETATM   13  C   UNL     1      -5.144  17.761  66.531  1.00  0.00    -0.197 A  
HETATM   14  C   UNL     1      -7.106  18.993  65.844  1.00  0.00    -0.263 A  
HETATM   15  C   UNL     1      -5.718  18.832  65.848  1.00  0.00    -0.200 A  
HETATM   16  F   UNL     1      -7.600  20.091  65.255  1.00  0.00    -0.310 F  
BRANCH  11  17
HETATM   17  C   UNL     1      -9.394  18.340  66.558  1.00  0.00    -0.302 C  
HETATM   18  O   UNL     1      -9.776  19.253  67.287  1.00  0.00    -0.312 OA 
BRANCH  17  19
HETATM   19  C   UNL     1     -10.351  17.552  65.770  1.00  0.00    -0.217 A  
HETATM   20  C   UNL     1     -11.349  18.137  65.002  1.00  0.00     1.851 A  
HETATM   21  N   UNL     1     -11.958  17.163  64.258  1.00  0.00     0.700 NA 
HETATM   22  C   UNL     1     -11.408  15.948  64.554  1.00  0.00    -0.309 A  
HETATM   23  H   UNL     1     -12.709  17.320  63.585  1.00  0.00     0.000 HD 
HETATM   24  N   UNL     1     -11.731  14.796  63.940  1.00  0.00    -0.117 NA 
HETATM   25  C   UNL     1     -11.043  13.727  64.424  1.00  0.00    -0.345 A  
HETATM   26  C   UNL     1     -10.135  13.722  65.488  1.00  0.00    -0.303 A  
HETATM   27  C   UNL     1      -9.892  14.966  66.097  1.00  0.00    -0.332 A  
HETATM   28  C   UNL     1     -10.487  16.134  65.576  1.00  0.00    -0.407 A  
BRANCH  26  29
HETATM   29  C   UNL     1      -9.417  12.507  65.935  1.00  0.00    -0.111 A  
HETATM   30  C   UNL     1      -8.053  12.536  66.282  1.00  0.00     0.607 A  
HETATM   31  C   UNL     1      -7.401  11.396  66.771  1.00  0.00    -0.135 A  
HETATM   32  C   UNL     1      -8.105  10.206  66.928  1.00  0.00    -0.121 A  
HETATM   33  C   UNL     1      -9.449  10.142  66.581  1.00  0.00    -0.211 A  
HETATM   34 CL   UNL     1      -7.318   8.815  67.561  1.00  0.00    -0.081 Cl 
HETATM   35  C   UNL     1     -10.092  11.278  66.081  1.00  0.00    -0.279 A  
ENDBRANCH  26  29
ENDBRANCH  17  19
ENDBRANCH  11  17
ENDBRANCH   7   9
ENDBRANCH   4   7
ENDBRANCH   3   4
ENDBRANCH   2   3
TORSDOF 7
ENDMDL
MODEL      232
REMARK 921   NORMALIZED FREE ENERGY PREDICTED BY IDOCK:    7.06 KCAL/MOL
REMARK 922        TOTAL FREE ENERGY PREDICTED BY IDOCK:    8.19 KCAL/MOL
REMARK 923 INTER-LIGAND FREE ENERGY PREDICTED BY IDOCK:    8.02 KCAL/MOL
REMARK 924 INTRA-LIGAND FREE ENERGY PREDICTED BY IDOCK:    0.18 KCAL/MOL
REMARK 927      BINDING AFFINITY PREDICTED BY RF-SCORE:    0.00 PKD
ROOT
HETATM    1  C   UNL     1      -7.220  14.571  73.573  1.00  0.00     4.661 C  
HETATM    2  C   UNL     1      -5.861  14.347  72.928  1.00  0.00     0.183 C  
ENDROOT
BRANCH   2   3
HETATM    3  C   UNL     1      -5.745  15.065  71.587  1.00  0.00     0.256 C  
BRANCH   3   4
HETATM    4  S   UNL     1      -6.691  14.215  70.321  1.00  0.00     0.188 S  
HETATM    5  O   UNL     1      -6.819  15.069  69.161  1.00  0.00    -0.112 OA 
HETATM    6  O   UNL     1      -7.836  13.595  70.943  1.00  0.00     2.965 OA 
BRANCH   4   7
HETATM    7  N   UNL     1      -5.660  12.923  69.963  1.00  0.00    -0.113 N  
HETATM    8  H   UNL     1      -4.764  13.075  69.498  1.00  0.00     0.000 HD 
BRANCH   7   9
HETATM    9  C   UNL     1      -6.089  11.611  70.334  1.00  0.00    -0.074 A  
HETATM   10  C   UNL     1      -7.328  11.121  69.902  1.00  0.00     0.282 A  
HETATM   11  C   UNL     1      -7.641   9.766  70.039  1.00  0.00    -0.169 A  
HETATM   12  F   UNL     1      -8.171  11.964  69.285  1.00  0.00     0.056 F  
HETATM   13  C   UNL     1      -5.246  10.803  71.093  1.00  0.00    -0.096 A  
HETATM   14  C   UNL     1      -6.790   8.966  70.804  1.00  0.00    -0.067 A  
HETATM   15  C   UNL     1      -5.614   9.483  71.353  1.00  0.00    -0.073 A  
HETATM   16  F   UNL     1      -7.048   7.666  71.005  1.00  0.00    -0.052 F  
BRANCH  11  17
HETATM   17  C   UNL     1      -8.806   9.148  69.363  1.00  0.00    -0.146 C  
HETATM   18  O   UNL     1      -9.813   8.910  70.026  1.00  0.00    -0.166 OA 
BRANCH  17  19
HETATM   19  C   UNL     1      -8.762   8.853  67.925  1.00  0.00    -0.129 A  
HETATM   20  C   UNL     1      -8.377   7.616  67.426  1.00  0.00    -0.116 A  
HETATM   21  N   UNL     1      -8.605   7.595  66.076  1.00  0.00    -0.146 NA 
HETATM   22  C   UNL     1      -9.092   8.807  65.676  1.00  0.00    -0.191 A  
HETATM   23  H   UNL     1      -8.436   6.798  65.463  1.00  0.00     0.000 HD 
HETATM   24  N   UNL     1      -9.490   9.092  64.423  1.00  0.00     0.430 NA 
HETATM   25  C   UNL     1      -9.929  10.372  64.284  1.00  0.00    -0.298 A  
HETATM   26  C   UNL     1      -9.935  11.370  65.264  1.00  0.00    -0.303 A  
HETATM   27  C   UNL     1      -9.461  10.992  66.532  1.00  0.00    -0.211 A  
HETATM   28  C   UNL     1      -9.092   9.654  66.777  1.00  0.00    -0.171 A  
BRANCH  26  29
HETATM   29  C   UNL     1     -10.452  12.737  65.025  1.00  0.00    -0.334 A  
HETATM   30  C   UNL     1      -9.590  13.836  64.848  1.00  0.00     0.411 A  
HETATM   31  C   UNL     1     -10.088  15.113  64.553  1.00  0.00     0.680 A  
HETATM   32  C   UNL     1     -11.459  15.311  64.423  1.00  0.00    -0.239 A  
HETATM   33  C   UNL     1     -12.336  14.249  64.605  1.00  0.00    -0.433 A  
HETATM   34 CL   UNL     1     -12.071  16.867  64.026  1.00  0.00     1.946 Cl 
HETATM   35  C   UNL     1     -11.835  12.980  64.913  1.00  0.00    -0.404 A  
ENDBRANCH  26  29
ENDBRANCH  17  19
ENDBRANCH  11  17
ENDBRANCH   7   9
ENDBRANCH   4   7
ENDBRANCH   3   4
ENDBRANCH   2   3
TORSDOF 7
ENDMDL
MODEL      233
REMARK 921   NORMALIZED FREE ENERGY PREDICTED BY IDOCK:    7.06 KCAL/MOL
REMARK 922        TOTAL FREE ENERGY PREDICTED BY IDOCK:    8.20 KCAL/MOL
REMARK 923 INTER-LIGAND FREE ENERGY PREDICTED BY IDOCK:    3.42 KCAL/MOL
REMARK 924 INTRA-LIGAND FREE ENERGY PREDICTED BY IDOCK:    4.77 KCAL/MOL
REMARK 927      BINDING AFFINITY PREDICTED BY RF-SCORE:    0.00 PKD
ROOT
HETATM    1  C   UNL     1     -12.604  11.385  66.894  1.00  0.00     3.177 C  
HETATM    2  C   UNL     1     -11.823  12.361  66.029  1.00  0.00    -0.459 C  
ENDROOT
BRANCH   2   3
HETATM    3  C   UNL     1     -10.366  11.937  65.870  1.00  0.00    -0.242 C  
BRANCH   3   4
HETATM    4  S   UNL     1      -9.976  10.565  66.960  1.00  0.00    -0.209 S  
HETATM    5  O   UNL     1      -9.374   9.497  66.194  1.00  0.00    -0.167 OA 
HETATM    6  O   UNL     1     -11.104  10.337  67.832  1.00  0.00    -0.291 OA 
BRANCH   4   7
HETATM    7  N   UNL     1      -8.811  11.272  67.962  1.00  0.00    -0.143 N  
HETATM    8  H   UNL     1      -8.184  10.700  68.528  1.00  0.00     0.000 HD 
BRANCH   7   9
HETATM    9  C   UNL     1      -8.737  12.700  67.986  1.00  0.00    -0.190 A  
HETATM   10  C   UNL     1      -9.620  13.443  68.781  1.00  0.00     0.043 A  
HETATM   11  C   UNL     1      -9.392  14.801  69.012  1.00  0.00    -0.160 A  
HETATM   12  F   UNL     1     -10.638  12.802  69.378  1.00  0.00    -0.113 F  
HETATM   13  C   UNL     1      -7.751  13.348  67.247  1.00  0.00    -0.092 A  
HETATM   14  C   UNL     1      -8.403  15.442  68.263  1.00  0.00    -0.150 A  
HETATM   15  C   UNL     1      -7.604  14.730  67.365  1.00  0.00    -0.228 A  
HETATM   16  F   UNL     1      -8.156  16.751  68.408  1.00  0.00    -0.183 F  
BRANCH  11  17
HETATM   17  C   UNL     1     -10.126  15.564  70.049  1.00  0.00    -0.228 C  
HETATM   18  O   UNL     1      -9.596  16.565  70.529  1.00  0.00     1.336 OA 
BRANCH  17  19
HETATM   19  C   UNL     1     -11.468  15.144  70.473  1.00  0.00    -0.342 A  
HETATM   20  C   UNL     1     -12.529  16.032  70.586  1.00  0.00    -0.047 A  
HETATM   21  N   UNL     1     -13.674  15.320  70.827  1.00  0.00    -0.766 NA 
HETATM   22  C   UNL     1     -13.376  13.990  70.914  1.00  0.00    -0.115 A  
HETATM   23  H   UNL     1     -14.606  15.722  70.926  1.00  0.00     0.000 HD 
HETATM   24  N   UNL     1     -14.289  13.014  71.069  1.00  0.00     2.152 NA 
HETATM   25  C   UNL     1     -13.733  11.774  71.134  1.00  0.00     1.244 A  
HETATM   26  C   UNL     1     -12.370  11.462  71.121  1.00  0.00    -0.404 A  
HETATM   27  C   UNL     1     -11.488  12.550  70.999  1.00  0.00     1.576 A  
HETATM   28  C   UNL     1     -11.997  13.852  70.817  1.00  0.00    -0.348 A  
BRANCH  26  29
HETATM   29  C   UNL     1     -11.856  10.074  71.178  1.00  0.00    -0.481 A  
HETATM   30  C   UNL     1     -10.538   9.786  71.582  1.00  0.00     0.344 A  
HETATM   31  C   UNL     1     -10.083   8.466  71.699  1.00  0.00    -0.308 A  
HETATM   32  C   UNL     1     -10.943   7.408  71.421  1.00  0.00    -0.235 A  
HETATM   33  C   UNL     1     -12.245   7.659  71.007  1.00  0.00    -0.261 A  
HETATM   34 CL   UNL     1     -10.400   5.787  71.599  1.00  0.00    -0.255 Cl 
HETATM   35  C   UNL     1     -12.690   8.979  70.878  1.00  0.00    -0.028 A  
ENDBRANCH  26  29
ENDBRANCH  17  19
ENDBRANCH  11  17
ENDBRANCH   7   9
ENDBRANCH   4   7
ENDBRANCH   3   4
ENDBRANCH   2   3
TORSDOF 7
ENDMDL
MODEL      234
REMARK 921   NORMALIZED FREE ENERGY PREDICTED BY IDOCK:    7.91 KCAL/MOL
REMARK 922        TOTAL FREE ENERGY PREDICTED BY IDOCK:    9.39 KCAL/MOL
REMARK 923 INTER-LIGAND FREE ENERGY PREDICTED BY IDOCK:    2.50 KCAL/MOL
REMARK 924 INTRA-LIGAND FREE ENERGY PREDICTED BY IDOCK:    6.89 KCAL/MOL
REMARK 927      BINDING AFFINITY PREDICTED BY RF-SCORE:    0.00 PKD
ROOT
HETATM    1  C   UNL     1      -8.053  12.617  70.339  1.00  0.00     4.641 C  
HETATM    2  C   UNL     1      -7.351  11.291  70.089  1.00  0.00     0.850 C  
ENDROOT
BRANCH   2   3
HETATM    3  C   UNL     1      -8.234  10.104  70.462  1.00  0.00     0.593 C  
BRANCH   3   4
HETATM    4  S   UNL     1      -9.506   9.839  69.224  1.00  0.00    -0.207 S  
HETATM    5  O   UNL     1      -9.635   8.423  68.962  1.00  0.00    -0.157 OA 
HETATM    6  O   UNL     1      -9.319  10.798  68.161  1.00  0.00    -0.146 OA 
BRANCH   4   7
HETATM    7  N   UNL     1     -10.876  10.392  70.048  1.00  0.00    -0.321 N  
HETATM    8  H   UNL     1     -11.495   9.745  70.537  1.00  0.00     0.000 HD 
BRANCH   7   9
HETATM    9  C   UNL     1     -11.134  11.798  70.035  1.00  0.00     0.233 A  
HETATM   10  C   UNL     1     -10.503  12.627  69.099  1.00  0.00     0.119 A  
HETATM   11  C   UNL     1     -10.938  13.941  68.910  1.00  0.00    -0.290 A  
HETATM   12  F   UNL     1      -9.528  12.106  68.336  1.00  0.00    -0.195 F  
HETATM   13  C   UNL     1     -12.055  12.334  70.932  1.00  0.00    -0.162 A  
HETATM   14  C   UNL     1     -11.858  14.469  69.817  1.00  0.00    -0.315 A  
HETATM   15  C   UNL     1     -12.394  13.684  70.840  1.00  0.00    -0.450 A  
HETATM   16  F   UNL     1     -12.292  15.733  69.715  1.00  0.00    -0.369 F  
BRANCH  11  17
HETATM   17  C   UNL     1     -10.496  14.765  67.760  1.00  0.00    -0.254 C  
HETATM   18  O   UNL     1     -11.346  15.198  66.985  1.00  0.00    -0.336 OA 
BRANCH  17  19
HETATM   19  C   UNL     1      -9.073  15.078  67.571  1.00  0.00    -0.189 A  
HETATM   20  C   UNL     1      -8.563  16.362  67.711  1.00  0.00    -0.168 A  
HETATM   21  N   UNL     1      -7.197  16.302  67.648  1.00  0.00    -0.129 NA 
HETATM   22  C   UNL     1      -6.805  15.012  67.428  1.00  0.00    -0.111 A  
HETATM   23  H   UNL     1      -6.568  17.098  67.749  1.00  0.00     0.000 HD 
HETATM   24  N   UNL     1      -5.525  14.601  67.389  1.00  0.00    -0.304 NA 
HETATM   25  C   UNL     1      -5.403  13.268  67.148  1.00  0.00     0.493 A  
HETATM   26  C   UNL     1      -6.436  12.362  66.887  1.00  0.00     0.154 A  
HETATM   27  C   UNL     1      -7.739  12.891  66.906  1.00  0.00     0.156 A  
HETATM   28  C   UNL     1      -7.947  14.240  67.256  1.00  0.00    -0.191 A  
BRANCH  26  29
HETATM   29  C   UNL     1      -6.208  10.918  66.652  1.00  0.00    -0.113 A  
HETATM   30  C   UNL     1      -6.125  10.381  65.354  1.00  0.00    -0.132 A  
HETATM   31  C   UNL     1      -5.840   9.025  65.143  1.00  0.00    -0.058 A  
HETATM   32  C   UNL     1      -5.625   8.183  66.229  1.00  0.00    -0.032 A  
HETATM   33  C   UNL     1      -5.714   8.680  67.523  1.00  0.00    -0.039 A  
HETATM   34 CL   UNL     1      -5.240   6.527  65.974  1.00  0.00    -0.016 Cl 
HETATM   35  C   UNL     1      -6.012  10.031  67.730  1.00  0.00    -0.050 A  
ENDBRANCH  26  29
ENDBRANCH  17  19
ENDBRANCH  11  17
ENDBRANCH   7   9
ENDBRANCH   4   7
ENDBRANCH   3   4
ENDBRANCH   2   3
TORSDOF 7
ENDMDL
MODEL      235
REMARK 921   NORMALIZED FREE ENERGY PREDICTED BY IDOCK:    9.42 KCAL/MOL
REMARK 922        TOTAL FREE ENERGY PREDICTED BY IDOCK:   11.53 KCAL/MOL
REMARK 923 INTER-LIGAND FREE ENERGY PREDICTED BY IDOCK:    5.56 KCAL/MOL
REMARK 924 INTRA-LIGAND FREE ENERGY PREDICTED BY IDOCK:    5.97 KCAL/MOL
REMARK 927      BINDING AFFINITY PREDICTED BY RF-SCORE:    0.00 PKD
ROOT
HETATM    1  C   UNL     1      -6.792  13.236  66.984  1.00  0.00     0.492 C  
HETATM    2  C   UNL     1      -7.709  14.239  66.302  1.00  0.00     2.008 C  
ENDROOT
BRANCH   2   3
HETATM    3  C   UNL     1      -8.686  13.558  65.349  1.00  0.00     1.991 C  
BRANCH   3   4
HETATM    4  S   UNL     1      -8.264  11.828  65.127  1.00  0.00     1.357 S  
HETATM    5  O   UNL     1      -7.224  11.463  66.062  1.00  0.00     0.046 OA 
HETATM    6  O   UNL     1      -8.146  11.563  63.713  1.00  0.00     0.804 OA 
BRANCH   4   7
HETATM    7  N   UNL     1      -9.715  11.084  65.572  1.00  0.00    -0.216 N  
HETATM    8  H   UNL     1     -10.613  11.541  65.415  1.00  0.00     0.000 HD 
BRANCH   7   9
HETATM    9  C   UNL     1      -9.638   9.790  66.175  1.00  0.00    -0.227 A  
HETATM   10  C   UNL     1      -9.428   8.650  65.388  1.00  0.00     0.147 A  
HETATM   11  C   UNL     1      -9.096   7.431  65.982  1.00  0.00    -0.129 A  
HETATM   12  F   UNL     1      -9.475   8.777  64.052  1.00  0.00     0.258 F  
HETATM   13  C   UNL     1      -9.728   9.673  67.560  1.00  0.00    -0.195 A  
HETATM   14  C   UNL     1      -9.193   7.324  67.371  1.00  0.00    -0.128 A  
HETATM   15  C   UNL     1      -9.534   8.427  68.156  1.00  0.00    -0.148 A  
HETATM   16  F   UNL     1      -8.923   6.173  68.003  1.00  0.00    -0.116 F  
BRANCH  11  17
HETATM   17  C   UNL     1      -8.601   6.274  65.197  1.00  0.00    -0.023 C  
HETATM   18  O   UNL     1      -8.976   6.149  64.034  1.00  0.00     0.439 OA 
BRANCH  17  19
HETATM   19  C   UNL     1      -7.662   5.317  65.795  1.00  0.00    -0.091 A  
HETATM   20  C   UNL     1      -7.161   4.225  65.099  1.00  0.00    -0.063 A  
HETATM   21  N   UNL     1      -6.187   3.630  65.855  1.00  0.00    -0.031 NA 
HETATM   22  C   UNL     1      -6.070   4.284  67.049  1.00  0.00    -0.028 A  
HETATM   23  H   UNL     1      -5.634   2.821  65.572  1.00  0.00     0.000 HD 
HETATM   24  N   UNL     1      -5.152   3.996  67.988  1.00  0.00    -0.007 NA 
HETATM   25  C   UNL     1      -5.251   4.792  69.087  1.00  0.00    -0.004 A  
HETATM   26  C   UNL     1      -6.214   5.777  69.329  1.00  0.00    -0.032 A  
HETATM   27  C   UNL     1      -7.160   5.979  68.308  1.00  0.00    -0.082 A  
HETATM   28  C   UNL     1      -7.052   5.266  67.096  1.00  0.00    -0.070 A  
BRANCH  26  29
HETATM   29  C   UNL     1      -6.232   6.610  70.554  1.00  0.00    -0.035 A  
HETATM   30  C   UNL     1      -6.554   6.071  71.814  1.00  0.00    -0.055 A  
HETATM   31  C   UNL     1      -6.501   6.852  72.976  1.00  0.00    -0.062 A  
HETATM   32  C   UNL     1      -6.116   8.186  72.899  1.00  0.00    -0.068 A  
HETATM   33  C   UNL     1      -5.806   8.752  71.668  1.00  0.00    -0.056 A  
HETATM   34 CL   UNL     1      -6.015   9.138  74.326  1.00  0.00    -0.090 Cl 
HETATM   35  C   UNL     1      -5.874   7.972  70.509  1.00  0.00    -0.029 A  
ENDBRANCH  26  29
ENDBRANCH  17  19
ENDBRANCH  11  17
ENDBRANCH   7   9
ENDBRANCH   4   7
ENDBRANCH   3   4
ENDBRANCH   2   3
TORSDOF 7
ENDMDL
MODEL      236
REMARK 921   NORMALIZED FREE ENERGY PREDICTED BY IDOCK:    9.43 KCAL/MOL
REMARK 922        TOTAL FREE ENERGY PREDICTED BY IDOCK:   11.54 KCAL/MOL
REMARK 923 INTER-LIGAND FREE ENERGY PREDICTED BY IDOCK:    4.58 KCAL/MOL
REMARK 924 INTRA-LIGAND FREE ENERGY PREDICTED BY IDOCK:    6.96 KCAL/MOL
REMARK 927      BINDING AFFINITY PREDICTED BY RF-SCORE:    0.00 PKD
ROOT
HETATM    1  C   UNL     1     -13.058  11.152  66.974  1.00  0.00     7.660 C  
HETATM    2  C   UNL     1     -11.844  11.770  66.298  1.00  0.00     0.027 C  
ENDROOT
BRANCH   2   3
HETATM    3  C   UNL     1     -10.600  10.904  66.466  1.00  0.00    -0.237 C  
BRANCH   3   4
HETATM    4  S   UNL     1     -10.803   9.746  67.822  1.00  0.00    -0.181 S  
HETATM    5  O   UNL     1     -10.729   8.394  67.315  1.00  0.00    -0.285 OA 
HETATM    6  O   UNL     1     -11.900  10.193  68.646  1.00  0.00    -0.073 OA 
BRANCH   4   7
HETATM    7  N   UNL     1      -9.424  10.083  68.741  1.00  0.00    -0.155 N  
HETATM    8  H   UNL     1      -9.260   9.622  69.636  1.00  0.00     0.000 HD 
BRANCH   7   9
HETATM    9  C   UNL     1      -8.498  11.040  68.220  1.00  0.00    -0.138 A  
HETATM   10  C   UNL     1      -8.753  12.412  68.337  1.00  0.00    -0.132 A  
HETATM   11  C   UNL     1      -7.748  13.344  68.068  1.00  0.00    -0.147 A  
HETATM   12  F   UNL     1      -9.955  12.804  68.788  1.00  0.00    -0.207 F  
HETATM   13  C   UNL     1      -7.315  10.598  67.633  1.00  0.00    -0.090 A  
HETATM   14  C   UNL     1      -6.567  12.891  67.476  1.00  0.00    -0.157 A  
HETATM   15  C   UNL     1      -6.359  11.532  67.232  1.00  0.00    -0.107 A  
HETATM   16  F   UNL     1      -5.576  13.736  67.160  1.00  0.00     0.072 F  
BRANCH  11  17
HETATM   17  C   UNL     1      -7.875  14.775  68.433  1.00  0.00    -0.128 C  
HETATM   18  O   UNL     1      -6.850  15.435  68.591  1.00  0.00    -0.102 OA 
BRANCH  17  19
HETATM   19  C   UNL     1      -9.199  15.393  68.575  1.00  0.00    -0.198 A  
HETATM   20  C   UNL     1      -9.515  16.624  68.016  1.00  0.00    -0.224 A  
HETATM   21  N   UNL     1     -10.857  16.846  68.170  1.00  0.00    -0.370 NA 
HETATM   22  C   UNL     1     -11.418  15.804  68.854  1.00  0.00    -0.378 A  
HETATM   23  H   UNL     1     -11.362  17.663  67.827  1.00  0.00     0.000 HD 
HETATM   24  N   UNL     1     -12.733  15.678  69.105  1.00  0.00     0.332 NA 
HETATM   25  C   UNL     1     -13.033  14.553  69.809  1.00  0.00     0.334 A  
HETATM   26  C   UNL     1     -12.130  13.614  70.318  1.00  0.00    -0.427 A  
HETATM   27  C   UNL     1     -10.772  13.852  70.043  1.00  0.00     0.472 A  
HETATM   28  C   UNL     1     -10.398  14.938  69.226  1.00  0.00    -0.240 A  
BRANCH  26  29
HETATM   29  C   UNL     1     -12.552  12.405  71.062  1.00  0.00    -0.349 A  
HETATM   30  C   UNL     1     -13.464  12.472  72.132  1.00  0.00    -0.523 A  
HETATM   31  C   UNL     1     -13.910  11.314  72.784  1.00  0.00     1.463 A  
HETATM   32  C   UNL     1     -13.456  10.065  72.369  1.00  0.00    -0.135 A  
HETATM   33  C   UNL     1     -12.545   9.967  71.325  1.00  0.00    -0.495 A  
HETATM   34 CL   UNL     1     -14.027   8.640  73.142  1.00  0.00     0.181 Cl 
HETATM   35  C   UNL     1     -12.092  11.127  70.687  1.00  0.00    -0.477 A  
ENDBRANCH  26  29
ENDBRANCH  17  19
ENDBRANCH  11  17
ENDBRANCH   7   9
ENDBRANCH   4   7
ENDBRANCH   3   4
ENDBRANCH   2   3
TORSDOF 7
ENDMDL
MODEL      237
REMARK 921   NORMALIZED FREE ENERGY PREDICTED BY IDOCK:    9.90 KCAL/MOL
REMARK 922        TOTAL FREE ENERGY PREDICTED BY IDOCK:   12.20 KCAL/MOL
REMARK 923 INTER-LIGAND FREE ENERGY PREDICTED BY IDOCK:    9.09 KCAL/MOL
REMARK 924 INTRA-LIGAND FREE ENERGY PREDICTED BY IDOCK:    3.11 KCAL/MOL
REMARK 927      BINDING AFFINITY PREDICTED BY RF-SCORE:    0.00 PKD
ROOT
HETATM    1  C   UNL     1     -13.869  14.880  70.831  1.00  0.00    -0.206 C  
HETATM    2  C   UNL     1     -13.215  16.206  70.477  1.00  0.00     1.468 C  
ENDROOT
BRANCH   2   3
HETATM    3  C   UNL     1     -12.014  16.502  71.369  1.00  0.00     0.142 C  
BRANCH   3   4
HETATM    4  S   UNL     1     -11.070  15.010  71.690  1.00  0.00     0.243 S  
HETATM    5  O   UNL     1     -11.976  13.908  71.923  1.00  0.00     0.043 OA 
HETATM    6  O   UNL     1     -10.005  15.330  72.610  1.00  0.00     2.936 OA 
BRANCH   4   7
HETATM    7  N   UNL     1     -10.289  14.799  70.204  1.00  0.00    -0.459 N  
HETATM    8  H   UNL     1      -9.443  15.320  69.974  1.00  0.00     0.000 HD 
BRANCH   7   9
HETATM    9  C   UNL     1     -10.859  13.865  69.284  1.00  0.00    -0.135 A  
HETATM   10  C   UNL     1     -11.282  12.604  69.723  1.00  0.00     0.075 A  
HETATM   11  C   UNL     1     -12.067  11.793  68.899  1.00  0.00    -0.238 A  
HETATM   12  F   UNL     1     -10.986  12.229  70.978  1.00  0.00     1.418 F  
HETATM   13  C   UNL     1     -11.032  14.233  67.952  1.00  0.00    -0.278 A  
HETATM   14  C   UNL     1     -12.231  12.171  67.564  1.00  0.00     0.396 A  
HETATM   15  C   UNL     1     -11.695  13.368  67.083  1.00  0.00    -0.424 A  
HETATM   16  F   UNL     1     -12.942  11.422  66.709  1.00  0.00     2.483 F  
BRANCH  11  17
HETATM   17  C   UNL     1     -12.763  10.586  69.403  1.00  0.00     0.582 C  
HETATM   18  O   UNL     1     -13.795  10.224  68.841  1.00  0.00     3.808 OA 
BRANCH  17  19
HETATM   19  C   UNL     1     -12.213   9.827  70.533  1.00  0.00    -0.205 A  
HETATM   20  C   UNL     1     -12.277  10.282  71.843  1.00  0.00    -0.042 A  
HETATM   21  N   UNL     1     -11.843   9.287  72.677  1.00  0.00     0.292 NA 
HETATM   22  C   UNL     1     -11.458   8.205  71.936  1.00  0.00    -0.299 A  
HETATM   23  H   UNL     1     -11.812   9.344  73.694  1.00  0.00     0.000 HD 
HETATM   24  N   UNL     1     -11.053   7.032  72.455  1.00  0.00    -0.261 NA 
HETATM   25  C   UNL     1     -10.720   6.119  71.504  1.00  0.00    -0.252 A  
HETATM   26  C   UNL     1     -10.701   6.314  70.120  1.00  0.00    -0.346 A  
HETATM   27  C   UNL     1     -11.099   7.586  69.671  1.00  0.00    -0.099 A  
HETATM   28  C   UNL     1     -11.562   8.546  70.594  1.00  0.00    -0.214 A  
BRANCH  26  29
HETATM   29  C   UNL     1     -10.338   5.250  69.155  1.00  0.00    -0.264 A  
HETATM   30  C   UNL     1     -10.562   5.394  67.773  1.00  0.00    -0.172 A  
HETATM   31  C   UNL     1     -10.152   4.411  66.862  1.00  0.00    -0.159 A  
HETATM   32  C   UNL     1      -9.504   3.268  67.319  1.00  0.00    -0.148 A  
HETATM   33  C   UNL     1      -9.281   3.091  68.678  1.00  0.00    -0.231 A  
HETATM   34 CL   UNL     1      -8.967   2.076  66.202  1.00  0.00    -0.121 Cl 
HETATM   35  C   UNL     1      -9.704   4.068  69.585  1.00  0.00    -0.245 A  
ENDBRANCH  26  29
ENDBRANCH  17  19
ENDBRANCH  11  17
ENDBRANCH   7   9
ENDBRANCH   4   7
ENDBRANCH   3   4
ENDBRANCH   2   3
TORSDOF 7
ENDMDL
MODEL      238
REMARK 921   NORMALIZED FREE ENERGY PREDICTED BY IDOCK:   10.50 KCAL/MOL
REMARK 922        TOTAL FREE ENERGY PREDICTED BY IDOCK:   13.04 KCAL/MOL
REMARK 923 INTER-LIGAND FREE ENERGY PREDICTED BY IDOCK:    9.94 KCAL/MOL
REMARK 924 INTRA-LIGAND FREE ENERGY PREDICTED BY IDOCK:    3.10 KCAL/MOL
REMARK 927      BINDING AFFINITY PREDICTED BY RF-SCORE:    0.00 PKD
ROOT
HETATM    1  C   UNL     1     -11.263  18.303  69.639  1.00  0.00     2.588 C  
HETATM    2  C   UNL     1     -10.609  18.492  70.998  1.00  0.00     2.657 C  
ENDROOT
BRANCH   2   3
HETATM    3  C   UNL     1     -10.515  17.179  71.769  1.00  0.00     3.521 C  
BRANCH   3   4
HETATM    4  S   UNL     1     -11.652  17.168  73.158  1.00  0.00     1.230 S  
HETATM    5  O   UNL     1     -11.719  18.491  73.735  1.00  0.00     1.245 OA 
HETATM    6  O   UNL     1     -11.386  15.998  73.959  1.00  0.00     0.725 OA 
BRANCH   4   7
HETATM    7  N   UNL     1     -13.110  16.815  72.375  1.00  0.00     0.917 N  
HETATM    8  H   UNL     1     -13.798  17.544  72.188  1.00  0.00     0.000 HD 
BRANCH   7   9
HETATM    9  C   UNL     1     -13.341  15.459  71.987  1.00  0.00    -0.450 A  
HETATM   10  C   UNL     1     -12.645  14.901  70.907  1.00  0.00    -0.341 A  
HETATM   11  C   UNL     1     -12.670  13.522  70.685  1.00  0.00    -0.275 A  
HETATM   12  F   UNL     1     -11.891  15.709  70.144  1.00  0.00    -0.278 F  
HETATM   13  C   UNL     1     -14.234  14.679  72.718  1.00  0.00     0.076 A  
HETATM   14  C   UNL     1     -13.571  12.751  71.422  1.00  0.00     0.294 A  
HETATM   15  C   UNL     1     -14.370  13.325  72.413  1.00  0.00    -0.191 A  
HETATM   16  F   UNL     1     -13.672  11.427  71.235  1.00  0.00    -0.040 F  
BRANCH  11  17
HETATM   17  C   UNL     1     -11.746  12.853  69.739  1.00  0.00    -0.281 C  
HETATM   18  O   UNL     1     -12.049  11.744  69.306  1.00  0.00    -0.292 OA 
BRANCH  17  19
HETATM   19  C   UNL     1     -10.509  13.519  69.310  1.00  0.00     0.108 A  
HETATM   20  C   UNL     1     -10.080  14.724  69.851  1.00  0.00     0.162 A  
HETATM   21  N   UNL     1      -8.824  14.995  69.380  1.00  0.00    -0.402 NA 
HETATM   22  C   UNL     1      -8.439  14.016  68.510  1.00  0.00    -0.143 A  
HETATM   23  H   UNL     1      -8.262  15.806  69.639  1.00  0.00     0.000 HD 
HETATM   24  N   UNL     1      -7.229  13.946  67.929  1.00  0.00    -0.139 NA 
HETATM   25  C   UNL     1      -7.100  12.875  67.099  1.00  0.00     0.040 A  
HETATM   26  C   UNL     1      -8.088  11.941  66.771  1.00  0.00    -0.108 A  
HETATM   27  C   UNL     1      -9.336  12.119  67.394  1.00  0.00    -0.181 A  
HETATM   28  C   UNL     1      -9.508  13.142  68.349  1.00  0.00    -0.166 A  
BRANCH  26  29
HETATM   29  C   UNL     1      -7.850  10.793  65.867  1.00  0.00    -0.131 A  
HETATM   30  C   UNL     1      -8.150  10.855  64.492  1.00  0.00     0.254 A  
HETATM   31  C   UNL     1      -7.857   9.788  63.633  1.00  0.00    -0.142 A  
HETATM   32  C   UNL     1      -7.250   8.640  64.133  1.00  0.00    -0.092 A  
HETATM   33  C   UNL     1      -6.955   8.542  65.487  1.00  0.00    -0.074 A  
HETATM   34 CL   UNL     1      -6.856   7.343  63.077  1.00  0.00    -0.057 Cl 
HETATM   35  C   UNL     1      -7.262   9.604  66.343  1.00  0.00    -0.094 A  
ENDBRANCH  26  29
ENDBRANCH  17  19
ENDBRANCH  11  17
ENDBRANCH   7   9
ENDBRANCH   4   7
ENDBRANCH   3   4
ENDBRANCH   2   3
TORSDOF 7
ENDMDL
MODEL      239
REMARK 921   NORMALIZED FREE ENERGY PREDICTED BY IDOCK:   10.78 KCAL/MOL
REMARK 922        TOTAL FREE ENERGY PREDICTED BY IDOCK:   13.44 KCAL/MOL
REMARK 923 INTER-LIGAND FREE ENERGY PREDICTED BY IDOCK:   11.88 KCAL/MOL
REMARK 924 INTRA-LIGAND FREE ENERGY PREDICTED BY IDOCK:    1.55 KCAL/MOL
REMARK 927      BINDING AFFINITY PREDICTED BY RF-SCORE:    0.00 PKD
ROOT
HETATM    1  C   UNL     1      -5.458  16.006  67.215  1.00  0.00    -0.018 C  
HETATM    2  C   UNL     1      -5.963  17.163  68.062  1.00  0.00    -0.127 C  
ENDROOT
BRANCH   2   3
HETATM    3  C   UNL     1      -7.064  16.724  69.022  1.00  0.00    -0.221 C  
BRANCH   3   4
HETATM    4  S   UNL     1      -6.703  15.108  69.716  1.00  0.00    -0.166 S  
HETATM    5  O   UNL     1      -6.009  15.269  70.974  1.00  0.00     0.043 OA 
HETATM    6  O   UNL     1      -6.190  14.263  68.665  1.00  0.00    -0.080 OA 
BRANCH   4   7
HETATM    7  N   UNL     1      -8.264  14.524  69.998  1.00  0.00    -0.013 N  
HETATM    8  H   UNL     1      -8.980  15.113  70.424  1.00  0.00     0.000 HD 
BRANCH   7   9
HETATM    9  C   UNL     1      -8.545  13.174  69.618  1.00  0.00     1.840 A  
HETATM   10  C   UNL     1      -8.181  12.111  70.454  1.00  0.00     4.736 A  
HETATM   11  C   UNL     1      -8.674  10.826  70.221  1.00  0.00     1.479 A  
HETATM   12  F   UNL     1      -7.415  12.373  71.526  1.00  0.00     5.035 F  
HETATM   13  C   UNL     1      -9.226  12.924  68.429  1.00  0.00    -0.137 A  
HETATM   14  C   UNL     1      -9.352  10.585  69.025  1.00  0.00    -0.196 A  
HETATM   15  C   UNL     1      -9.603  11.618  68.118  1.00  0.00    -0.190 A  
HETATM   16  F   UNL     1      -9.822   9.367  68.721  1.00  0.00    -0.152 F  
BRANCH  11  17
HETATM   17  C   UNL     1      -8.546   9.734  71.215  1.00  0.00     1.106 C  
HETATM   18  O   UNL     1      -7.743   9.868  72.137  1.00  0.00     1.241 OA 
BRANCH  17  19
HETATM   19  C   UNL     1      -9.382   8.531  71.112  1.00  0.00    -0.249 A  
HETATM   20  C   UNL     1     -10.492   8.318  71.919  1.00  0.00    -0.274 A  
HETATM   21  N   UNL     1     -11.156   7.209  71.470  1.00  0.00    -0.236 NA 
HETATM   22  C   UNL     1     -10.481   6.667  70.412  1.00  0.00    -0.211 A  
HETATM   23  H   UNL     1     -12.022   6.842  71.864  1.00  0.00     0.000 HD 
HETATM   24  N   UNL     1     -10.909   5.614  69.695  1.00  0.00    -0.337 NA 
HETATM   25  C   UNL     1     -10.051   5.267  68.698  1.00  0.00    -0.168 A  
HETATM   26  C   UNL     1      -8.806   5.841  68.423  1.00  0.00    -0.109 A  
HETATM   27  C   UNL     1      -8.422   6.910  69.253  1.00  0.00    -0.129 A  
HETATM   28  C   UNL     1      -9.310   7.393  70.235  1.00  0.00    -0.162 A  
BRANCH  26  29
HETATM   29  C   UNL     1      -7.943   5.407  67.300  1.00  0.00    -0.101 A  
HETATM   30  C   UNL     1      -8.330   4.376  66.423  1.00  0.00    -0.105 A  
HETATM   31  C   UNL     1      -7.538   4.021  65.322  1.00  0.00    -0.081 A  
HETATM   32  C   UNL     1      -6.348   4.697  65.076  1.00  0.00    -0.035 A  
HETATM   33  C   UNL     1      -5.932   5.709  65.931  1.00  0.00    -0.025 A  
HETATM   34 CL   UNL     1      -5.392   4.288  63.707  1.00  0.00    -0.012 Cl 
HETATM   35  C   UNL     1      -6.718   6.052  67.036  1.00  0.00    -0.058 A  
ENDBRANCH  26  29
ENDBRANCH  17  19
ENDBRANCH  11  17
ENDBRANCH   7   9
ENDBRANCH   4   7
ENDBRANCH   3   4
ENDBRANCH   2   3
TORSDOF 7
ENDMDL
MODEL      240
REMARK 921   NORMALIZED FREE ENERGY PREDICTED BY IDOCK:   10.95 KCAL/MOL
REMARK 922        TOTAL FREE ENERGY PREDICTED BY IDOCK:   13.68 KCAL/MOL
REMARK 923 INTER-LIGAND FREE ENERGY PREDICTED BY IDOCK:   13.29 KCAL/MOL
REMARK 924 INTRA-LIGAND FREE ENERGY PREDICTED BY IDOCK:    0.39 KCAL/MOL
REMARK 927      BINDING AFFINITY PREDICTED BY RF-SCORE:    0.00 PKD
ROOT
HETATM    1  C   UNL     1     -13.853   4.162  73.490  1.00  0.00     4.704 C  
HETATM    2  C   UNL     1     -12.411   3.681  73.514  1.00  0.00     0.920 C  
ENDROOT
BRANCH   2   3
HETATM    3  C   UNL     1     -11.573   4.347  72.427  1.00  0.00     0.680 C  
BRANCH   3   4
HETATM    4  S   UNL     1     -10.742   3.119  71.416  1.00  0.00     1.643 S  
HETATM    5  O   UNL     1     -10.859   3.483  70.022  1.00  0.00     2.290 OA 
HETATM    6  O   UNL     1     -11.107   1.807  71.896  1.00  0.00     0.497 OA 
BRANCH   4   7
HETATM    7  N   UNL     1      -9.140   3.318  71.923  1.00  0.00    -0.103 N  
HETATM    8  H   UNL     1      -8.739   2.725  72.649  1.00  0.00     0.000 HD 
BRANCH   7   9
HETATM    9  C   UNL     1      -8.370   4.346  71.296  1.00  0.00    -0.094 A  
HETATM   10  C   UNL     1      -8.912   5.624  71.109  1.00  0.00    -0.138 A  
HETATM   11  C   UNL     1      -8.093   6.694  70.740  1.00  0.00    -0.119 A  
HETATM   12  F   UNL     1     -10.217   5.812  71.369  1.00  0.00    -0.221 F  
HETATM   13  C   UNL     1      -7.058   4.083  70.912  1.00  0.00    -0.033 A  
HETATM   14  C   UNL     1      -6.780   6.418  70.354  1.00  0.00    -0.050 A  
HETATM   15  C   UNL     1      -6.270   5.119  70.411  1.00  0.00    -0.019 A  
HETATM   16  F   UNL     1      -5.950   7.392  69.956  1.00  0.00    -0.023 F  
BRANCH  11  17
HETATM   17  C   UNL     1      -8.554   8.102  70.794  1.00  0.00    -0.134 C  
HETATM   18  O   UNL     1      -8.721   8.625  71.893  1.00  0.00    -0.191 OA 
BRANCH  17  19
HETATM   19  C   UNL     1      -8.779   8.859  69.556  1.00  0.00    -0.142 A  
HETATM   20  C   UNL     1      -8.623  10.237  69.481  1.00  0.00    -0.138 A  
HETATM   21  N   UNL     1      -8.730  10.622  68.172  1.00  0.00    -0.126 NA 
HETATM   22  C   UNL     1      -8.994   9.530  67.394  1.00  0.00    -0.131 A  
HETATM   23  H   UNL     1      -8.629  11.577  67.830  1.00  0.00     0.000 HD 
HETATM   24  N   UNL     1      -9.082   9.555  66.052  1.00  0.00    -0.164 NA 
HETATM   25  C   UNL     1      -9.359   8.335  65.516  1.00  0.00     0.156 A  
HETATM   26  C   UNL     1      -9.610   7.149  66.212  1.00  0.00    -0.098 A  
HETATM   27  C   UNL     1      -9.538   7.228  67.614  1.00  0.00    -0.160 A  
HETATM   28  C   UNL     1      -9.149   8.434  68.232  1.00  0.00    -0.139 A  
BRANCH  26  29
HETATM   29  C   UNL     1      -9.886   5.858  65.540  1.00  0.00     0.453 A  
HETATM   30  C   UNL     1      -9.289   4.656  65.966  1.00  0.00    -0.156 A  
HETATM   31  C   UNL     1      -9.611   3.431  65.368  1.00  0.00    -0.101 A  
HETATM   32  C   UNL     1     -10.543   3.385  64.336  1.00  0.00    -0.028 A  
HETATM   33  C   UNL     1     -11.139   4.555  63.883  1.00  0.00     0.695 A  
HETATM   34 CL   UNL     1     -10.967   1.879  63.623  1.00  0.00    -0.067 Cl 
HETATM   35  C   UNL     1     -10.805   5.778  64.474  1.00  0.00     3.830 A  
ENDBRANCH  26  29
ENDBRANCH  17  19
ENDBRANCH  11  17
ENDBRANCH   7   9
ENDBRANCH   4   7
ENDBRANCH   3   4
ENDBRANCH   2   3
TORSDOF 7
ENDMDL
MODEL      241
REMARK 921   NORMALIZED FREE ENERGY PREDICTED BY IDOCK:   12.66 KCAL/MOL
REMARK 922        TOTAL FREE ENERGY PREDICTED BY IDOCK:   16.09 KCAL/MOL
REMARK 923 INTER-LIGAND FREE ENERGY PREDICTED BY IDOCK:    9.25 KCAL/MOL
REMARK 924 INTRA-LIGAND FREE ENERGY PREDICTED BY IDOCK:    6.85 KCAL/MOL
REMARK 927      BINDING AFFINITY PREDICTED BY RF-SCORE:    0.00 PKD
ROOT
HETATM    1  C   UNL     1      -7.487  12.816  66.145  1.00  0.00     1.926 C  
HETATM    2  C   UNL     1      -8.041  14.216  65.937  1.00  0.00     2.509 C  
ENDROOT
BRANCH   2   3
HETATM    3  C   UNL     1      -8.888  14.672  67.121  1.00  0.00    -0.221 C  
BRANCH   3   4
HETATM    4  S   UNL     1     -10.473  13.830  67.137  1.00  0.00    -0.274 S  
HETATM    5  O   UNL     1     -11.518  14.763  66.782  1.00  0.00    -0.351 OA 
HETATM    6  O   UNL     1     -10.547  13.017  68.328  1.00  0.00    -0.233 OA 
BRANCH   4   7
HETATM    7  N   UNL     1     -10.256  12.715  65.884  1.00  0.00    -0.269 N  
HETATM    8  H   UNL     1      -9.934  13.012  64.963  1.00  0.00     0.000 HD 
BRANCH   7   9
HETATM    9  C   UNL     1     -10.540  11.341  66.163  1.00  0.00    -0.258 A  
HETATM   10  C   UNL     1     -10.800  10.922  67.474  1.00  0.00    -0.272 A  
HETATM   11  C   UNL     1     -11.328   9.653  67.720  1.00  0.00     0.296 A  
HETATM   12  F   UNL     1     -10.607  11.795  68.476  1.00  0.00    -0.187 F  
HETATM   13  C   UNL     1     -10.602  10.427  65.114  1.00  0.00    -0.034 A  
HETATM   14  C   UNL     1     -11.382   8.743  66.662  1.00  0.00     2.021 A  
HETATM   15  C   UNL     1     -10.996   9.115  65.372  1.00  0.00     3.400 A  
HETATM   16  F   UNL     1     -11.844   7.497  66.836  1.00  0.00     0.693 F  
BRANCH  11  17
HETATM   17  C   UNL     1     -11.872   9.261  69.043  1.00  0.00     1.108 C  
HETATM   18  O   UNL     1     -12.819   9.897  69.500  1.00  0.00     0.558 OA 
BRANCH  17  19
HETATM   19  C   UNL     1     -11.304   8.121  69.773  1.00  0.00     0.127 A  
HETATM   20  C   UNL     1     -11.180   8.104  71.156  1.00  0.00    -0.257 A  
HETATM   21  N   UNL     1     -10.786   6.853  71.547  1.00  0.00    -0.222 NA 
HETATM   22  C   UNL     1     -10.608   6.064  70.447  1.00  0.00    -0.268 A  
HETATM   23  H   UNL     1     -10.645   6.556  72.512  1.00  0.00     0.000 HD 
HETATM   24  N   UNL     1     -10.295   4.757  70.490  1.00  0.00    -0.182 NA 
HETATM   25  C   UNL     1     -10.170   4.201  69.254  1.00  0.00     0.466 A  
HETATM   26  C   UNL     1     -10.268   4.857  68.023  1.00  0.00    -0.105 A  
HETATM   27  C   UNL     1     -10.556   6.232  68.078  1.00  0.00    -0.326 A  
HETATM   28  C   UNL     1     -10.806   6.851  69.319  1.00  0.00    -0.270 A  
BRANCH  26  29
HETATM   29  C   UNL     1     -10.134   4.162  66.722  1.00  0.00    -0.034 A  
HETATM   30  C   UNL     1     -10.346   4.828  65.499  1.00  0.00    -0.162 A  
HETATM   31  C   UNL     1     -10.148   4.180  64.273  1.00  0.00    -0.135 A  
HETATM   32  C   UNL     1      -9.727   2.854  64.247  1.00  0.00    -0.149 A  
HETATM   33  C   UNL     1      -9.523   2.166  65.436  1.00  0.00     0.107 A  
HETATM   34 CL   UNL     1      -9.449   2.067  62.745  1.00  0.00    -0.090 Cl 
HETATM   35  C   UNL     1      -9.734   2.812  66.658  1.00  0.00     0.333 A  
ENDBRANCH  26  29
ENDBRANCH  17  19
ENDBRANCH  11  17
ENDBRANCH   7   9
ENDBRANCH   4   7
ENDBRANCH   3   4
ENDBRANCH   2   3
TORSDOF 7
ENDMDL
MODEL      242
REMARK 921   NORMALIZED FREE ENERGY PREDICTED BY IDOCK:   13.03 KCAL/MOL
REMARK 922        TOTAL FREE ENERGY PREDICTED BY IDOCK:   16.61 KCAL/MOL
REMARK 923 INTER-LIGAND FREE ENERGY PREDICTED BY IDOCK:    8.57 KCAL/MOL
REMARK 924 INTRA-LIGAND FREE ENERGY PREDICTED BY IDOCK:    8.04 KCAL/MOL
REMARK 927      BINDING AFFINITY PREDICTED BY RF-SCORE:    0.00 PKD
ROOT
HETATM    1  C   UNL     1     -10.936   7.851  70.043  1.00  0.00    -0.208 C  
HETATM    2  C   UNL     1     -11.012   6.635  69.134  1.00  0.00    -0.338 C  
ENDROOT
BRANCH   2   3
HETATM    3  C   UNL     1     -11.754   6.943  67.837  1.00  0.00     1.072 C  
BRANCH   3   4
HETATM    4  S   UNL     1     -10.706   6.641  66.412  1.00  0.00     0.456 S  
HETATM    5  O   UNL     1     -11.516   6.624  65.214  1.00  0.00     4.707 OA 
HETATM    6  O   UNL     1      -9.794   5.570  66.732  1.00  0.00    -0.141 OA 
BRANCH   4   7
HETATM    7  N   UNL     1      -9.740   8.029  66.424  1.00  0.00    -0.370 N  
HETATM    8  H   UNL     1      -9.162   8.278  65.621  1.00  0.00     0.000 HD 
BRANCH   7   9
HETATM    9  C   UNL     1      -9.762   8.841  67.601  1.00  0.00    -0.169 A  
HETATM   10  C   UNL     1      -8.571   9.345  68.138  1.00  0.00    -0.120 A  
HETATM   11  C   UNL     1      -8.601  10.338  69.120  1.00  0.00    -0.167 A  
HETATM   12  F   UNL     1      -7.405   8.911  67.632  1.00  0.00    -0.080 F  
HETATM   13  C   UNL     1     -10.983   9.167  68.186  1.00  0.00    -0.020 A  
HETATM   14  C   UNL     1      -9.830  10.654  69.702  1.00  0.00    -0.013 A  
HETATM   15  C   UNL     1     -11.012  10.054  69.262  1.00  0.00    -0.264 A  
HETATM   16  F   UNL     1      -9.927  11.572  70.674  1.00  0.00     1.834 F  
BRANCH  11  17
HETATM   17  C   UNL     1      -7.391  11.094  69.523  1.00  0.00    -0.018 C  
HETATM   18  O   UNL     1      -7.090  11.130  70.714  1.00  0.00     0.485 OA 
BRANCH  17  19
HETATM   19  C   UNL     1      -6.559  11.760  68.513  1.00  0.00    -0.059 A  
HETATM   20  C   UNL     1      -6.064  11.100  67.396  1.00  0.00    -0.061 A  
HETATM   21  N   UNL     1      -5.481  12.018  66.565  1.00  0.00    -0.474 NA 
HETATM   22  C   UNL     1      -5.547  13.258  67.133  1.00  0.00     0.503 A  
HETATM   23  H   UNL     1      -5.061  11.808  65.660  1.00  0.00     0.000 HD 
HETATM   24  N   UNL     1      -5.132  14.391  66.540  1.00  0.00     2.083 NA 
HETATM   25  C   UNL     1      -5.303  15.492  67.321  1.00  0.00     0.274 A  
HETATM   26  C   UNL     1      -5.783  15.525  68.634  1.00  0.00    -0.099 A  
HETATM   27  C   UNL     1      -6.153  14.287  69.187  1.00  0.00    -0.095 A  
HETATM   28  C   UNL     1      -6.105  13.120  68.398  1.00  0.00    -0.083 A  
BRANCH  26  29
HETATM   29  C   UNL     1      -5.952  16.779  69.403  1.00  0.00    -0.202 A  
HETATM   30  C   UNL     1      -5.658  16.852  70.778  1.00  0.00     0.018 A  
HETATM   31  C   UNL     1      -5.755  18.061  71.481  1.00  0.00     0.617 A  
HETATM   32  C   UNL     1      -6.142  19.221  70.818  1.00  0.00     0.044 A  
HETATM   33  C   UNL     1      -6.453  19.179  69.465  1.00  0.00    -0.319 A  
HETATM   34 CL   UNL     1      -6.228  20.712  71.669  1.00  0.00     0.000 Cl 
HETATM   35  C   UNL     1      -6.368  17.968  68.771  1.00  0.00    -0.219 A  
ENDBRANCH  26  29
ENDBRANCH  17  19
ENDBRANCH  11  17
ENDBRANCH   7   9
ENDBRANCH   4   7
ENDBRANCH   3   4
ENDBRANCH   2   3
TORSDOF 7
ENDMDL
MODEL      243
REMARK 921   NORMALIZED FREE ENERGY PREDICTED BY IDOCK:   13.09 KCAL/MOL
REMARK 922        TOTAL FREE ENERGY PREDICTED BY IDOCK:   16.69 KCAL/MOL
REMARK 923 INTER-LIGAND FREE ENERGY PREDICTED BY IDOCK:   12.61 KCAL/MOL
REMARK 924 INTRA-LIGAND FREE ENERGY PREDICTED BY IDOCK:    4.07 KCAL/MOL
REMARK 927      BINDING AFFINITY PREDICTED BY RF-SCORE:    0.00 PKD
ROOT
HETATM    1  C   UNL     1     -10.218  18.632  64.792  1.00  0.00     3.072 C  
HETATM    2  C   UNL     1     -10.654  20.057  65.092  1.00  0.00     0.243 C  
ENDROOT
BRANCH   2   3
HETATM    3  C   UNL     1     -11.644  20.114  66.252  1.00  0.00     1.605 C  
BRANCH   3   4
HETATM    4  S   UNL     1     -11.700  18.547  67.125  1.00  0.00     2.344 S  
HETATM    5  O   UNL     1     -12.887  17.821  66.734  1.00  0.00     6.163 OA 
HETATM    6  O   UNL     1     -11.371  18.782  68.510  1.00  0.00     0.946 OA 
BRANCH   4   7
HETATM    7  N   UNL     1     -10.331  17.780  66.495  1.00  0.00    -0.355 N  
HETATM    8  H   UNL     1     -10.194  17.687  65.488  1.00  0.00     0.000 HD 
BRANCH   7   9
HETATM    9  C   UNL     1      -9.373  17.266  67.424  1.00  0.00    -0.236 A  
HETATM   10  C   UNL     1      -9.554  16.004  68.005  1.00  0.00    -0.215 A  
HETATM   11  C   UNL     1      -8.511  15.390  68.702  1.00  0.00    -0.170 A  
HETATM   12  F   UNL     1     -10.720  15.369  67.807  1.00  0.00    -0.260 F  
HETATM   13  C   UNL     1      -8.232  18.010  67.715  1.00  0.00    -0.238 A  
HETATM   14  C   UNL     1      -7.374  16.147  68.991  1.00  0.00    -0.203 A  
HETATM   15  C   UNL     1      -7.243  17.458  68.527  1.00  0.00    -0.230 A  
HETATM   16  F   UNL     1      -6.351  15.631  69.687  1.00  0.00    -0.136 F  
BRANCH  11  17
HETATM   17  C   UNL     1      -8.553  13.962  69.097  1.00  0.00     0.350 C  
HETATM   18  O   UNL     1      -9.600  13.508  69.554  1.00  0.00     0.670 OA 
BRANCH  17  19
HETATM   19  C   UNL     1      -7.374  13.106  68.919  1.00  0.00    -0.019 A  
HETATM   20  C   UNL     1      -6.107  13.617  68.669  1.00  0.00    -0.087 A  
HETATM   21  N   UNL     1      -5.200  12.594  68.727  1.00  0.00    -0.055 NA 
HETATM   22  C   UNL     1      -5.851  11.417  68.968  1.00  0.00    -0.048 A  
HETATM   23  H   UNL     1      -4.192  12.694  68.608  1.00  0.00     0.000 HD 
HETATM   24  N   UNL     1      -5.241  10.234  69.157  1.00  0.00    -0.039 NA 
HETATM   25  C   UNL     1      -6.116   9.215  69.373  1.00  0.00    -0.037 A  
HETATM   26  C   UNL     1      -7.512   9.286  69.348  1.00  0.00    -0.078 A  
HETATM   27  C   UNL     1      -8.061  10.556  69.101  1.00  0.00    -0.152 A  
HETATM   28  C   UNL     1      -7.216  11.677  68.976  1.00  0.00    -0.094 A  
BRANCH  26  29
HETATM   29  C   UNL     1      -8.388   8.121  69.614  1.00  0.00    -0.125 A  
HETATM   30  C   UNL     1      -7.914   6.799  69.518  1.00  0.00    -0.125 A  
HETATM   31  C   UNL     1      -8.731   5.707  69.839  1.00  0.00    -0.127 A  
HETATM   32  C   UNL     1     -10.037   5.919  70.271  1.00  0.00    -0.202 A  
HETATM   33  C   UNL     1     -10.538   7.211  70.363  1.00  0.00    -0.242 A  
HETATM   34 CL   UNL     1     -11.031   4.584  70.700  1.00  0.00     0.872 Cl 
HETATM   35  C   UNL     1      -9.723   8.298  70.028  1.00  0.00    -0.176 A  
ENDBRANCH  26  29
ENDBRANCH  17  19
ENDBRANCH  11  17
ENDBRANCH   7   9
ENDBRANCH   4   7
ENDBRANCH   3   4
ENDBRANCH   2   3
TORSDOF 7
ENDMDL
MODEL      244
REMARK 921   NORMALIZED FREE ENERGY PREDICTED BY IDOCK:   13.15 KCAL/MOL
REMARK 922        TOTAL FREE ENERGY PREDICTED BY IDOCK:   16.78 KCAL/MOL
REMARK 923 INTER-LIGAND FREE ENERGY PREDICTED BY IDOCK:   11.38 KCAL/MOL
REMARK 924 INTRA-LIGAND FREE ENERGY PREDICTED BY IDOCK:    5.40 KCAL/MOL
REMARK 927      BINDING AFFINITY PREDICTED BY RF-SCORE:    0.00 PKD
ROOT
HETATM    1  C   UNL     1     -12.027   9.470  69.258  1.00  0.00     0.765 C  
HETATM    2  C   UNL     1     -11.572   8.374  70.208  1.00  0.00     0.016 C  
ENDROOT
BRANCH   2   3
HETATM    3  C   UNL     1     -11.173   8.933  71.570  1.00  0.00    -0.326 C  
BRANCH   3   4
HETATM    4  S   UNL     1     -10.294   7.702  72.536  1.00  0.00    -0.282 S  
HETATM    5  O   UNL     1     -11.221   6.685  72.978  1.00  0.00    -0.231 OA 
HETATM    6  O   UNL     1      -9.414   8.384  73.455  1.00  0.00    -0.101 OA 
BRANCH   4   7
HETATM    7  N   UNL     1      -9.258   7.057  71.366  1.00  0.00    -0.151 N  
HETATM    8  H   UNL     1      -8.491   6.436  71.625  1.00  0.00     0.000 HD 
BRANCH   7   9
HETATM    9  C   UNL     1      -9.495   7.413  70.002  1.00  0.00    -0.161 A  
HETATM   10  C   UNL     1      -8.963   8.596  69.474  1.00  0.00    -0.145 A  
HETATM   11  C   UNL     1      -8.969   8.822  68.096  1.00  0.00    -0.141 A  
HETATM   12  F   UNL     1      -8.378   9.466  70.314  1.00  0.00    -0.122 F  
HETATM   13  C   UNL     1     -10.223   6.551  69.185  1.00  0.00    -0.208 A  
HETATM   14  C   UNL     1      -9.705   7.954  67.287  1.00  0.00    -0.176 A  
HETATM   15  C   UNL     1     -10.353   6.842  67.828  1.00  0.00    -0.245 A  
HETATM   16  F   UNL     1      -9.782   8.133  65.961  1.00  0.00    -0.265 F  
BRANCH  11  17
HETATM   17  C   UNL     1      -8.186   9.913  67.467  1.00  0.00    -0.114 C  
HETATM   18  O   UNL     1      -8.415  10.201  66.295  1.00  0.00    -0.125 OA 
BRANCH  17  19
HETATM   19  C   UNL     1      -7.178  10.648  68.242  1.00  0.00    -0.083 A  
HETATM   20  C   UNL     1      -5.859  10.227  68.345  1.00  0.00    -0.040 A  
HETATM   21  N   UNL     1      -5.134  11.201  68.978  1.00  0.00    -0.041 NA 
HETATM   22  C   UNL     1      -5.960  12.231  69.328  1.00  0.00    -0.087 A  
HETATM   23  H   UNL     1      -4.132  11.163  69.161  1.00  0.00     0.000 HD 
HETATM   24  N   UNL     1      -5.547  13.377  69.898  1.00  0.00    -0.102 NA 
HETATM   25  C   UNL     1      -6.568  14.240  70.152  1.00  0.00    -0.070 A  
HETATM   26  C   UNL     1      -7.932  14.015  69.943  1.00  0.00     1.007 A  
HETATM   27  C   UNL     1      -8.272  12.771  69.382  1.00  0.00     1.024 A  
HETATM   28  C   UNL     1      -7.259  11.872  68.993  1.00  0.00    -0.068 A  
BRANCH  26  29
HETATM   29  C   UNL     1      -8.975  15.025  70.234  1.00  0.00     0.827 A  
HETATM   30  C   UNL     1     -10.160  14.692  70.917  1.00  0.00     1.471 A  
HETATM   31  C   UNL     1     -11.109  15.669  71.249  1.00  0.00    -0.315 A  
HETATM   32  C   UNL     1     -10.884  16.999  70.910  1.00  0.00     0.952 A  
HETATM   33  C   UNL     1      -9.731  17.357  70.224  1.00  0.00     1.879 A  
HETATM   34 CL   UNL     1     -12.028  18.206  71.347  1.00  0.00     6.176 Cl 
HETATM   35  C   UNL     1      -8.793  16.377  69.882  1.00  0.00     0.863 A  
ENDBRANCH  26  29
ENDBRANCH  17  19
ENDBRANCH  11  17
ENDBRANCH   7   9
ENDBRANCH   4   7
ENDBRANCH   3   4
ENDBRANCH   2   3
TORSDOF 7
ENDMDL
MODEL      245
REMARK 921   NORMALIZED FREE ENERGY PREDICTED BY IDOCK:   14.56 KCAL/MOL
REMARK 922        TOTAL FREE ENERGY PREDICTED BY IDOCK:   18.77 KCAL/MOL
REMARK 923 INTER-LIGAND FREE ENERGY PREDICTED BY IDOCK:   18.32 KCAL/MOL
REMARK 924 INTRA-LIGAND FREE ENERGY PREDICTED BY IDOCK:    0.45 KCAL/MOL
REMARK 927      BINDING AFFINITY PREDICTED BY RF-SCORE:    0.00 PKD
ROOT
HETATM    1  C   UNL     1      -7.572  14.690  73.845  1.00  0.00     6.612 C  
HETATM    2  C   UNL     1      -6.277  14.760  73.052  1.00  0.00     0.973 C  
ENDROOT
BRANCH   2   3
HETATM    3  C   UNL     1      -6.388  15.716  71.868  1.00  0.00     1.997 C  
BRANCH   3   4
HETATM    4  S   UNL     1      -7.540  15.088  70.643  1.00  0.00     1.497 S  
HETATM    5  O   UNL     1      -7.842  16.130  69.688  1.00  0.00    -0.106 OA 
HETATM    6  O   UNL     1      -8.578  14.352  71.325  1.00  0.00     3.442 OA 
BRANCH   4   7
HETATM    7  N   UNL     1      -6.600  13.893  69.902  1.00  0.00    -0.320 N  
HETATM    8  H   UNL     1      -5.711  14.121  69.457  1.00  0.00     0.000 HD 
BRANCH   7   9
HETATM    9  C   UNL     1      -7.096  12.552  69.922  1.00  0.00     0.711 A  
HETATM   10  C   UNL     1      -8.420  12.280  69.556  1.00  0.00     1.409 A  
HETATM   11  C   UNL     1      -8.836  10.967  69.325  1.00  0.00     0.020 A  
HETATM   12  F   UNL     1      -9.255  13.313  69.355  1.00  0.00     0.382 F  
HETATM   13  C   UNL     1      -6.240  11.509  70.266  1.00  0.00    -0.089 A  
HETATM   14  C   UNL     1      -7.970   9.929  69.676  1.00  0.00    -0.162 A  
HETATM   15  C   UNL     1      -6.691  10.193  70.171  1.00  0.00    -0.138 A  
HETATM   16  F   UNL     1      -8.318   8.645  69.514  1.00  0.00    -0.108 F  
BRANCH  11  17
HETATM   17  C   UNL     1     -10.130  10.645  68.678  1.00  0.00    -0.183 C  
HETATM   18  O   UNL     1     -11.059  10.256  69.383  1.00  0.00    -0.228 OA 
BRANCH  17  19
HETATM   19  C   UNL     1     -10.302  10.817  67.230  1.00  0.00    -0.262 A  
HETATM   20  C   UNL     1     -10.338   9.745  66.348  1.00  0.00    -0.177 A  
HETATM   21  N   UNL     1     -10.682  10.208  65.106  1.00  0.00     0.202 NA 
HETATM   22  C   UNL     1     -10.830  11.566  65.149  1.00  0.00    -0.265 A  
HETATM   23  H   UNL     1     -10.807   9.630  64.277  1.00  0.00     0.000 HD 
HETATM   24  N   UNL     1     -11.238  12.320  64.113  1.00  0.00    -0.339 NA 
HETATM   25  C   UNL     1     -11.298  13.646  64.414  1.00  0.00    -0.374 A  
HETATM   26  C   UNL     1     -10.927  14.253  65.618  1.00  0.00    -0.309 A  
HETATM   27  C   UNL     1     -10.472  13.389  66.629  1.00  0.00    -0.280 A  
HETATM   28  C   UNL     1     -10.487  11.994  66.425  1.00  0.00    -0.267 A  
BRANCH  26  29
HETATM   29  C   UNL     1     -11.044  15.709  65.861  1.00  0.00    -0.155 A  
HETATM   30  C   UNL     1     -11.516  16.592  64.871  1.00  0.00     0.108 A  
HETATM   31  C   UNL     1     -11.689  17.957  65.134  1.00  0.00     2.929 A  
HETATM   32  C   UNL     1     -11.399  18.463  66.397  1.00  0.00     1.131 A  
HETATM   33  C   UNL     1     -10.918  17.620  67.391  1.00  0.00    -0.055 A  
HETATM   34 CL   UNL     1     -11.644  20.131  66.735  1.00  0.00     0.974 Cl 
HETATM   35  C   UNL     1     -10.734  16.261  67.120  1.00  0.00    -0.247 A  
ENDBRANCH  26  29
ENDBRANCH  17  19
ENDBRANCH  11  17
ENDBRANCH   7   9
ENDBRANCH   4   7
ENDBRANCH   3   4
ENDBRANCH   2   3
TORSDOF 7
ENDMDL
MODEL      246
REMARK 921   NORMALIZED FREE ENERGY PREDICTED BY IDOCK:   14.88 KCAL/MOL
REMARK 922        TOTAL FREE ENERGY PREDICTED BY IDOCK:   19.21 KCAL/MOL
REMARK 923 INTER-LIGAND FREE ENERGY PREDICTED BY IDOCK:   15.82 KCAL/MOL
REMARK 924 INTRA-LIGAND FREE ENERGY PREDICTED BY IDOCK:    3.39 KCAL/MOL
REMARK 927      BINDING AFFINITY PREDICTED BY RF-SCORE:    0.00 PKD
ROOT
HETATM    1  C   UNL     1      -8.373  19.326  73.001  1.00  0.00     5.948 C  
HETATM    2  C   UNL     1      -9.652  19.438  72.188  1.00  0.00     4.283 C  
ENDROOT
BRANCH   2   3
HETATM    3  C   UNL     1      -9.364  19.624  70.701  1.00  0.00     1.689 C  
BRANCH   3   4
HETATM    4  S   UNL     1      -7.604  19.516  70.371  1.00  0.00     1.291 S  
HETATM    5  O   UNL     1      -7.084  18.287  70.928  1.00  0.00     2.266 OA 
HETATM    6  O   UNL     1      -7.004  20.797  70.657  1.00  0.00     0.267 OA 
BRANCH   4   7
HETATM    7  N   UNL     1      -7.599  19.421  68.682  1.00  0.00    -0.352 N  
HETATM    8  H   UNL     1      -7.480  20.255  68.107  1.00  0.00     0.000 HD 
BRANCH   7   9
HETATM    9  C   UNL     1      -7.769  18.131  68.091  1.00  0.00    -0.274 A  
HETATM   10  C   UNL     1      -7.359  16.978  68.773  1.00  0.00    -0.236 A  
HETATM   11  C   UNL     1      -7.750  15.714  68.326  1.00  0.00    -0.130 A  
HETATM   12  F   UNL     1      -6.651  17.121  69.905  1.00  0.00    -0.225 F  
HETATM   13  C   UNL     1      -8.388  18.022  66.848  1.00  0.00    -0.263 A  
HETATM   14  C   UNL     1      -8.367  15.616  67.077  1.00  0.00    -0.228 A  
HETATM   15  C   UNL     1      -8.660  16.758  66.327  1.00  0.00    -0.340 A  
HETATM   16  F   UNL     1      -8.738  14.431  66.572  1.00  0.00    -0.245 F  
BRANCH  11  17
HETATM   17  C   UNL     1      -7.579  14.493  69.149  1.00  0.00    -0.102 C  
HETATM   18  O   UNL     1      -6.459  14.226  69.580  1.00  0.00    -0.117 OA 
BRANCH  17  19
HETATM   19  C   UNL     1      -8.731  13.638  69.461  1.00  0.00     1.127 A  
HETATM   20  C   UNL     1      -9.917  14.139  69.981  1.00  0.00     1.092 A  
HETATM   21  N   UNL     1     -10.849  13.136  69.998  1.00  0.00    -0.000 NA 
HETATM   22  C   UNL     1     -10.286  11.979  69.538  1.00  0.00     0.644 A  
HETATM   23  H   UNL     1     -11.815  13.237  70.307  1.00  0.00     0.000 HD 
HETATM   24  N   UNL     1     -10.954  10.827  69.358  1.00  0.00    -0.237 NA 
HETATM   25  C   UNL     1     -10.161   9.822  68.896  1.00  0.00    -0.200 A  
HETATM   26  C   UNL     1      -8.782   9.873  68.673  1.00  0.00    -0.124 A  
HETATM   27  C   UNL     1      -8.161  11.108  68.929  1.00  0.00    -0.104 A  
HETATM   28  C   UNL     1      -8.938  12.223  69.306  1.00  0.00     0.877 A  
BRANCH  26  29
HETATM   29  C   UNL     1      -8.002   8.728  68.149  1.00  0.00    -0.106 A  
HETATM   30  C   UNL     1      -8.615   7.507  67.807  1.00  0.00    -0.120 A  
HETATM   31  C   UNL     1      -7.879   6.454  67.247  1.00  0.00    -0.105 A  
HETATM   32  C   UNL     1      -6.516   6.607  67.011  1.00  0.00    -0.043 A  
HETATM   33  C   UNL     1      -5.880   7.795  67.351  1.00  0.00    -0.037 A  
HETATM   34 CL   UNL     1      -5.617   5.332  66.291  1.00  0.00    -0.016 Cl 
HETATM   35  C   UNL     1      -6.616   8.838  67.922  1.00  0.00    -0.061 A  
ENDBRANCH  26  29
ENDBRANCH  17  19
ENDBRANCH  11  17
ENDBRANCH   7   9
ENDBRANCH   4   7
ENDBRANCH   3   4
ENDBRANCH   2   3
TORSDOF 7
ENDMDL
MODEL      247
REMARK 921   NORMALIZED FREE ENERGY PREDICTED BY IDOCK:   15.49 KCAL/MOL
REMARK 922        TOTAL FREE ENERGY PREDICTED BY IDOCK:   20.07 KCAL/MOL
REMARK 923 INTER-LIGAND FREE ENERGY PREDICTED BY IDOCK:   19.33 KCAL/MOL
REMARK 924 INTRA-LIGAND FREE ENERGY PREDICTED BY IDOCK:    0.74 KCAL/MOL
REMARK 927      BINDING AFFINITY PREDICTED BY RF-SCORE:    0.00 PKD
ROOT
HETATM    1  C   UNL     1     -13.996   4.170  73.546  1.00  0.00     5.173 C  
HETATM    2  C   UNL     1     -12.655   3.464  73.432  1.00  0.00     0.991 C  
ENDROOT
BRANCH   2   3
HETATM    3  C   UNL     1     -11.804   4.040  72.304  1.00  0.00     1.772 C  
BRANCH   3   4
HETATM    4  S   UNL     1     -11.386   2.771  71.105  1.00  0.00     5.056 S  
HETATM    5  O   UNL     1     -11.089   3.390  69.834  1.00  0.00     3.867 OA 
HETATM    6  O   UNL     1     -12.340   1.695  71.225  1.00  0.00     4.387 OA 
BRANCH   4   7
HETATM    7  N   UNL     1      -9.966   2.148  71.780  1.00  0.00    -0.155 N  
HETATM    8  H   UNL     1      -9.969   1.267  72.295  1.00  0.00     0.000 HD 
BRANCH   7   9
HETATM    9  C   UNL     1      -8.763   2.899  71.602  1.00  0.00    -0.073 A  
HETATM   10  C   UNL     1      -8.766   4.291  71.756  1.00  0.00    -0.110 A  
HETATM   11  C   UNL     1      -7.564   4.998  71.841  1.00  0.00    -0.102 A  
HETATM   12  F   UNL     1      -9.946   4.917  71.901  1.00  0.00    -0.205 F  
HETATM   13  C   UNL     1      -7.574   2.233  71.318  1.00  0.00    -0.040 A  
HETATM   14  C   UNL     1      -6.378   4.320  71.551  1.00  0.00    -0.018 A  
HETATM   15  C   UNL     1      -6.381   2.953  71.263  1.00  0.00    -0.019 A  
HETATM   16  F   UNL     1      -5.193   4.944  71.579  1.00  0.00    -0.003 F  
BRANCH  11  17
HETATM   17  C   UNL     1      -7.504   6.414  72.272  1.00  0.00    -0.093 C  
HETATM   18  O   UNL     1      -7.622   6.670  73.469  1.00  0.00    -0.087 OA 
BRANCH  17  19
HETATM   19  C   UNL     1      -7.281   7.483  71.290  1.00  0.00    -0.063 A  
HETATM   20  C   UNL     1      -6.699   8.698  71.624  1.00  0.00    -0.083 A  
HETATM   21  N   UNL     1      -6.469   9.406  70.476  1.00  0.00    -0.068 NA 
HETATM   22  C   UNL     1      -6.926   8.698  69.401  1.00  0.00    -0.053 A  
HETATM   23  H   UNL     1      -6.024  10.323  70.429  1.00  0.00     0.000 HD 
HETATM   24  N   UNL     1      -6.784   9.081  68.120  1.00  0.00    -0.064 NA 
HETATM   25  C   UNL     1      -7.332   8.201  67.239  1.00  0.00    -0.089 A  
HETATM   26  C   UNL     1      -8.046   7.038  67.547  1.00  0.00    -0.113 A  
HETATM   27  C   UNL     1      -8.181   6.740  68.914  1.00  0.00    -0.121 A  
HETATM   28  C   UNL     1      -7.545   7.549  69.878  1.00  0.00    -0.093 A  
BRANCH  26  29
HETATM   29  C   UNL     1      -8.594   6.127  66.516  1.00  0.00    -0.126 A  
HETATM   30  C   UNL     1      -9.978   6.023  66.277  1.00  0.00    -0.085 A  
HETATM   31  C   UNL     1     -10.481   5.210  65.252  1.00  0.00     0.340 A  
HETATM   32  C   UNL     1      -9.607   4.492  64.442  1.00  0.00    -0.029 A  
HETATM   33  C   UNL     1      -8.238   4.563  64.662  1.00  0.00    -0.109 A  
HETATM   34 CL   UNL     1     -10.219   3.522  63.161  1.00  0.00    -0.166 Cl 
HETATM   35  C   UNL     1      -7.740   5.364  65.694  1.00  0.00    -0.091 A  
ENDBRANCH  26  29
ENDBRANCH  17  19
ENDBRANCH  11  17
ENDBRANCH   7   9
ENDBRANCH   4   7
ENDBRANCH   3   4
ENDBRANCH   2   3
TORSDOF 7
ENDMDL
MODEL      248
REMARK 921   NORMALIZED FREE ENERGY PREDICTED BY IDOCK:   16.93 KCAL/MOL
REMARK 922        TOTAL FREE ENERGY PREDICTED BY IDOCK:   22.10 KCAL/MOL
REMARK 923 INTER-LIGAND FREE ENERGY PREDICTED BY IDOCK:   14.89 KCAL/MOL
REMARK 924 INTRA-LIGAND FREE ENERGY PREDICTED BY IDOCK:    7.21 KCAL/MOL
REMARK 927      BINDING AFFINITY PREDICTED BY RF-SCORE:    0.00 PKD
ROOT
HETATM    1  C   UNL     1      -7.574   9.149  68.079  1.00  0.00    -0.085 C  
HETATM    2  C   UNL     1      -8.586   8.225  67.421  1.00  0.00    -0.125 C  
ENDROOT
BRANCH   2   3
HETATM    3  C   UNL     1      -8.709   8.493  65.924  1.00  0.00    -0.174 C  
BRANCH   3   4
HETATM    4  S   UNL     1      -8.128  10.143  65.519  1.00  0.00    -0.152 S  
HETATM    5  O   UNL     1      -6.691  10.123  65.368  1.00  0.00    -0.108 OA 
HETATM    6  O   UNL     1      -8.792  11.088  66.384  1.00  0.00    -0.165 OA 
BRANCH   4   7
HETATM    7  N   UNL     1      -8.855  10.377  64.010  1.00  0.00    -0.199 N  
HETATM    8  H   UNL     1      -8.606   9.798  63.208  1.00  0.00     0.000 HD 
BRANCH   7   9
HETATM    9  C   UNL     1      -9.832  11.415  63.899  1.00  0.00    -0.300 A  
HETATM   10  C   UNL     1      -9.736  12.567  64.690  1.00  0.00     0.060 A  
HETATM   11  C   UNL     1     -10.524  13.686  64.410  1.00  0.00    -0.322 A  
HETATM   12  F   UNL     1      -8.816  12.598  65.668  1.00  0.00     0.125 F  
HETATM   13  C   UNL     1     -10.858  11.295  62.965  1.00  0.00     0.027 A  
HETATM   14  C   UNL     1     -11.552  13.553  63.475  1.00  0.00    -0.044 A  
HETATM   15  C   UNL     1     -11.740  12.358  62.775  1.00  0.00     0.595 A  
HETATM   16  F   UNL     1     -12.368  14.575  63.183  1.00  0.00     0.004 F  
BRANCH  11  17
HETATM   17  C   UNL     1     -10.275  15.008  65.031  1.00  0.00    -0.314 C  
HETATM   18  O   UNL     1     -11.000  15.951  64.720  1.00  0.00    -0.480 OA 
BRANCH  17  19
HETATM   19  C   UNL     1      -9.199  15.177  66.017  1.00  0.00    -0.273 A  
HETATM   20  C   UNL     1      -8.239  16.174  65.915  1.00  0.00     0.381 A  
HETATM   21  N   UNL     1      -7.489  16.183  67.060  1.00  0.00    -0.208 NA 
HETATM   22  C   UNL     1      -7.913  15.185  67.892  1.00  0.00    -0.135 A  
HETATM   23  H   UNL     1      -6.731  16.833  67.262  1.00  0.00     0.000 HD 
HETATM   24  N   UNL     1      -7.434  14.971  69.130  1.00  0.00    -0.156 NA 
HETATM   25  C   UNL     1      -8.020  13.911  69.749  1.00  0.00     0.952 A  
HETATM   26  C   UNL     1      -8.970  13.040  69.207  1.00  0.00     0.942 A  
HETATM   27  C   UNL     1      -9.380  13.316  67.891  1.00  0.00    -0.214 A  
HETATM   28  C   UNL     1      -8.896  14.463  67.228  1.00  0.00    -0.225 A  
BRANCH  26  29
HETATM   29  C   UNL     1      -9.567  11.917  69.966  1.00  0.00     2.564 A  
HETATM   30  C   UNL     1     -10.162  12.107  71.228  1.00  0.00     8.286 A  
HETATM   31  C   UNL     1     -10.785  11.051  71.906  1.00  0.00     5.673 A  
HETATM   32  C   UNL     1     -10.831   9.786  71.329  1.00  0.00    -0.206 A  
HETATM   33  C   UNL     1     -10.241   9.563  70.092  1.00  0.00    -0.291 A  
HETATM   34 CL   UNL     1     -11.626   8.496  72.142  1.00  0.00    -0.426 Cl 
HETATM   35  C   UNL     1      -9.608  10.617  69.425  1.00  0.00    -0.120 A  
ENDBRANCH  26  29
ENDBRANCH  17  19
ENDBRANCH  11  17
ENDBRANCH   7   9
ENDBRANCH   4   7
ENDBRANCH   3   4
ENDBRANCH   2   3
TORSDOF 7
ENDMDL
MODEL      249
REMARK 921   NORMALIZED FREE ENERGY PREDICTED BY IDOCK:   17.00 KCAL/MOL
REMARK 922        TOTAL FREE ENERGY PREDICTED BY IDOCK:   22.21 KCAL/MOL
REMARK 923 INTER-LIGAND FREE ENERGY PREDICTED BY IDOCK:   18.97 KCAL/MOL
REMARK 924 INTRA-LIGAND FREE ENERGY PREDICTED BY IDOCK:    3.24 KCAL/MOL
REMARK 927      BINDING AFFINITY PREDICTED BY RF-SCORE:    0.00 PKD
ROOT
HETATM    1  C   UNL     1      -7.474   4.419  70.427  1.00  0.00    -0.049 C  
HETATM    2  C   UNL     1      -8.678   3.973  71.242  1.00  0.00    -0.125 C  
ENDROOT
BRANCH   2   3
HETATM    3  C   UNL     1      -9.974   4.082  70.445  1.00  0.00    -0.037 C  
BRANCH   3   4
HETATM    4  S   UNL     1     -10.916   5.525  70.947  1.00  0.00    -0.032 S  
HETATM    5  O   UNL     1     -10.011   6.615  71.232  1.00  0.00    -0.181 OA 
HETATM    6  O   UNL     1     -11.928   5.107  71.887  1.00  0.00     0.555 OA 
BRANCH   4   7
HETATM    7  N   UNL     1     -11.776   5.856  69.529  1.00  0.00     0.313 N  
HETATM    8  H   UNL     1     -12.071   5.107  68.903  1.00  0.00     0.000 HD 
BRANCH   7   9
HETATM    9  C   UNL     1     -12.074   7.224  69.239  1.00  0.00     1.267 A  
HETATM   10  C   UNL     1     -12.325   8.131  70.277  1.00  0.00     0.654 A  
HETATM   11  C   UNL     1     -12.360   9.504  70.024  1.00  0.00     0.412 A  
HETATM   12  F   UNL     1     -12.451   7.656  71.526  1.00  0.00    -0.304 F  
HETATM   13  C   UNL     1     -12.068   7.662  67.917  1.00  0.00     3.552 A  
HETATM   14  C   UNL     1     -12.357   9.932  68.695  1.00  0.00     2.102 A  
HETATM   15  C   UNL     1     -12.241   9.019  67.644  1.00  0.00     5.661 A  
HETATM   16  F   UNL     1     -12.423  11.233  68.380  1.00  0.00    -0.216 F  
BRANCH  11  17
HETATM   17  C   UNL     1     -12.348  10.512  71.111  1.00  0.00    -0.405 C  
HETATM   18  O   UNL     1     -12.852  10.216  72.193  1.00  0.00    -0.383 OA 
BRANCH  17  19
HETATM   19  C   UNL     1     -11.722  11.824  70.904  1.00  0.00     0.343 A  
HETATM   20  C   UNL     1     -11.965  12.910  71.734  1.00  0.00     1.361 A  
HETATM   21  N   UNL     1     -11.113  13.925  71.392  1.00  0.00     1.088 NA 
HETATM   22  C   UNL     1     -10.347  13.541  70.328  1.00  0.00     2.036 A  
HETATM   23  H   UNL     1     -11.058  14.830  71.859  1.00  0.00     0.000 HD 
HETATM   24  N   UNL     1      -9.358  14.280  69.796  1.00  0.00     0.699 NA 
HETATM   25  C   UNL     1      -8.752  13.673  68.740  1.00  0.00     0.070 A  
HETATM   26  C   UNL     1      -9.101  12.449  68.159  1.00  0.00    -0.200 A  
HETATM   27  C   UNL     1     -10.175  11.767  68.757  1.00  0.00    -0.175 A  
HETATM   28  C   UNL     1     -10.779  12.285  69.921  1.00  0.00     0.742 A  
BRANCH  26  29
HETATM   29  C   UNL     1      -8.368  11.856  67.017  1.00  0.00    -0.178 A  
HETATM   30  C   UNL     1      -7.122  11.224  67.182  1.00  0.00    -0.125 A  
HETATM   31  C   UNL     1      -6.470  10.605  66.106  1.00  0.00    -0.131 A  
HETATM   32  C   UNL     1      -7.060  10.601  64.846  1.00  0.00     0.126 A  
HETATM   33  C   UNL     1      -8.283  11.229  64.648  1.00  0.00     0.595 A  
HETATM   34 CL   UNL     1      -6.281   9.812  63.532  1.00  0.00    -0.108 Cl 
HETATM   35  C   UNL     1      -8.923  11.857  65.721  1.00  0.00     0.044 A  
ENDBRANCH  26  29
ENDBRANCH  17  19
ENDBRANCH  11  17
ENDBRANCH   7   9
ENDBRANCH   4   7
ENDBRANCH   3   4
ENDBRANCH   2   3
TORSDOF 7
ENDMDL
MODEL      250
REMARK 921   NORMALIZED FREE ENERGY PREDICTED BY IDOCK:   17.26 KCAL/MOL
REMARK 922        TOTAL FREE ENERGY PREDICTED BY IDOCK:   22.58 KCAL/MOL
REMARK 923 INTER-LIGAND FREE ENERGY PREDICTED BY IDOCK:    6.67 KCAL/MOL
REMARK 924 INTRA-LIGAND FREE ENERGY PREDICTED BY IDOCK:   15.91 KCAL/MOL
REMARK 927      BINDING AFFINITY PREDICTED BY RF-SCORE:    0.00 PKD
ROOT
HETATM    1  C   UNL     1      -8.483   7.781  71.128  1.00  0.00    -0.115 C  
HETATM    2  C   UNL     1      -7.867   9.108  70.714  1.00  0.00    -0.173 C  
ENDROOT
BRANCH   2   3
HETATM    3  C   UNL     1      -7.150   9.005  69.371  1.00  0.00    -0.056 C  
BRANCH   3   4
HETATM    4  S   UNL     1      -7.118   7.307  68.790  1.00  0.00    -0.086 S  
HETATM    5  O   UNL     1      -5.769   6.794  68.878  1.00  0.00    -0.016 OA 
HETATM    6  O   UNL     1      -7.888   7.224  67.573  1.00  0.00    -0.109 OA 
BRANCH   4   7
HETATM    7  N   UNL     1      -8.089   6.552  69.951  1.00  0.00    -0.119 N  
HETATM    8  H   UNL     1      -7.679   5.997  70.703  1.00  0.00     0.000 HD 
BRANCH   7   9
HETATM    9  C   UNL     1      -9.505   6.720  69.841  1.00  0.00    -0.156 A  
HETATM   10  C   UNL     1     -10.064   8.003  69.776  1.00  0.00    -0.196 A  
HETATM   11  C   UNL     1     -11.402   8.174  69.411  1.00  0.00     0.356 A  
HETATM   12  F   UNL     1      -9.268   9.062  69.993  1.00  0.00    -0.146 F  
HETATM   13  C   UNL     1     -10.324   5.597  69.752  1.00  0.00    -0.352 A  
HETATM   14  C   UNL     1     -12.214   7.041  69.329  1.00  0.00     1.385 A  
HETATM   15  C   UNL     1     -11.689   5.762  69.526  1.00  0.00     1.103 A  
HETATM   16  F   UNL     1     -13.515   7.136  69.018  1.00  0.00     4.488 F  
BRANCH  11  17
HETATM   17  C   UNL     1     -11.967   9.499  69.064  1.00  0.00     1.071 C  
HETATM   18  O   UNL     1     -13.185   9.652  69.117  1.00  0.00     2.308 OA 
BRANCH  17  19
HETATM   19  C   UNL     1     -11.082  10.611  68.690  1.00  0.00    -0.315 A  
HETATM   20  C   UNL     1     -11.151  11.859  69.295  1.00  0.00    -0.203 A  
HETATM   21  N   UNL     1     -10.097  12.616  68.862  1.00  0.00    -0.425 NA 
HETATM   22  C   UNL     1      -9.363  11.905  67.955  1.00  0.00    -0.193 A  
HETATM   23  H   UNL     1      -9.890  13.567  69.169  1.00  0.00     0.000 HD 
HETATM   24  N   UNL     1      -8.219  12.336  67.396  1.00  0.00    -0.169 NA 
HETATM   25  C   UNL     1      -7.687  11.440  66.520  1.00  0.00    -0.093 A  
HETATM   26  C   UNL     1      -8.238  10.215  66.131  1.00  0.00    -0.125 A  
HETATM   27  C   UNL     1      -9.459   9.868  66.737  1.00  0.00    -0.212 A  
HETATM   28  C   UNL     1     -10.012  10.697  67.734  1.00  0.00    -0.192 A  
BRANCH  26  29
HETATM   29  C   UNL     1      -7.575   9.294  65.180  1.00  0.00    -0.106 A  
HETATM   30  C   UNL     1      -6.252   8.854  65.373  1.00  0.00    -0.063 A  
HETATM   31  C   UNL     1      -5.658   7.927  64.505  1.00  0.00    -0.040 A  
HETATM   32  C   UNL     1      -6.381   7.419  63.431  1.00  0.00    -0.053 A  
HETATM   33  C   UNL     1      -7.684   7.844  63.206  1.00  0.00    -0.140 A  
HETATM   34 CL   UNL     1      -5.669   6.255  62.385  1.00  0.00    -0.022 Cl 
HETATM   35  C   UNL     1      -8.268   8.779  64.067  1.00  0.00    -0.161 A  
ENDBRANCH  26  29
ENDBRANCH  17  19
ENDBRANCH  11  17
ENDBRANCH   7   9
ENDBRANCH   4   7
ENDBRANCH   3   4
ENDBRANCH   2   3
TORSDOF 7
ENDMDL
MODEL      251
REMARK 921   NORMALIZED FREE ENERGY PREDICTED BY IDOCK:   17.30 KCAL/MOL
REMARK 922        TOTAL FREE ENERGY PREDICTED BY IDOCK:   22.63 KCAL/MOL
REMARK 923 INTER-LIGAND FREE ENERGY PREDICTED BY IDOCK:   17.74 KCAL/MOL
REMARK 924 INTRA-LIGAND FREE ENERGY PREDICTED BY IDOCK:    4.90 KCAL/MOL
REMARK 927      BINDING AFFINITY PREDICTED BY RF-SCORE:    0.00 PKD
ROOT
HETATM    1  C   UNL     1     -11.309   8.544  70.776  1.00  0.00    -0.296 C  
HETATM    2  C   UNL     1     -10.515   9.516  69.917  1.00  0.00    -0.269 C  
ENDROOT
BRANCH   2   3
HETATM    3  C   UNL     1      -9.582   8.790  68.953  1.00  0.00    -0.158 C  
BRANCH   3   4
HETATM    4  S   UNL     1      -8.364   9.916  68.269  1.00  0.00    -0.111 S  
HETATM    5  O   UNL     1      -8.411  11.170  68.988  1.00  0.00    -0.134 OA 
HETATM    6  O   UNL     1      -8.444   9.859  66.829  1.00  0.00    -0.124 OA 
BRANCH   4   7
HETATM    7  N   UNL     1      -6.929   9.102  68.641  1.00  0.00    -0.062 N  
HETATM    8  H   UNL     1      -6.311   9.432  69.382  1.00  0.00     0.000 HD 
BRANCH   7   9
HETATM    9  C   UNL     1      -6.614   7.934  67.878  1.00  0.00    -0.056 A  
HETATM   10  C   UNL     1      -7.373   7.597  66.750  1.00  0.00    -0.089 A  
HETATM   11  C   UNL     1      -6.923   6.619  65.860  1.00  0.00    -0.061 A  
HETATM   12  F   UNL     1      -8.498   8.288  66.504  1.00  0.00    -0.106 F  
HETATM   13  C   UNL     1      -5.517   7.155  68.238  1.00  0.00    -0.021 A  
HETATM   14  C   UNL     1      -5.824   5.842  66.233  1.00  0.00    -0.017 A  
HETATM   15  C   UNL     1      -5.140   6.086  67.426  1.00  0.00    -0.004 A  
HETATM   16  F   UNL     1      -5.361   4.864  65.442  1.00  0.00    -0.011 F  
BRANCH  11  17
HETATM   17  C   UNL     1      -7.537   6.416  64.526  1.00  0.00    -0.100 C  
HETATM   18  O   UNL     1      -6.829   6.533  63.529  1.00  0.00    -0.046 OA 
BRANCH  17  19
HETATM   19  C   UNL     1      -8.956   6.057  64.407  1.00  0.00     0.515 A  
HETATM   20  C   UNL     1      -9.579   5.865  63.181  1.00  0.00     1.751 A  
HETATM   21  N   UNL     1     -10.838   5.373  63.400  1.00  0.00     2.137 NA 
HETATM   22  C   UNL     1     -11.066   5.278  64.743  1.00  0.00     1.800 A  
HETATM   23  H   UNL     1     -11.504   5.117  62.671  1.00  0.00     0.000 HD 
HETATM   24  N   UNL     1     -12.179   4.761  65.292  1.00  0.00     2.070 NA 
HETATM   25  C   UNL     1     -12.160   4.787  66.653  1.00  0.00     6.587 A  
HETATM   26  C   UNL     1     -11.169   5.338  67.470  1.00  0.00     1.115 A  
HETATM   27  C   UNL     1     -10.062   5.896  66.806  1.00  0.00    -0.235 A  
HETATM   28  C   UNL     1      -9.963   5.805  65.403  1.00  0.00     0.598 A  
BRANCH  26  29
HETATM   29  C   UNL     1     -11.227   5.305  68.949  1.00  0.00     1.105 A  
HETATM   30  C   UNL     1     -10.240   4.656  69.717  1.00  0.00    -0.139 A  
HETATM   31  C   UNL     1     -10.267   4.690  71.117  1.00  0.00    -0.199 A  
HETATM   32  C   UNL     1     -11.279   5.381  71.776  1.00  0.00    -0.018 A  
HETATM   33  C   UNL     1     -12.274   6.020  71.048  1.00  0.00     0.521 A  
HETATM   34 CL   UNL     1     -11.295   5.456  73.494  1.00  0.00    -0.197 Cl 
HETATM   35  C   UNL     1     -12.251   5.972  69.650  1.00  0.00     1.993 A  
ENDBRANCH  26  29
ENDBRANCH  17  19
ENDBRANCH  11  17
ENDBRANCH   7   9
ENDBRANCH   4   7
ENDBRANCH   3   4
ENDBRANCH   2   3
TORSDOF 7
ENDMDL
MODEL      252
REMARK 921   NORMALIZED FREE ENERGY PREDICTED BY IDOCK:   17.31 KCAL/MOL
REMARK 922        TOTAL FREE ENERGY PREDICTED BY IDOCK:   22.64 KCAL/MOL
REMARK 923 INTER-LIGAND FREE ENERGY PREDICTED BY IDOCK:   15.27 KCAL/MOL
REMARK 924 INTRA-LIGAND FREE ENERGY PREDICTED BY IDOCK:    7.38 KCAL/MOL
REMARK 927      BINDING AFFINITY PREDICTED BY RF-SCORE:    0.00 PKD
ROOT
HETATM    1  C   UNL     1      -6.763  13.262  66.928  1.00  0.00     0.881 C  
HETATM    2  C   UNL     1      -7.516  14.370  66.209  1.00  0.00     2.541 C  
ENDROOT
BRANCH   2   3
HETATM    3  C   UNL     1      -8.436  13.818  65.124  1.00  0.00     3.943 C  
BRANCH   3   4
HETATM    4  S   UNL     1      -8.123  12.073  64.845  1.00  0.00     2.499 S  
HETATM    5  O   UNL     1      -7.227  11.576  65.864  1.00  0.00     0.213 OA 
HETATM    6  O   UNL     1      -7.867  11.873  63.439  1.00  0.00     1.591 OA 
BRANCH   4   7
HETATM    7  N   UNL     1      -9.668  11.428  65.083  1.00  0.00    -0.239 N  
HETATM    8  H   UNL     1     -10.506  11.965  64.857  1.00  0.00     0.000 HD 
BRANCH   7   9
HETATM    9  C   UNL     1      -9.759  10.103  65.612  1.00  0.00    -0.259 A  
HETATM   10  C   UNL     1      -8.958   9.076  65.095  1.00  0.00    -0.165 A  
HETATM   11  C   UNL     1      -8.850   7.856  65.767  1.00  0.00    -0.155 A  
HETATM   12  F   UNL     1      -8.239   9.320  63.987  1.00  0.00    -0.129 F  
HETATM   13  C   UNL     1     -10.617   9.848  66.679  1.00  0.00    -0.186 A  
HETATM   14  C   UNL     1      -9.718   7.610  66.832  1.00  0.00    -0.213 A  
HETATM   15  C   UNL     1     -10.616   8.585  67.271  1.00  0.00    -0.315 A  
HETATM   16  F   UNL     1      -9.692   6.447  67.499  1.00  0.00    -0.120 F  
BRANCH  11  17
HETATM   17  C   UNL     1      -7.821   6.847  65.420  1.00  0.00    -0.115 C  
HETATM   18  O   UNL     1      -7.398   6.811  64.266  1.00  0.00    -0.074 OA 
BRANCH  17  19
HETATM   19  C   UNL     1      -7.302   5.931  66.443  1.00  0.00    -0.078 A  
HETATM   20  C   UNL     1      -6.319   4.988  66.175  1.00  0.00    -0.039 A  
HETATM   21  N   UNL     1      -5.926   4.414  67.354  1.00  0.00    -0.023 NA 
HETATM   22  C   UNL     1      -6.661   4.932  68.383  1.00  0.00    -0.050 A  
HETATM   23  H   UNL     1      -5.197   3.708  67.450  1.00  0.00     0.000 HD 
HETATM   24  N   UNL     1      -6.471   4.634  69.680  1.00  0.00    -0.031 NA 
HETATM   25  C   UNL     1      -7.339   5.280  70.505  1.00  0.00    -0.070 A  
HETATM   26  C   UNL     1      -8.390   6.122  70.128  1.00  0.00    -0.128 A  
HETATM   27  C   UNL     1      -8.539   6.341  68.747  1.00  0.00    -0.122 A  
HETATM   28  C   UNL     1      -7.608   5.792  67.841  1.00  0.00    -0.085 A  
BRANCH  26  29
HETATM   29  C   UNL     1      -9.277   6.798  71.102  1.00  0.00    -0.159 A  
HETATM   30  C   UNL     1     -10.207   6.083  71.880  1.00  0.00    -0.237 A  
HETATM   31  C   UNL     1     -10.993   6.723  72.848  1.00  0.00    -0.297 A  
HETATM   32  C   UNL     1     -10.855   8.091  73.060  1.00  0.00    -0.247 A  
HETATM   33  C   UNL     1      -9.956   8.827  72.299  1.00  0.00    -0.302 A  
HETATM   34 CL   UNL     1     -11.791   8.873  74.272  1.00  0.00     7.632 Cl 
HETATM   35  C   UNL     1      -9.185   8.186  71.324  1.00  0.00    -0.193 A  
ENDBRANCH  26  29
ENDBRANCH  17  19
ENDBRANCH  11  17
ENDBRANCH   7   9
ENDBRANCH   4   7
ENDBRANCH   3   4
ENDBRANCH   2   3
TORSDOF 7
ENDMDL
MODEL      253
REMARK 921   NORMALIZED FREE ENERGY PREDICTED BY IDOCK:   17.92 KCAL/MOL
REMARK 922        TOTAL FREE ENERGY PREDICTED BY IDOCK:   23.50 KCAL/MOL
REMARK 923 INTER-LIGAND FREE ENERGY PREDICTED BY IDOCK:   17.39 KCAL/MOL
REMARK 924 INTRA-LIGAND FREE ENERGY PREDICTED BY IDOCK:    6.11 KCAL/MOL
REMARK 927      BINDING AFFINITY PREDICTED BY RF-SCORE:    0.00 PKD
ROOT
HETATM    1  C   UNL     1      -7.476  12.845  66.126  1.00  0.00     2.136 C  
HETATM    2  C   UNL     1      -7.849  14.240  65.652  1.00  0.00     4.703 C  
ENDROOT
BRANCH   2   3
HETATM    3  C   UNL     1      -8.499  15.061  66.762  1.00  0.00    -0.204 C  
BRANCH   3   4
HETATM    4  S   UNL     1     -10.140  14.439  67.141  1.00  0.00    -0.256 S  
HETATM    5  O   UNL     1     -11.130  15.269  66.493  1.00  0.00    -0.325 OA 
HETATM    6  O   UNL     1     -10.200  14.138  68.552  1.00  0.00    -0.237 OA 
BRANCH   4   7
HETATM    7  N   UNL     1     -10.090  12.924  66.393  1.00  0.00    -0.263 N  
HETATM    8  H   UNL     1      -9.830  12.828  65.411  1.00  0.00     0.000 HD 
BRANCH   7   9
HETATM    9  C   UNL     1     -10.424  11.782  67.186  1.00  0.00    -0.220 A  
HETATM   10  C   UNL     1     -11.046  11.940  68.431  1.00  0.00    -0.244 A  
HETATM   11  C   UNL     1     -11.605  10.842  69.088  1.00  0.00    -0.376 A  
HETATM   12  F   UNL     1     -11.162  13.179  68.937  1.00  0.00    -0.252 F  
HETATM   13  C   UNL     1     -10.169  10.505  66.692  1.00  0.00    -0.289 A  
HETATM   14  C   UNL     1     -11.340   9.566  68.586  1.00  0.00     0.233 A  
HETATM   15  C   UNL     1     -10.603   9.393  67.412  1.00  0.00    -0.326 A  
HETATM   16  F   UNL     1     -11.816   8.467  69.186  1.00  0.00     0.592 F  
BRANCH  11  17
HETATM   17  C   UNL     1     -12.503  10.989  70.259  1.00  0.00    -0.285 C  
HETATM   18  O   UNL     1     -13.576  11.568  70.108  1.00  0.00     1.219 OA 
BRANCH  17  19
HETATM   19  C   UNL     1     -12.123  10.430  71.562  1.00  0.00    -0.364 A  
HETATM   20  C   UNL     1     -12.443  11.047  72.764  1.00  0.00     3.117 A  
HETATM   21  N   UNL     1     -12.112  10.207  73.793  1.00  0.00     7.007 NA 
HETATM   22  C   UNL     1     -11.546   9.069  73.290  1.00  0.00     2.413 A  
HETATM   23  H   UNL     1     -12.265  10.399  74.782  1.00  0.00     0.000 HD 
HETATM   24  N   UNL     1     -11.179   8.010  74.033  1.00  0.00     1.796 NA 
HETATM   25  C   UNL     1     -10.634   7.007  73.292  1.00  0.00    -0.344 A  
HETATM   26  C   UNL     1     -10.379   7.020  71.917  1.00  0.00    -0.213 A  
HETATM   27  C   UNL     1     -10.758   8.187  71.230  1.00  0.00    -0.270 A  
HETATM   28  C   UNL     1     -11.427   9.222  71.915  1.00  0.00    -0.382 A  
BRANCH  26  29
HETATM   29  C   UNL     1      -9.796   5.869  71.190  1.00  0.00    -0.222 A  
HETATM   30  C   UNL     1      -9.656   5.869  69.789  1.00  0.00    -0.189 A  
HETATM   31  C   UNL     1      -9.040   4.805  69.118  1.00  0.00    -0.155 A  
HETATM   32  C   UNL     1      -8.545   3.723  69.838  1.00  0.00    -0.061 A  
HETATM   33  C   UNL     1      -8.680   3.686  71.220  1.00  0.00    -0.123 A  
HETATM   34 CL   UNL     1      -7.756   2.432  69.022  1.00  0.00    -0.043 Cl 
HETATM   35  C   UNL     1      -9.308   4.744  71.885  1.00  0.00    -0.181 A  
ENDBRANCH  26  29
ENDBRANCH  17  19
ENDBRANCH  11  17
ENDBRANCH   7   9
ENDBRANCH   4   7
ENDBRANCH   3   4
ENDBRANCH   2   3
TORSDOF 7
ENDMDL
MODEL      254
REMARK 921   NORMALIZED FREE ENERGY PREDICTED BY IDOCK:   22.06 KCAL/MOL
REMARK 922        TOTAL FREE ENERGY PREDICTED BY IDOCK:   29.34 KCAL/MOL
REMARK 923 INTER-LIGAND FREE ENERGY PREDICTED BY IDOCK:   11.04 KCAL/MOL
REMARK 924 INTRA-LIGAND FREE ENERGY PREDICTED BY IDOCK:   18.30 KCAL/MOL
REMARK 927      BINDING AFFINITY PREDICTED BY RF-SCORE:    0.00 PKD
ROOT
HETATM    1  C   UNL     1      -6.750  18.422  64.782  1.00  0.00     0.923 C  
HETATM    2  C   UNL     1      -6.887  17.322  65.821  1.00  0.00     0.173 C  
ENDROOT
BRANCH   2   3
HETATM    3  C   UNL     1      -8.287  17.285  66.427  1.00  0.00    -0.280 C  
BRANCH   3   4
HETATM    4  S   UNL     1      -8.826  15.594  66.692  1.00  0.00    -0.316 S  
HETATM    5  O   UNL     1      -8.304  14.752  65.639  1.00  0.00     1.467 OA 
HETATM    6  O   UNL     1     -10.229  15.608  67.033  1.00  0.00    -0.262 OA 
BRANCH   4   7
HETATM    7  N   UNL     1      -8.046  15.233  68.148  1.00  0.00    -0.133 N  
HETATM    8  H   UNL     1      -8.009  15.910  68.910  1.00  0.00     0.000 HD 
BRANCH   7   9
HETATM    9  C   UNL     1      -7.440  13.944  68.273  1.00  0.00    -0.118 A  
HETATM   10  C   UNL     1      -8.136  12.887  68.873  1.00  0.00     0.212 A  
HETATM   11  C   UNL     1      -7.663  11.577  68.768  1.00  0.00    -0.124 A  
HETATM   12  F   UNL     1      -9.305  13.152  69.479  1.00  0.00     0.564 F  
HETATM   13  C   UNL     1      -6.166  13.731  67.752  1.00  0.00    -0.159 A  
HETATM   14  C   UNL     1      -6.383  11.376  68.248  1.00  0.00    -0.046 A  
HETATM   15  C   UNL     1      -5.625  12.447  67.768  1.00  0.00    -0.099 A  
HETATM   16  F   UNL     1      -5.853  10.149  68.150  1.00  0.00    -0.042 F  
BRANCH  11  17
HETATM   17  C   UNL     1      -8.488  10.403  69.142  1.00  0.00    -0.164 C  
HETATM   18  O   UNL     1      -7.920   9.343  69.397  1.00  0.00    -0.079 OA 
BRANCH  17  19
HETATM   19  C   UNL     1      -9.949  10.517  69.229  1.00  0.00    -0.233 A  
HETATM   20  C   UNL     1     -10.777   9.417  69.412  1.00  0.00    -0.217 A  
HETATM   21  N   UNL     1     -12.054   9.859  69.628  1.00  0.00    -0.419 NA 
HETATM   22  C   UNL     1     -12.087  11.222  69.549  1.00  0.00    -0.317 A  
HETATM   23  H   UNL     1     -12.859   9.262  69.818  1.00  0.00     0.000 HD 
HETATM   24  N   UNL     1     -13.177  11.973  69.787  1.00  0.00     1.276 NA 
HETATM   25  C   UNL     1     -12.946  13.305  69.636  1.00  0.00     0.963 A  
HETATM   26  C   UNL     1     -11.759  13.911  69.212  1.00  0.00    -0.381 A  
HETATM   27  C   UNL     1     -10.686  13.043  68.945  1.00  0.00    -0.201 A  
HETATM   28  C   UNL     1     -10.820  11.660  69.186  1.00  0.00    -0.231 A  
BRANCH  26  29
HETATM   29  C   UNL     1     -11.595  15.378  69.093  1.00  0.00    -0.354 A  
HETATM   30  C   UNL     1     -10.649  15.951  68.222  1.00  0.00    -0.276 A  
HETATM   31  C   UNL     1     -10.550  17.340  68.066  1.00  0.00    -0.394 A  
HETATM   32  C   UNL     1     -11.402  18.181  68.774  1.00  0.00     1.605 A  
HETATM   33  C   UNL     1     -12.336  17.647  69.652  1.00  0.00     6.734 A  
HETATM   34 CL   UNL     1     -11.308  19.884  68.558  1.00  0.00     1.210 Cl 
HETATM   35  C   UNL     1     -12.423  16.261  69.815  1.00  0.00     0.757 A  
ENDBRANCH  26  29
ENDBRANCH  17  19
ENDBRANCH  11  17
ENDBRANCH   7   9
ENDBRANCH   4   7
ENDBRANCH   3   4
ENDBRANCH   2   3
TORSDOF 7
ENDMDL
MODEL      255
REMARK 921   NORMALIZED FREE ENERGY PREDICTED BY IDOCK:   25.30 KCAL/MOL
REMARK 922        TOTAL FREE ENERGY PREDICTED BY IDOCK:   33.90 KCAL/MOL
REMARK 923 INTER-LIGAND FREE ENERGY PREDICTED BY IDOCK:   26.56 KCAL/MOL
REMARK 924 INTRA-LIGAND FREE ENERGY PREDICTED BY IDOCK:    7.34 KCAL/MOL
REMARK 927      BINDING AFFINITY PREDICTED BY RF-SCORE:    0.00 PKD
ROOT
HETATM    1  C   UNL     1     -11.984   9.560  69.410  1.00  0.00     0.649 C  
HETATM    2  C   UNL     1     -11.887   9.161  70.873  1.00  0.00    -0.327 C  
ENDROOT
BRANCH   2   3
HETATM    3  C   UNL     1     -11.663  10.369  71.778  1.00  0.00     0.443 C  
BRANCH   3   4
HETATM    4  S   UNL     1     -11.228   9.852  73.441  1.00  0.00     8.670 S  
HETATM    5  O   UNL     1     -12.424   9.454  74.149  1.00  0.00     5.310 OA 
HETATM    6  O   UNL     1     -10.299  10.810  73.990  1.00  0.00    14.667 OA 
BRANCH   4   7
HETATM    7  N   UNL     1     -10.280   8.490  73.116  1.00  0.00     0.200 N  
HETATM    8  H   UNL     1      -9.716   8.052  73.845  1.00  0.00     0.000 HD 
BRANCH   7   9
HETATM    9  C   UNL     1     -10.296   7.974  71.782  1.00  0.00    -0.217 A  
HETATM   10  C   UNL     1      -9.533   8.581  70.777  1.00  0.00    -0.178 A  
HETATM   11  C   UNL     1      -9.340   7.941  69.550  1.00  0.00    -0.156 A  
HETATM   12  F   UNL     1      -8.928   9.749  71.048  1.00  0.00    -0.193 F  
HETATM   13  C   UNL     1     -11.043   6.833  71.498  1.00  0.00    -0.289 A  
HETATM   14  C   UNL     1     -10.097   6.800  69.274  1.00  0.00    -0.168 A  
HETATM   15  C   UNL     1     -10.965   6.263  70.228  1.00  0.00    -0.400 A  
HETATM   16  F   UNL     1      -9.987   6.156  68.104  1.00  0.00    -0.125 F  
BRANCH  11  17
HETATM   17  C   UNL     1      -8.333   8.400  68.565  1.00  0.00    -0.131 C  
HETATM   18  O   UNL     1      -8.333   7.894  67.445  1.00  0.00    -0.121 OA 
BRANCH  17  19
HETATM   19  C   UNL     1      -7.376   9.457  68.916  1.00  0.00    -0.073 A  
HETATM   20  C   UNL     1      -6.233   9.213  69.666  1.00  0.00    -0.039 A  
HETATM   21  N   UNL     1      -5.463  10.346  69.676  1.00  0.00    -0.038 NA 
HETATM   22  C   UNL     1      -6.099  11.337  68.984  1.00  0.00    -0.052 A  
HETATM   23  H   UNL     1      -4.555  10.436  70.131  1.00  0.00     0.000 HD 
HETATM   24  N   UNL     1      -5.576  12.552  68.742  1.00  0.00    -0.060 NA 
HETATM   25  C   UNL     1      -6.414  13.359  68.036  1.00  0.00    -0.131 A  
HETATM   26  C   UNL     1      -7.719  13.065  67.627  1.00  0.00    -0.161 A  
HETATM   27  C   UNL     1      -8.196  11.785  67.962  1.00  0.00    -0.152 A  
HETATM   28  C   UNL     1      -7.344  10.859  68.597  1.00  0.00    -0.101 A  
BRANCH  26  29
HETATM   29  C   UNL     1      -8.554  14.004  66.843  1.00  0.00    -0.148 A  
HETATM   30  C   UNL     1      -9.924  13.770  66.620  1.00  0.00    -0.279 A  
HETATM   31  C   UNL     1     -10.720  14.699  65.936  1.00  0.00    -0.312 A  
HETATM   32  C   UNL     1     -10.159  15.883  65.468  1.00  0.00    -0.320 A  
HETATM   33  C   UNL     1      -8.807  16.136  65.660  1.00  0.00     0.263 A  
HETATM   34 CL   UNL     1     -11.139  17.041  64.660  1.00  0.00     0.040 Cl 
HETATM   35  C   UNL     1      -8.013  15.200  66.331  1.00  0.00     0.488 A  
ENDBRANCH  26  29
ENDBRANCH  17  19
ENDBRANCH  11  17
ENDBRANCH   7   9
ENDBRANCH   4   7
ENDBRANCH   3   4
ENDBRANCH   2   3
TORSDOF 7
ENDMDL
MODEL      256
REMARK 921   NORMALIZED FREE ENERGY PREDICTED BY IDOCK:   26.87 KCAL/MOL
REMARK 922        TOTAL FREE ENERGY PREDICTED BY IDOCK:   36.11 KCAL/MOL
REMARK 923 INTER-LIGAND FREE ENERGY PREDICTED BY IDOCK:   33.08 KCAL/MOL
REMARK 924 INTRA-LIGAND FREE ENERGY PREDICTED BY IDOCK:    3.04 KCAL/MOL
REMARK 927      BINDING AFFINITY PREDICTED BY RF-SCORE:    0.00 PKD
ROOT
HETATM    1  C   UNL     1      -8.848  16.171  65.374  1.00  0.00     1.029 C  
HETATM    2  C   UNL     1      -8.009  17.354  65.833  1.00  0.00    -0.060 C  
ENDROOT
BRANCH   2   3
HETATM    3  C   UNL     1      -8.134  17.589  67.334  1.00  0.00    -0.202 C  
BRANCH   3   4
HETATM    4  S   UNL     1      -6.538  17.975  68.058  1.00  0.00    -0.199 S  
HETATM    5  O   UNL     1      -6.103  19.275  67.598  1.00  0.00    -0.203 OA 
HETATM    6  O   UNL     1      -5.695  16.808  67.957  1.00  0.00    -0.110 OA 
BRANCH   4   7
HETATM    7  N   UNL     1      -6.940  18.058  69.698  1.00  0.00     0.035 N  
HETATM    8  H   UNL     1      -6.700  18.875  70.260  1.00  0.00     0.000 HD 
BRANCH   7   9
HETATM    9  C   UNL     1      -7.629  16.942  70.269  1.00  0.00     2.120 A  
HETATM   10  C   UNL     1      -7.746  15.741  69.557  1.00  0.00    -0.166 A  
HETATM   11  C   UNL     1      -8.182  14.579  70.196  1.00  0.00     0.999 A  
HETATM   12  F   UNL     1      -7.355  15.717  68.272  1.00  0.00    -0.109 F  
HETATM   13  C   UNL     1      -8.144  17.041  71.559  1.00  0.00     9.371 A  
HETATM   14  C   UNL     1      -8.700  14.690  71.488  1.00  0.00     4.843 A  
HETATM   15  C   UNL     1      -8.710  15.916  72.158  1.00  0.00     9.022 A  
HETATM   16  F   UNL     1      -9.168  13.621  72.147  1.00  0.00     8.091 F  
BRANCH  11  17
HETATM   17  C   UNL     1      -8.067  13.239  69.573  1.00  0.00     1.077 C  
HETATM   18  O   UNL     1      -7.066  12.565  69.809  1.00  0.00     0.238 OA 
BRANCH  17  19
HETATM   19  C   UNL     1      -9.140  12.722  68.715  1.00  0.00     0.168 A  
HETATM   20  C   UNL     1      -9.583  13.393  67.583  1.00  0.00    -0.219 A  
HETATM   21  N   UNL     1     -10.457  12.585  66.906  1.00  0.00    -0.228 NA 
HETATM   22  C   UNL     1     -10.626  11.416  67.594  1.00  0.00    -0.202 A  
HETATM   23  H   UNL     1     -10.912  12.820  66.025  1.00  0.00     0.000 HD 
HETATM   24  N   UNL     1     -11.363  10.379  67.160  1.00  0.00    -0.230 NA 
HETATM   25  C   UNL     1     -11.375   9.335  68.034  1.00  0.00     0.551 A  
HETATM   26  C   UNL     1     -10.775   9.289  69.296  1.00  0.00    -0.211 A  
HETATM   27  C   UNL     1     -10.061  10.437  69.683  1.00  0.00    -0.226 A  
HETATM   28  C   UNL     1      -9.916  11.512  68.783  1.00  0.00    -0.169 A  
BRANCH  26  29
HETATM   29  C   UNL     1     -10.826   8.097  70.174  1.00  0.00    -0.241 A  
HETATM   30  C   UNL     1     -10.412   6.828  69.728  1.00  0.00    -0.240 A  
HETATM   31  C   UNL     1     -10.399   5.722  70.589  1.00  0.00    -0.310 A  
HETATM   32  C   UNL     1     -10.794   5.868  71.914  1.00  0.00    -0.254 A  
HETATM   33  C   UNL     1     -11.222   7.105  72.381  1.00  0.00    -0.309 A  
HETATM   34 CL   UNL     1     -10.745   4.522  72.982  1.00  0.00    -0.277 Cl 
HETATM   35  C   UNL     1     -11.246   8.203  71.515  1.00  0.00    -0.307 A  
ENDBRANCH  26  29
ENDBRANCH  17  19
ENDBRANCH  11  17
ENDBRANCH   7   9
ENDBRANCH   4   7
ENDBRANCH   3   4
ENDBRANCH   2   3
TORSDOF 7
ENDMDL
MODEL      257
REMARK 921   NORMALIZED FREE ENERGY PREDICTED BY IDOCK:   27.63 KCAL/MOL
REMARK 922        TOTAL FREE ENERGY PREDICTED BY IDOCK:   37.19 KCAL/MOL
REMARK 923 INTER-LIGAND FREE ENERGY PREDICTED BY IDOCK:    4.92 KCAL/MOL
REMARK 924 INTRA-LIGAND FREE ENERGY PREDICTED BY IDOCK:   32.27 KCAL/MOL
REMARK 927      BINDING AFFINITY PREDICTED BY RF-SCORE:    0.00 PKD
ROOT
HETATM    1  C   UNL     1     -11.861  10.873  67.029  1.00  0.00     0.815 C  
HETATM    2  C   UNL     1     -12.148  11.336  65.610  1.00  0.00     1.405 C  
ENDROOT
BRANCH   2   3
HETATM    3  C   UNL     1     -11.587  12.729  65.343  1.00  0.00    -0.358 C  
BRANCH   3   4
HETATM    4  S   UNL     1     -11.092  12.903  63.627  1.00  0.00    -0.226 S  
HETATM    5  O   UNL     1     -12.262  13.133  62.810  1.00  0.00    -0.086 OA 
HETATM    6  O   UNL     1     -10.137  11.867  63.317  1.00  0.00    -0.428 OA 
BRANCH   4   7
HETATM    7  N   UNL     1     -10.165  14.316  63.702  1.00  0.00     1.842 N  
HETATM    8  H   UNL     1     -10.101  14.948  62.904  1.00  0.00     0.000 HD 
BRANCH   7   9
HETATM    9  C   UNL     1      -9.475  14.591  64.923  1.00  0.00     0.942 A  
HETATM   10  C   UNL     1      -9.657  13.769  66.042  1.00  0.00    -0.175 A  
HETATM   11  C   UNL     1      -8.804  13.871  67.143  1.00  0.00    -0.236 A  
HETATM   12  F   UNL     1     -10.617  12.830  65.998  1.00  0.00    -0.264 F  
HETATM   13  C   UNL     1      -8.582  15.659  64.981  1.00  0.00     3.713 A  
HETATM   14  C   UNL     1      -7.916  14.948  67.192  1.00  0.00    -0.195 A  
HETATM   15  C   UNL     1      -7.822  15.854  66.134  1.00  0.00     0.444 A  
HETATM   16  F   UNL     1      -7.093  15.127  68.235  1.00  0.00    -0.098 F  
BRANCH  11  17
HETATM   17  C   UNL     1      -8.778  12.858  68.225  1.00  0.00    -0.168 C  
HETATM   18  O   UNL     1      -7.880  12.915  69.062  1.00  0.00     0.069 OA 
BRANCH  17  19
HETATM   19  C   UNL     1      -9.820  11.827  68.304  1.00  0.00    -0.198 A  
HETATM   20  C   UNL     1     -11.081  11.992  67.748  1.00  0.00    -0.249 A  
HETATM   21  N   UNL     1     -11.759  10.806  67.832  1.00  0.00    -0.716 NA 
HETATM   22  C   UNL     1     -10.982   9.879  68.469  1.00  0.00    -0.180 A  
HETATM   23  H   UNL     1     -12.699  10.638  67.475  1.00  0.00     0.000 HD 
HETATM   24  N   UNL     1     -11.325   8.591  68.647  1.00  0.00     0.569 NA 
HETATM   25  C   UNL     1     -10.379   7.879  69.317  1.00  0.00    -0.220 A  
HETATM   26  C   UNL     1      -9.186   8.366  69.860  1.00  0.00    -0.151 A  
HETATM   27  C   UNL     1      -8.933   9.735  69.662  1.00  0.00    -0.229 A  
HETATM   28  C   UNL     1      -9.816  10.510  68.883  1.00  0.00    -0.209 A  
BRANCH  26  29
HETATM   29  C   UNL     1      -8.204   7.508  70.562  1.00  0.00    -0.118 A  
HETATM   30  C   UNL     1      -7.094   8.049  71.237  1.00  0.00    -0.057 A  
HETATM   31  C   UNL     1      -6.209   7.234  71.955  1.00  0.00    -0.040 A  
HETATM   32  C   UNL     1      -6.425   5.861  72.018  1.00  0.00    -0.050 A  
HETATM   33  C   UNL     1      -7.504   5.295  71.350  1.00  0.00    -0.095 A  
HETATM   34 CL   UNL     1      -5.363   4.862  72.928  1.00  0.00    -0.008 Cl 
HETATM   35  C   UNL     1      -8.376   6.111  70.623  1.00  0.00    -0.126 A  
ENDBRANCH  26  29
ENDBRANCH  17  19
ENDBRANCH  11  17
ENDBRANCH   7   9
ENDBRANCH   4   7
ENDBRANCH   3   4
ENDBRANCH   2   3
TORSDOF 7
ENDMDL
MODEL      258
REMARK 921   NORMALIZED FREE ENERGY PREDICTED BY IDOCK:   27.82 KCAL/MOL
REMARK 922        TOTAL FREE ENERGY PREDICTED BY IDOCK:   37.45 KCAL/MOL
REMARK 923 INTER-LIGAND FREE ENERGY PREDICTED BY IDOCK:   36.20 KCAL/MOL
REMARK 924 INTRA-LIGAND FREE ENERGY PREDICTED BY IDOCK:    1.25 KCAL/MOL
REMARK 927      BINDING AFFINITY PREDICTED BY RF-SCORE:    0.00 PKD
ROOT
HETATM    1  C   UNL     1      -8.317   3.831  65.165  1.00  0.00    -0.101 C  
HETATM    2  C   UNL     1      -9.166   5.032  64.779  1.00  0.00    -0.004 C  
ENDROOT
BRANCH   2   3
HETATM    3  C   UNL     1      -8.307   6.240  64.415  1.00  0.00     0.028 C  
BRANCH   3   4
HETATM    4  S   UNL     1      -9.207   7.770  64.682  1.00  0.00     1.509 S  
HETATM    5  O   UNL     1      -9.152   8.121  66.083  1.00  0.00    -0.175 OA 
HETATM    6  O   UNL     1     -10.455   7.700  63.961  1.00  0.00     7.509 OA 
BRANCH   4   7
HETATM    7  N   UNL     1      -8.268   8.855  63.787  1.00  0.00    -0.168 N  
HETATM    8  H   UNL     1      -7.452   8.539  63.262  1.00  0.00     0.000 HD 
BRANCH   7   9
HETATM    9  C   UNL     1      -8.658  10.230  63.793  1.00  0.00    -0.187 A  
HETATM   10  C   UNL     1      -9.183  10.814  64.953  1.00  0.00    -0.212 A  
HETATM   11  C   UNL     1      -9.323  12.200  65.047  1.00  0.00     0.202 A  
HETATM   12  F   UNL     1      -9.472  10.019  65.996  1.00  0.00    -0.187 F  
HETATM   13  C   UNL     1      -8.472  11.001  62.648  1.00  0.00    -0.213 A  
HETATM   14  C   UNL     1      -9.137  12.963  63.893  1.00  0.00     2.362 A  
HETATM   15  C   UNL     1      -8.742  12.368  62.692  1.00  0.00     2.964 A  
HETATM   16  F   UNL     1      -9.289  14.295  63.903  1.00  0.00     1.936 F  
BRANCH  11  17
HETATM   17  C   UNL     1      -9.611  12.884  66.331  1.00  0.00    -0.252 C  
HETATM   18  O   UNL     1      -8.673  13.358  66.967  1.00  0.00    -0.216 OA 
BRANCH  17  19
HETATM   19  C   UNL     1     -10.992  13.012  66.813  1.00  0.00    -0.299 A  
HETATM   20  C   UNL     1     -12.051  12.314  66.248  1.00  0.00    -0.074 A  
HETATM   21  N   UNL     1     -13.166  12.507  67.017  1.00  0.00     2.981 NA 
HETATM   22  C   UNL     1     -12.869  13.351  68.050  1.00  0.00     1.577 A  
HETATM   23  H   UNL     1     -14.079  12.086  66.846  1.00  0.00     0.000 HD 
HETATM   24  N   UNL     1     -13.727  13.684  69.031  1.00  0.00     4.252 NA 
HETATM   25  C   UNL     1     -13.187  14.545  69.936  1.00  0.00     0.615 A  
HETATM   26  C   UNL     1     -11.916  15.126  69.890  1.00  0.00    -0.372 A  
HETATM   27  C   UNL     1     -11.105  14.751  68.805  1.00  0.00    -0.277 A  
HETATM   28  C   UNL     1     -11.558  13.780  67.889  1.00  0.00    -0.376 A  
BRANCH  26  29
HETATM   29  C   UNL     1     -11.406  16.044  70.935  1.00  0.00    -0.421 A  
HETATM   30  C   UNL     1     -10.598  17.152  70.620  1.00  0.00     1.059 A  
HETATM   31  C   UNL     1     -10.178  18.053  71.608  1.00  0.00     4.528 A  
HETATM   32  C   UNL     1     -10.567  17.865  72.930  1.00  0.00     4.222 A  
HETATM   33  C   UNL     1     -11.353  16.772  73.276  1.00  0.00     1.021 A  
HETATM   34 CL   UNL     1     -10.085  18.987  74.139  1.00  0.00     3.561 Cl 
HETATM   35  C   UNL     1     -11.758  15.868  72.289  1.00  0.00    -0.586 A  
ENDBRANCH  26  29
ENDBRANCH  17  19
ENDBRANCH  11  17
ENDBRANCH   7   9
ENDBRANCH   4   7
ENDBRANCH   3   4
ENDBRANCH   2   3
TORSDOF 7
ENDMDL
MODEL      259
REMARK 921   NORMALIZED FREE ENERGY PREDICTED BY IDOCK:   27.87 KCAL/MOL
REMARK 922        TOTAL FREE ENERGY PREDICTED BY IDOCK:   37.52 KCAL/MOL
REMARK 923 INTER-LIGAND FREE ENERGY PREDICTED BY IDOCK:   36.59 KCAL/MOL
REMARK 924 INTRA-LIGAND FREE ENERGY PREDICTED BY IDOCK:    0.93 KCAL/MOL
REMARK 927      BINDING AFFINITY PREDICTED BY RF-SCORE:    0.00 PKD
ROOT
HETATM    1  C   UNL     1      -7.632  18.248  64.481  1.00  0.00     4.569 C  
HETATM    2  C   UNL     1      -6.624  17.191  64.901  1.00  0.00     3.548 C  
ENDROOT
BRANCH   2   3
HETATM    3  C   UNL     1      -7.288  15.840  65.146  1.00  0.00     7.327 C  
BRANCH   3   4
HETATM    4  S   UNL     1      -6.535  14.999  66.541  1.00  0.00     3.057 S  
HETATM    5  O   UNL     1      -7.550  14.269  67.268  1.00  0.00    -0.183 OA 
HETATM    6  O   UNL     1      -5.637  15.917  67.199  1.00  0.00    -0.333 OA 
BRANCH   4   7
HETATM    7  N   UNL     1      -5.512  13.911  65.746  1.00  0.00     6.784 N  
HETATM    8  H   UNL     1      -4.645  14.224  65.311  1.00  0.00     0.000 HD 
BRANCH   7   9
HETATM    9  C   UNL     1      -5.909  12.538  65.706  1.00  0.00     3.794 A  
HETATM   10  C   UNL     1      -6.433  11.917  66.847  1.00  0.00    -0.095 A  
HETATM   11  C   UNL     1      -7.056  10.671  66.752  1.00  0.00    -0.118 A  
HETATM   12  F   UNL     1      -6.394  12.581  68.014  1.00  0.00    -0.060 F  
HETATM   13  C   UNL     1      -5.812  11.831  64.510  1.00  0.00     3.239 A  
HETATM   14  C   UNL     1      -6.950   9.969  65.549  1.00  0.00    -0.124 A  
HETATM   15  C   UNL     1      -6.308  10.530  64.442  1.00  0.00     0.026 A  
HETATM   16  F   UNL     1      -7.494   8.753  65.400  1.00  0.00    -0.081 F  
BRANCH  11  17
HETATM   17  C   UNL     1      -7.860  10.098  67.858  1.00  0.00    -0.101 C  
HETATM   18  O   UNL     1      -9.056   9.889  67.669  1.00  0.00    -0.131 OA 
BRANCH  17  19
HETATM   19  C   UNL     1      -7.229   9.765  69.141  1.00  0.00    -0.073 A  
HETATM   20  C   UNL     1      -7.016   8.456  69.554  1.00  0.00    -0.045 A  
HETATM   21  N   UNL     1      -6.261   8.472  70.696  1.00  0.00    -0.035 NA 
HETATM   22  C   UNL     1      -6.011   9.764  71.061  1.00  0.00    -0.079 A  
HETATM   23  H   UNL     1      -5.935   7.646  71.197  1.00  0.00     0.000 HD 
HETATM   24  N   UNL     1      -5.233  10.126  72.097  1.00  0.00    -0.250 NA 
HETATM   25  C   UNL     1      -5.150  11.475  72.252  1.00  0.00     0.264 A  
HETATM   26  C   UNL     1      -5.822  12.450  71.510  1.00  0.00     0.750 A  
HETATM   27  C   UNL     1      -6.648  11.976  70.474  1.00  0.00     0.872 A  
HETATM   28  C   UNL     1      -6.696  10.597  70.186  1.00  0.00    -0.143 A  
BRANCH  26  29
HETATM   29  C   UNL     1      -5.656  13.903  71.741  1.00  0.00    -0.215 A  
HETATM   30  C   UNL     1      -5.887  14.848  70.723  1.00  0.00    -0.098 A  
HETATM   31  C   UNL     1      -5.794  16.224  70.971  1.00  0.00     0.459 A  
HETATM   32  C   UNL     1      -5.475  16.680  72.246  1.00  0.00     1.256 A  
HETATM   33  C   UNL     1      -5.228  15.773  73.268  1.00  0.00     1.785 A  
HETATM   34 CL   UNL     1      -5.396  18.368  72.563  1.00  0.00     1.260 Cl 
HETATM   35  C   UNL     1      -5.308  14.400  73.013  1.00  0.00    -0.233 A  
ENDBRANCH  26  29
ENDBRANCH  17  19
ENDBRANCH  11  17
ENDBRANCH   7   9
ENDBRANCH   4   7
ENDBRANCH   3   4
ENDBRANCH   2   3
TORSDOF 7
ENDMDL
MODEL      260
REMARK 921   NORMALIZED FREE ENERGY PREDICTED BY IDOCK:   29.75 KCAL/MOL
REMARK 922        TOTAL FREE ENERGY PREDICTED BY IDOCK:   40.17 KCAL/MOL
REMARK 923 INTER-LIGAND FREE ENERGY PREDICTED BY IDOCK:   26.20 KCAL/MOL
REMARK 924 INTRA-LIGAND FREE ENERGY PREDICTED BY IDOCK:   13.97 KCAL/MOL
REMARK 927      BINDING AFFINITY PREDICTED BY RF-SCORE:    0.00 PKD
ROOT
HETATM    1  C   UNL     1      -5.288   6.972  69.150  1.00  0.00    -0.014 C  
HETATM    2  C   UNL     1      -6.421   7.173  70.142  1.00  0.00    -0.042 C  
ENDROOT
BRANCH   2   3
HETATM    3  C   UNL     1      -7.460   8.164  69.624  1.00  0.00    -0.086 C  
BRANCH   3   4
HETATM    4  S   UNL     1      -6.678   9.476  68.681  1.00  0.00    -0.052 S  
HETATM    5  O   UNL     1      -5.315   9.645  69.130  1.00  0.00    -0.036 OA 
HETATM    6  O   UNL     1      -7.596  10.586  68.593  1.00  0.00    -0.087 OA 
BRANCH   4   7
HETATM    7  N   UNL     1      -6.686   8.804  67.129  1.00  0.00    -0.065 N  
HETATM    8  H   UNL     1      -6.704   7.793  66.991  1.00  0.00     0.000 HD 
BRANCH   7   9
HETATM    9  C   UNL     1      -6.666   9.704  66.018  1.00  0.00    -0.084 A  
HETATM   10  C   UNL     1      -7.796   9.852  65.204  1.00  0.00    -0.133 A  
HETATM   11  C   UNL     1      -7.876  10.903  64.287  1.00  0.00     0.392 A  
HETATM   12  F   UNL     1      -8.829   9.012  65.382  1.00  0.00    -0.167 F  
HETATM   13  C   UNL     1      -5.527  10.468  65.775  1.00  0.00    -0.102 A  
HETATM   14  C   UNL     1      -6.727  11.660  64.049  1.00  0.00     3.106 A  
HETATM   15  C   UNL     1      -5.551  11.429  64.765  1.00  0.00     1.241 A  
HETATM   16  F   UNL     1      -6.724  12.661  63.158  1.00  0.00     4.643 F  
BRANCH  11  17
HETATM   17  C   UNL     1      -9.140  11.266  63.605  1.00  0.00    -0.037 C  
HETATM   18  O   UNL     1      -9.272  10.976  62.418  1.00  0.00    -0.302 OA 
BRANCH  17  19
HETATM   19  C   UNL     1     -10.219  11.935  64.343  1.00  0.00    -0.333 A  
HETATM   20  C   UNL     1     -11.261  12.599  63.709  1.00  0.00    -0.463 A  
HETATM   21  N   UNL     1     -12.188  12.961  64.648  1.00  0.00    -0.411 NA 
HETATM   22  C   UNL     1     -11.755  12.585  65.888  1.00  0.00    -0.426 A  
HETATM   23  H   UNL     1     -13.068  13.439  64.453  1.00  0.00     0.000 HD 
HETATM   24  N   UNL     1     -12.468  12.727  67.019  1.00  0.00    -0.146 NA 
HETATM   25  C   UNL     1     -11.809  12.278  68.122  1.00  0.00    -0.311 A  
HETATM   26  C   UNL     1     -10.505  11.776  68.175  1.00  0.00    -0.221 A  
HETATM   27  C   UNL     1      -9.821  11.704  66.949  1.00  0.00    -0.218 A  
HETATM   28  C   UNL     1     -10.481  12.050  65.752  1.00  0.00    -0.290 A  
BRANCH  26  29
HETATM   29  C   UNL     1      -9.874  11.292  69.425  1.00  0.00     0.186 A  
HETATM   30  C   UNL     1     -10.383  11.629  70.693  1.00  0.00     3.242 A  
HETATM   31  C   UNL     1      -9.820  11.109  71.866  1.00  0.00    10.317 A  
HETATM   32  C   UNL     1      -8.740  10.235  71.790  1.00  0.00     4.879 A  
HETATM   33  C   UNL     1      -8.206   9.895  70.554  1.00  0.00     0.128 A  
HETATM   34 CL   UNL     1      -8.069   9.567  73.225  1.00  0.00     2.228 Cl 
HETATM   35  C   UNL     1      -8.762  10.427  69.387  1.00  0.00    -0.138 A  
ENDBRANCH  26  29
ENDBRANCH  17  19
ENDBRANCH  11  17
ENDBRANCH   7   9
ENDBRANCH   4   7
ENDBRANCH   3   4
ENDBRANCH   2   3
TORSDOF 7
ENDMDL
MODEL      261
REMARK 921   NORMALIZED FREE ENERGY PREDICTED BY IDOCK:   39.25 KCAL/MOL
REMARK 922        TOTAL FREE ENERGY PREDICTED BY IDOCK:   53.56 KCAL/MOL
REMARK 923 INTER-LIGAND FREE ENERGY PREDICTED BY IDOCK:    1.35 KCAL/MOL
REMARK 924 INTRA-LIGAND FREE ENERGY PREDICTED BY IDOCK:   52.22 KCAL/MOL
REMARK 927      BINDING AFFINITY PREDICTED BY RF-SCORE:    0.00 PKD
ROOT
HETATM    1  C   UNL     1      -7.572   9.150  68.080  1.00  0.00    -0.084 C  
HETATM    2  C   UNL     1      -8.597   8.237  67.428  1.00  0.00    -0.125 C  
ENDROOT
BRANCH   2   3
HETATM    3  C   UNL     1      -8.723   8.504  65.931  1.00  0.00    -0.174 C  
BRANCH   3   4
HETATM    4  S   UNL     1      -8.106  10.138  65.518  1.00  0.00    -0.152 S  
HETATM    5  O   UNL     1      -6.672  10.082  65.346  1.00  0.00    -0.100 OA 
HETATM    6  O   UNL     1      -8.733  11.099  66.393  1.00  0.00    -0.167 OA 
BRANCH   4   7
HETATM    7  N   UNL     1      -8.849  10.391  64.019  1.00  0.00    -0.199 N  
HETATM    8  H   UNL     1      -8.632   9.801  63.216  1.00  0.00     0.000 HD 
BRANCH   7   9
HETATM    9  C   UNL     1      -9.791  11.462  63.920  1.00  0.00    -0.300 A  
HETATM   10  C   UNL     1      -9.633  12.620  64.692  1.00  0.00     0.228 A  
HETATM   11  C   UNL     1     -10.388  13.763  64.418  1.00  0.00    -0.168 A  
HETATM   12  F   UNL     1      -8.688  12.631  65.646  1.00  0.00     0.238 F  
HETATM   13  C   UNL     1     -10.844  11.367  63.014  1.00  0.00    -0.048 A  
HETATM   14  C   UNL     1     -11.444  13.655  63.510  1.00  0.00     0.203 A  
HETATM   15  C   UNL     1     -11.692  12.459  62.832  1.00  0.00     0.202 A  
HETATM   16  F   UNL     1     -12.230  14.703  63.226  1.00  0.00     0.017 F  
BRANCH  11  17
HETATM   17  C   UNL     1     -10.075  15.083  65.014  1.00  0.00    -0.253 C  
HETATM   18  O   UNL     1     -10.780  16.045  64.716  1.00  0.00    -0.611 OA 
BRANCH  17  19
HETATM   19  C   UNL     1      -8.963  15.227  65.962  1.00  0.00    -0.151 A  
HETATM   20  C   UNL     1      -8.756  16.382  66.705  1.00  0.00    -0.256 A  
HETATM   21  N   UNL     1      -7.759  16.148  67.613  1.00  0.00    -0.135 NA 
HETATM   22  C   UNL     1      -7.281  14.879  67.452  1.00  0.00    -0.183 A  
HETATM   23  H   UNL     1      -7.424  16.819  68.304  1.00  0.00     0.000 HD 
HETATM   24  N   UNL     1      -6.349  14.311  68.237  1.00  0.00    -0.106 NA 
HETATM   25  C   UNL     1      -6.042  13.040  67.861  1.00  0.00    -0.131 A  
HETATM   26  C   UNL     1      -6.539  12.347  66.753  1.00  0.00     0.342 A  
HETATM   27  C   UNL     1      -7.478  13.037  65.965  1.00  0.00     2.824 A  
HETATM   28  C   UNL     1      -7.923  14.315  66.357  1.00  0.00     1.107 A  
BRANCH  26  29
HETATM   29  C   UNL     1      -6.159  10.953  66.431  1.00  0.00    -0.131 A  
HETATM   30  C   UNL     1      -6.259   9.918  67.381  1.00  0.00    -0.059 A  
HETATM   31  C   UNL     1      -5.963   8.590  67.046  1.00  0.00    -0.053 A  
HETATM   32  C   UNL     1      -5.568   8.272  65.750  1.00  0.00    -0.039 A  
HETATM   33  C   UNL     1      -5.446   9.272  64.795  1.00  0.00    -0.053 A  
HETATM   34 CL   UNL     1      -5.239   6.639  65.326  1.00  0.00    -0.024 Cl 
HETATM   35  C   UNL     1      -5.729  10.598  65.137  1.00  0.00    -0.112 A  
ENDBRANCH  26  29
ENDBRANCH  17  19
ENDBRANCH  11  17
ENDBRANCH   7   9
ENDBRANCH   4   7
ENDBRANCH   3   4
ENDBRANCH   2   3
TORSDOF 7
ENDMDL
MODEL      262
REMARK 921   NORMALIZED FREE ENERGY PREDICTED BY IDOCK:   41.97 KCAL/MOL
REMARK 922        TOTAL FREE ENERGY PREDICTED BY IDOCK:   57.39 KCAL/MOL
REMARK 923 INTER-LIGAND FREE ENERGY PREDICTED BY IDOCK:   55.81 KCAL/MOL
REMARK 924 INTRA-LIGAND FREE ENERGY PREDICTED BY IDOCK:    1.58 KCAL/MOL
REMARK 927      BINDING AFFINITY PREDICTED BY RF-SCORE:    0.00 PKD
ROOT
HETATM    1  C   UNL     1      -9.349   5.734  66.963  1.00  0.00    -0.122 C  
HETATM    2  C   UNL     1      -9.942   4.335  66.947  1.00  0.00    -0.178 C  
ENDROOT
BRANCH   2   3
HETATM    3  C   UNL     1     -11.268   4.290  66.194  1.00  0.00     1.918 C  
BRANCH   3   4
HETATM    4  S   UNL     1     -11.861   5.947  65.841  1.00  0.00     3.522 S  
HETATM    5  O   UNL     1     -12.886   5.884  64.824  1.00  0.00     5.228 OA 
HETATM    6  O   UNL     1     -10.722   6.826  65.724  1.00  0.00     1.294 OA 
BRANCH   4   7
HETATM    7  N   UNL     1     -12.557   6.361  67.325  1.00  0.00     4.698 N  
HETATM    8  H   UNL     1     -13.098   5.683  67.862  1.00  0.00     0.000 HD 
BRANCH   7   9
HETATM    9  C   UNL     1     -12.361   7.695  67.800  1.00  0.00     5.666 A  
HETATM   10  C   UNL     1     -11.141   8.071  68.376  1.00  0.00     0.388 A  
HETATM   11  C   UNL     1     -10.850   9.418  68.603  1.00  0.00    -0.149 A  
HETATM   12  F   UNL     1     -10.231   7.117  68.630  1.00  0.00    -0.158 F  
HETATM   13  C   UNL     1     -13.377   8.635  67.644  1.00  0.00    17.565 A  
HETATM   14  C   UNL     1     -11.877  10.351  68.447  1.00  0.00     0.255 A  
HETATM   15  C   UNL     1     -13.142   9.963  67.999  1.00  0.00     8.559 A  
HETATM   16  F   UNL     1     -11.677  11.656  68.681  1.00  0.00    -0.283 F  
BRANCH  11  17
HETATM   17  C   UNL     1      -9.488   9.889  68.950  1.00  0.00    -0.170 C  
HETATM   18  O   UNL     1      -9.212  10.070  70.134  1.00  0.00    -0.189 OA 
BRANCH  17  19
HETATM   19  C   UNL     1      -8.485  10.107  67.900  1.00  0.00    -0.118 A  
HETATM   20  C   UNL     1      -7.819   9.063  67.272  1.00  0.00    -0.099 A  
HETATM   21  N   UNL     1      -7.088   9.569  66.232  1.00  0.00    -0.091 NA 
HETATM   22  C   UNL     1      -7.229  10.928  66.191  1.00  0.00    -0.101 A  
HETATM   23  H   UNL     1      -6.524   9.018  65.586  1.00  0.00     0.000 HD 
HETATM   24  N   UNL     1      -6.700  11.720  65.242  1.00  0.00     1.559 NA 
HETATM   25  C   UNL     1      -6.984  13.037  65.434  1.00  0.00     7.218 A  
HETATM   26  C   UNL     1      -7.679  13.601  66.508  1.00  0.00     1.205 A  
HETATM   27  C   UNL     1      -8.158  12.698  67.474  1.00  0.00    -0.178 A  
HETATM   28  C   UNL     1      -7.996  11.311  67.284  1.00  0.00    -0.141 A  
BRANCH  26  29
HETATM   29  C   UNL     1      -7.955  15.051  66.624  1.00  0.00     0.164 A  
HETATM   30  C   UNL     1      -7.122  15.909  67.365  1.00  0.00    -0.230 A  
HETATM   31  C   UNL     1      -7.353  17.291  67.411  1.00  0.00    -0.185 A  
HETATM   32  C   UNL     1      -8.421  17.840  66.707  1.00  0.00    -0.248 A  
HETATM   33  C   UNL     1      -9.270  17.018  65.978  1.00  0.00    -0.177 A  
HETATM   34 CL   UNL     1      -8.687  19.538  66.731  1.00  0.00    -0.332 Cl 
HETATM   35  C   UNL     1      -9.043  15.638  65.946  1.00  0.00    -0.277 A  
ENDBRANCH  26  29
ENDBRANCH  17  19
ENDBRANCH  11  17
ENDBRANCH   7   9
ENDBRANCH   4   7
ENDBRANCH   3   4
ENDBRANCH   2   3
TORSDOF 7
ENDMDL
MODEL      263
REMARK 921   NORMALIZED FREE ENERGY PREDICTED BY IDOCK:   46.17 KCAL/MOL
REMARK 922        TOTAL FREE ENERGY PREDICTED BY IDOCK:   63.31 KCAL/MOL
REMARK 923 INTER-LIGAND FREE ENERGY PREDICTED BY IDOCK:   55.74 KCAL/MOL
REMARK 924 INTRA-LIGAND FREE ENERGY PREDICTED BY IDOCK:    7.57 KCAL/MOL
REMARK 927      BINDING AFFINITY PREDICTED BY RF-SCORE:    0.00 PKD
ROOT
HETATM    1  C   UNL     1      -5.471  16.005  67.235  1.00  0.00    -0.018 C  
HETATM    2  C   UNL     1      -5.879  17.247  68.012  1.00  0.00    -0.126 C  
ENDROOT
BRANCH   2   3
HETATM    3  C   UNL     1      -6.998  16.951  69.006  1.00  0.00    -0.224 C  
BRANCH   3   4
HETATM    4  S   UNL     1      -6.751  15.357  69.793  1.00  0.00    -0.142 S  
HETATM    5  O   UNL     1      -5.995  15.535  71.012  1.00  0.00     0.115 OA 
HETATM    6  O   UNL     1      -6.360  14.403  68.783  1.00  0.00    -0.080 OA 
BRANCH   4   7
HETATM    7  N   UNL     1      -8.345  14.936  70.170  1.00  0.00    -0.123 N  
HETATM    8  H   UNL     1      -8.993  15.618  70.563  1.00  0.00     0.000 HD 
BRANCH   7   9
HETATM    9  C   UNL     1      -8.751  13.588  69.918  1.00  0.00     2.341 A  
HETATM   10  C   UNL     1      -9.119  12.747  70.976  1.00  0.00    11.311 A  
HETATM   11  C   UNL     1      -9.756  11.530  70.725  1.00  0.00     5.260 A  
HETATM   12  F   UNL     1      -8.917  13.174  72.233  1.00  0.00    12.462 F  
HETATM   13  C   UNL     1      -8.823  13.128  68.605  1.00  0.00     0.051 A  
HETATM   14  C   UNL     1      -9.819  11.077  69.406  1.00  0.00     0.051 A  
HETATM   15  C   UNL     1      -9.331  11.854  68.353  1.00  0.00    -0.184 A  
HETATM   16  F   UNL     1     -10.386   9.902  69.098  1.00  0.00    -0.174 F  
BRANCH  11  17
HETATM   17  C   UNL     1     -10.405  10.738  71.797  1.00  0.00     5.414 C  
HETATM   18  O   UNL     1     -10.128  10.993  72.967  1.00  0.00    11.991 OA 
BRANCH  17  19
HETATM   19  C   UNL     1     -11.379   9.691  71.463  1.00  0.00    -0.420 A  
HETATM   20  C   UNL     1     -12.493   9.426  72.247  1.00  0.00    -0.268 A  
HETATM   21  N   UNL     1     -13.291   8.528  71.590  1.00  0.00    -0.367 NA 
HETATM   22  C   UNL     1     -12.701   8.168  70.412  1.00  0.00     0.798 A  
HETATM   23  H   UNL     1     -14.188   8.180  71.928  1.00  0.00     0.000 HD 
HETATM   24  N   UNL     1     -13.261   7.358  69.496  1.00  0.00     3.510 NA 
HETATM   25  C   UNL     1     -12.464   7.153  68.412  1.00  0.00     4.712 A  
HETATM   26  C   UNL     1     -11.165   7.632  68.220  1.00  0.00     0.415 A  
HETATM   27  C   UNL     1     -10.645   8.436  69.251  1.00  0.00    -0.193 A  
HETATM   28  C   UNL     1     -11.455   8.780  70.352  1.00  0.00    -0.163 A  
BRANCH  26  29
HETATM   29  C   UNL     1     -10.377   7.370  66.994  1.00  0.00    -0.384 A  
HETATM   30  C   UNL     1      -9.887   8.416  66.189  1.00  0.00    -0.183 A  
HETATM   31  C   UNL     1      -9.084   8.159  65.069  1.00  0.00     0.332 A  
HETATM   32  C   UNL     1      -8.750   6.849  64.740  1.00  0.00     0.342 A  
HETATM   33  C   UNL     1      -9.229   5.795  65.507  1.00  0.00     0.015 A  
HETATM   34 CL   UNL     1      -7.736   6.532  63.389  1.00  0.00    -0.102 Cl 
HETATM   35  C   UNL     1     -10.042   6.055  66.615  1.00  0.00    -0.226 A  
ENDBRANCH  26  29
ENDBRANCH  17  19
ENDBRANCH  11  17
ENDBRANCH   7   9
ENDBRANCH   4   7
ENDBRANCH   3   4
ENDBRANCH   2   3
TORSDOF 7
ENDMDL
MODEL      264
REMARK 921   NORMALIZED FREE ENERGY PREDICTED BY IDOCK:   58.75 KCAL/MOL
REMARK 922        TOTAL FREE ENERGY PREDICTED BY IDOCK:   81.05 KCAL/MOL
REMARK 923 INTER-LIGAND FREE ENERGY PREDICTED BY IDOCK:   77.11 KCAL/MOL
REMARK 924 INTRA-LIGAND FREE ENERGY PREDICTED BY IDOCK:    3.94 KCAL/MOL
REMARK 927      BINDING AFFINITY PREDICTED BY RF-SCORE:    0.00 PKD
ROOT
HETATM    1  C   UNL     1      -8.048  14.900  74.385  1.00  0.00    10.353 C  
HETATM    2  C   UNL     1      -6.747  15.255  73.684  1.00  0.00     4.095 C  
ENDROOT
BRANCH   2   3
HETATM    3  C   UNL     1      -6.993  15.996  72.373  1.00  0.00     6.336 C  
BRANCH   3   4
HETATM    4  S   UNL     1      -7.777  14.921  71.167  1.00  0.00     3.008 S  
HETATM    5  O   UNL     1      -7.964  15.643  69.929  1.00  0.00    -0.070 OA 
HETATM    6  O   UNL     1      -8.860  14.221  71.814  1.00  0.00     5.088 OA 
BRANCH   4   7
HETATM    7  N   UNL     1      -6.581  13.743  70.963  1.00  0.00    -0.073 N  
HETATM    8  H   UNL     1      -5.732  13.939  70.433  1.00  0.00     0.000 HD 
BRANCH   7   9
HETATM    9  C   UNL     1      -6.805  12.462  71.558  1.00  0.00     4.745 A  
HETATM   10  C   UNL     1      -8.108  11.980  71.736  1.00  0.00    13.886 A  
HETATM   11  C   UNL     1      -8.329  10.642  72.071  1.00  0.00     8.117 A  
HETATM   12  F   UNL     1      -9.137  12.811  71.499  1.00  0.00    11.980 F  
HETATM   13  C   UNL     1      -5.715  11.674  71.919  1.00  0.00     0.928 A  
HETATM   14  C   UNL     1      -7.229   9.862  72.435  1.00  0.00     2.318 A  
HETATM   15  C   UNL     1      -5.932  10.379  72.389  1.00  0.00     1.020 A  
HETATM   16  F   UNL     1      -7.373   8.581  72.802  1.00  0.00    -0.139 F  
BRANCH  11  17
HETATM   17  C   UNL     1      -9.672  10.018  72.005  1.00  0.00     3.678 C  
HETATM   18  O   UNL     1     -10.645  10.678  72.360  1.00  0.00     4.709 OA 
BRANCH  17  19
HETATM   19  C   UNL     1      -9.832   8.649  71.499  1.00  0.00    -0.342 A  
HETATM   20  C   UNL     1     -10.186   7.585  72.318  1.00  0.00    -0.206 A  
HETATM   21  N   UNL     1     -10.425   6.488  71.535  1.00  0.00    -0.212 NA 
HETATM   22  C   UNL     1     -10.195   6.801  70.225  1.00  0.00    -0.195 A  
HETATM   23  H   UNL     1     -10.728   5.576  71.876  1.00  0.00     0.000 HD 
HETATM   24  N   UNL     1     -10.410   5.966  69.193  1.00  0.00    -0.213 NA 
HETATM   25  C   UNL     1     -10.096   6.518  67.990  1.00  0.00    -0.150 A  
HETATM   26  C   UNL     1      -9.538   7.780  67.764  1.00  0.00    -0.172 A  
HETATM   27  C   UNL     1      -9.308   8.566  68.906  1.00  0.00    -0.146 A  
HETATM   28  C   UNL     1      -9.710   8.101  70.175  1.00  0.00    -0.175 A  
BRANCH  26  29
HETATM   29  C   UNL     1      -9.244   8.305  66.411  1.00  0.00    -0.247 A  
HETATM   30  C   UNL     1     -10.039   9.302  65.813  1.00  0.00    -0.092 A  
HETATM   31  C   UNL     1      -9.712   9.842  64.562  1.00  0.00    -0.110 A  
HETATM   32  C   UNL     1      -8.578   9.398  63.889  1.00  0.00    -0.210 A  
HETATM   33  C   UNL     1      -7.782   8.406  64.446  1.00  0.00    -0.133 A  
HETATM   34 CL   UNL     1      -8.153  10.083  62.370  1.00  0.00    -0.138 Cl 
HETATM   35  C   UNL     1      -8.119   7.860  65.688  1.00  0.00    -0.130 A  
ENDBRANCH  26  29
ENDBRANCH  17  19
ENDBRANCH  11  17
ENDBRANCH   7   9
ENDBRANCH   4   7
ENDBRANCH   3   4
ENDBRANCH   2   3
TORSDOF 7
ENDMDL
