MODEL        1
REMARK 921   NORMALIZED FREE ENERGY PREDICTED BY IDOCK:   -6.26 KCAL/MOL
REMARK 922        TOTAL FREE ENERGY PREDICTED BY IDOCK:   -7.23 KCAL/MOL
REMARK 923 INTER-LIGAND FREE ENERGY PREDICTED BY IDOCK:   -6.99 KCAL/MOL
REMARK 924 INTRA-LIGAND FREE ENERGY PREDICTED BY IDOCK:   -0.24 KCAL/MOL
REMARK 927      BINDING AFFINITY PREDICTED BY RF-SCORE:    0.00 PKD
ROOT
HETATM    1  C   UNL     1     -12.434  15.768  74.326  1.00  0.00    -0.654 C  
HETATM    2  O   UNL     1     -13.317  15.396  73.274  1.00  0.00    -0.486 OA 
ENDROOT
BRANCH   2   3
HETATM    3  C   UNL     1     -12.809  15.437  72.006  1.00  0.00    -0.388 A  
HETATM    4  C   UNL     1     -13.525  15.220  70.835  1.00  0.00    -0.441 A  
HETATM    5  C   UNL     1     -12.893  15.311  69.590  1.00  0.00     0.153 A  
HETATM    6  C   UNL     1     -11.520  15.590  69.479  1.00  0.00    -0.341 A  
HETATM    7  C   UNL     1     -10.809  15.803  70.668  1.00  0.00    -0.281 A  
HETATM    8  C   UNL     1     -10.871  15.651  68.082  1.00  0.00    -0.301 C  
HETATM    9  C   UNL     1      -9.730  16.719  67.969  1.00  0.00    -0.243 C  
HETATM   10  C   UNL     1     -11.449  15.736  71.913  1.00  0.00    -0.477 A  
HETATM   11  C   UNL     1     -10.401  14.230  67.555  1.00  0.00    -0.248 C  
HETATM   12  O   UNL     1      -9.428  13.684  68.458  1.00  0.00    -0.261 OA 
HETATM   13  C   UNL     1     -11.558  13.208  67.415  1.00  0.00    -0.403 C  
HETATM   14  C   UNL     1      -9.713  14.278  66.168  1.00  0.00    -0.325 C  
HETATM   15  C   UNL     1     -10.662  14.713  65.053  1.00  0.00    -0.448 C  
HETATM   16  C   UNL     1     -11.882  13.800  64.968  1.00  0.00    -0.381 C  
HETATM   17  C   UNL     1     -12.559  13.592  66.321  1.00  0.00    -0.346 C  
HETATM   18  H   UNL     1      -9.146  12.834  68.143  1.00  0.00     0.000 HD 
BRANCH   9  19
HETATM   19  N   UNL     1     -10.108  18.111  68.306  1.00  0.00    -0.366 NA 
HETATM   20  C   UNL     1     -10.784  18.779  67.192  1.00  0.00    -0.403 C  
HETATM   21  C   UNL     1      -8.913  18.880  68.671  1.00  0.00    -0.350 C  
ENDBRANCH   9  19
ENDBRANCH   2   3
TORSDOF 2
ENDMDL
MODEL        2
REMARK 921   NORMALIZED FREE ENERGY PREDICTED BY IDOCK:   -5.97 KCAL/MOL
REMARK 922        TOTAL FREE ENERGY PREDICTED BY IDOCK:   -6.91 KCAL/MOL
REMARK 923 INTER-LIGAND FREE ENERGY PREDICTED BY IDOCK:   -6.69 KCAL/MOL
REMARK 924 INTRA-LIGAND FREE ENERGY PREDICTED BY IDOCK:   -0.22 KCAL/MOL
REMARK 927      BINDING AFFINITY PREDICTED BY RF-SCORE:    0.00 PKD
ROOT
HETATM    1  C   UNL     1     -12.483  15.520  73.606  1.00  0.00    -0.588 C  
HETATM    2  O   UNL     1     -12.415  16.135  72.325  1.00  0.00    -0.463 OA 
ENDROOT
BRANCH   2   3
HETATM    3  C   UNL     1     -12.065  15.329  71.277  1.00  0.00    -0.349 A  
HETATM    4  C   UNL     1     -12.577  14.064  71.016  1.00  0.00    -0.437 A  
HETATM    5  C   UNL     1     -12.153  13.345  69.894  1.00  0.00    -0.389 A  
HETATM    6  C   UNL     1     -11.180  13.855  69.016  1.00  0.00    -0.312 A  
HETATM    7  C   UNL     1     -10.669  15.130  69.293  1.00  0.00    -0.250 A  
HETATM    8  C   UNL     1     -10.730  13.006  67.811  1.00  0.00    -0.242 C  
HETATM    9  C   UNL     1     -10.394  13.856  66.538  1.00  0.00    -0.286 C  
HETATM   10  C   UNL     1     -11.114  15.860  70.404  1.00  0.00    -0.382 A  
HETATM   11  C   UNL     1      -9.561  11.993  68.168  1.00  0.00    -0.200 C  
HETATM   12  O   UNL     1      -8.417  12.729  68.627  1.00  0.00    -0.325 OA 
HETATM   13  C   UNL     1      -9.946  10.964  69.261  1.00  0.00    -0.137 C  
HETATM   14  C   UNL     1      -9.071  11.159  66.958  1.00  0.00    -0.158 C  
HETATM   15  C   UNL     1     -10.141  10.206  66.426  1.00  0.00    -0.300 C  
HETATM   16  C   UNL     1     -10.637   9.258  67.514  1.00  0.00    -0.329 C  
HETATM   17  C   UNL     1     -11.030   9.985  68.798  1.00  0.00    -0.242 C  
HETATM   18  H   UNL     1      -7.718  12.123  68.842  1.00  0.00     0.000 HD 
BRANCH   9  19
HETATM   19  N   UNL     1     -11.476  14.735  66.039  1.00  0.00    -0.343 NA 
HETATM   20  C   UNL     1     -12.629  13.965  65.566  1.00  0.00    -0.526 C  
HETATM   21  C   UNL     1     -10.977  15.572  64.943  1.00  0.00    -0.436 C  
ENDBRANCH   9  19
ENDBRANCH   2   3
TORSDOF 2
ENDMDL
MODEL        3
REMARK 921   NORMALIZED FREE ENERGY PREDICTED BY IDOCK:   -5.91 KCAL/MOL
REMARK 922        TOTAL FREE ENERGY PREDICTED BY IDOCK:   -6.85 KCAL/MOL
REMARK 923 INTER-LIGAND FREE ENERGY PREDICTED BY IDOCK:   -6.74 KCAL/MOL
REMARK 924 INTRA-LIGAND FREE ENERGY PREDICTED BY IDOCK:   -0.11 KCAL/MOL
REMARK 927      BINDING AFFINITY PREDICTED BY RF-SCORE:    0.00 PKD
ROOT
HETATM    1  C   UNL     1     -13.017  14.715  73.193  1.00  0.00    -0.500 C  
HETATM    2  O   UNL     1     -13.571  13.482  72.748  1.00  0.00    -0.672 OA 
ENDROOT
BRANCH   2   3
HETATM    3  C   UNL     1     -12.971  12.894  71.670  1.00  0.00    -0.313 A  
HETATM    4  C   UNL     1     -13.036  11.547  71.336  1.00  0.00    -0.450 A  
HETATM    5  C   UNL     1     -12.393  11.069  70.189  1.00  0.00    -0.389 A  
HETATM    6  C   UNL     1     -11.639  11.917  69.359  1.00  0.00    -0.388 A  
HETATM    7  C   UNL     1     -11.578  13.272  69.709  1.00  0.00    -0.297 A  
HETATM    8  C   UNL     1     -10.929  11.329  68.123  1.00  0.00    -0.284 C  
HETATM    9  C   UNL     1     -10.887  12.310  66.902  1.00  0.00    -0.251 C  
HETATM   10  C   UNL     1     -12.244  13.754  70.845  1.00  0.00    -0.427 A  
HETATM   11  C   UNL     1      -9.494  10.740  68.456  1.00  0.00    -0.181 C  
HETATM   12  O   UNL     1      -8.658  11.785  68.975  1.00  0.00    -0.369 OA 
HETATM   13  C   UNL     1      -9.522   9.584  69.487  1.00  0.00    -0.195 C  
HETATM   14  C   UNL     1      -8.751  10.179  67.217  1.00  0.00    -0.130 C  
HETATM   15  C   UNL     1      -9.444   8.958  66.615  1.00  0.00    -0.261 C  
HETATM   16  C   UNL     1      -9.604   7.842  67.644  1.00  0.00    -0.183 C  
HETATM   17  C   UNL     1     -10.220   8.329  68.953  1.00  0.00    -0.222 C  
HETATM   18  H   UNL     1      -7.799  11.433  69.174  1.00  0.00     0.000 HD 
BRANCH   9  19
HETATM   19  N   UNL     1     -12.196  12.808  66.423  1.00  0.00    -0.518 NA 
HETATM   20  C   UNL     1     -12.464  12.402  65.041  1.00  0.00    -0.316 C  
HETATM   21  C   UNL     1     -12.237  14.272  66.508  1.00  0.00    -0.391 C  
ENDBRANCH   9  19
ENDBRANCH   2   3
TORSDOF 2
ENDMDL
MODEL        4
REMARK 921   NORMALIZED FREE ENERGY PREDICTED BY IDOCK:   -5.83 KCAL/MOL
REMARK 922        TOTAL FREE ENERGY PREDICTED BY IDOCK:   -6.75 KCAL/MOL
REMARK 923 INTER-LIGAND FREE ENERGY PREDICTED BY IDOCK:   -6.59 KCAL/MOL
REMARK 924 INTRA-LIGAND FREE ENERGY PREDICTED BY IDOCK:   -0.16 KCAL/MOL
REMARK 927      BINDING AFFINITY PREDICTED BY RF-SCORE:    0.00 PKD
ROOT
HETATM    1  C   UNL     1      -9.413  20.708  67.368  1.00  0.00    -0.376 C  
HETATM    2  O   UNL     1     -10.648  20.012  67.248  1.00  0.00    -0.395 OA 
ENDROOT
BRANCH   2   3
HETATM    3  C   UNL     1     -10.574  18.664  67.037  1.00  0.00    -0.397 A  
HETATM    4  C   UNL     1     -10.627  18.028  65.802  1.00  0.00    -0.174 A  
HETATM    5  C   UNL     1     -10.518  16.636  65.716  1.00  0.00    -0.324 A  
HETATM    6  C   UNL     1     -10.385  15.835  66.864  1.00  0.00    -0.295 A  
HETATM    7  C   UNL     1     -10.338  16.487  68.102  1.00  0.00    -0.296 A  
HETATM    8  C   UNL     1     -10.298  14.303  66.709  1.00  0.00    -0.274 C  
HETATM    9  C   UNL     1      -9.357  13.623  67.762  1.00  0.00    -0.218 C  
HETATM   10  C   UNL     1     -10.422  17.885  68.185  1.00  0.00    -0.380 A  
HETATM   11  C   UNL     1     -11.721  13.604  66.653  1.00  0.00    -0.388 C  
HETATM   12  O   UNL     1     -12.434  13.874  67.869  1.00  0.00    -0.436 OA 
HETATM   13  C   UNL     1     -12.596  14.075  65.464  1.00  0.00    -0.543 C  
HETATM   14  C   UNL     1     -11.650  12.060  66.536  1.00  0.00    -0.384 C  
HETATM   15  C   UNL     1     -11.035  11.596  65.218  1.00  0.00    -0.327 C  
HETATM   16  C   UNL     1     -11.800  12.148  64.018  1.00  0.00    -0.523 C  
HETATM   17  C   UNL     1     -12.026  13.656  64.105  1.00  0.00    -0.488 C  
HETATM   18  H   UNL     1     -13.286  13.455  67.836  1.00  0.00     0.000 HD 
BRANCH   9  19
HETATM   19  N   UNL     1      -7.960  14.112  67.796  1.00  0.00    -0.154 NA 
HETATM   20  C   UNL     1      -7.012  13.089  67.346  1.00  0.00    -0.116 C  
HETATM   21  C   UNL     1      -7.606  14.525  69.158  1.00  0.00    -0.102 C  
ENDBRANCH   9  19
ENDBRANCH   2   3
TORSDOF 2
ENDMDL
MODEL        5
REMARK 921   NORMALIZED FREE ENERGY PREDICTED BY IDOCK:   -5.67 KCAL/MOL
REMARK 922        TOTAL FREE ENERGY PREDICTED BY IDOCK:   -6.57 KCAL/MOL
REMARK 923 INTER-LIGAND FREE ENERGY PREDICTED BY IDOCK:   -6.48 KCAL/MOL
REMARK 924 INTRA-LIGAND FREE ENERGY PREDICTED BY IDOCK:   -0.09 KCAL/MOL
REMARK 927      BINDING AFFINITY PREDICTED BY RF-SCORE:    0.00 PKD
ROOT
HETATM    1  C   UNL     1     -10.441  10.979  63.495  1.00  0.00    -0.300 C  
HETATM    2  O   UNL     1     -11.602  11.740  63.806  1.00  0.00    -0.414 OA 
ENDROOT
BRANCH   2   3
HETATM    3  C   UNL     1     -11.443  12.761  64.701  1.00  0.00    -0.324 A  
HETATM    4  C   UNL     1     -11.837  14.079  64.511  1.00  0.00    -0.452 A  
HETATM    5  C   UNL     1     -11.638  15.031  65.517  1.00  0.00    -0.208 A  
HETATM    6  C   UNL     1     -11.010  14.701  66.731  1.00  0.00    -0.323 A  
HETATM    7  C   UNL     1     -10.614  13.369  66.908  1.00  0.00    -0.273 A  
HETATM    8  C   UNL     1     -10.792  15.798  67.792  1.00  0.00    -0.316 C  
HETATM    9  C   UNL     1     -10.921  15.277  69.264  1.00  0.00    -0.261 C  
HETATM   10  C   UNL     1     -10.837  12.411  65.909  1.00  0.00    -0.305 A  
HETATM   11  C   UNL     1      -9.449  16.614  67.571  1.00  0.00    -0.229 C  
HETATM   12  O   UNL     1      -8.329  15.718  67.642  1.00  0.00    -0.150 OA 
HETATM   13  C   UNL     1      -9.391  17.356  66.212  1.00  0.00    -0.240 C  
HETATM   14  C   UNL     1      -9.196  17.695  68.652  1.00  0.00    -0.266 C  
HETATM   15  C   UNL     1     -10.235  18.814  68.622  1.00  0.00    -0.366 C  
HETATM   16  C   UNL     1     -10.295  19.486  67.253  1.00  0.00    -0.566 C  
HETATM   17  C   UNL     1     -10.422  18.484  66.108  1.00  0.00    -0.447 C  
HETATM   18  H   UNL     1      -7.525  16.207  67.510  1.00  0.00     0.000 HD 
BRANCH   9  19
HETATM   19  N   UNL     1     -12.202  14.620  69.610  1.00  0.00    -0.306 NA 
HETATM   20  C   UNL     1     -12.901  15.321  70.691  1.00  0.00    -0.409 C  
HETATM   21  C   UNL     1     -11.960  13.233  70.020  1.00  0.00    -0.329 C  
ENDBRANCH   9  19
ENDBRANCH   2   3
TORSDOF 2
ENDMDL
MODEL        6
REMARK 921   NORMALIZED FREE ENERGY PREDICTED BY IDOCK:   -5.53 KCAL/MOL
REMARK 922        TOTAL FREE ENERGY PREDICTED BY IDOCK:   -6.42 KCAL/MOL
REMARK 923 INTER-LIGAND FREE ENERGY PREDICTED BY IDOCK:   -6.32 KCAL/MOL
REMARK 924 INTRA-LIGAND FREE ENERGY PREDICTED BY IDOCK:   -0.09 KCAL/MOL
REMARK 927      BINDING AFFINITY PREDICTED BY RF-SCORE:    0.00 PKD
ROOT
HETATM    1  C   UNL     1      -9.922  19.622  68.723  1.00  0.00    -0.451 C  
HETATM    2  O   UNL     1     -10.637  19.168  67.579  1.00  0.00    -0.434 OA 
ENDROOT
BRANCH   2   3
HETATM    3  C   UNL     1     -10.477  17.854  67.239  1.00  0.00    -0.366 A  
HETATM    4  C   UNL     1     -10.487  17.340  65.948  1.00  0.00    -0.267 A  
HETATM    5  C   UNL     1     -10.291  15.972  65.728  1.00  0.00    -0.398 A  
HETATM    6  C   UNL     1     -10.110  15.072  66.793  1.00  0.00    -0.257 A  
HETATM    7  C   UNL     1     -10.106  15.603  68.090  1.00  0.00    -0.222 A  
HETATM    8  C   UNL     1      -9.926  13.572  66.492  1.00  0.00    -0.287 C  
HETATM    9  C   UNL     1      -8.946  12.852  67.480  1.00  0.00    -0.193 C  
HETATM   10  C   UNL     1     -10.279  16.977  68.307  1.00  0.00    -0.326 A  
HETATM   11  C   UNL     1     -11.302  12.794  66.355  1.00  0.00    -0.323 C  
HETATM   12  O   UNL     1     -12.033  12.898  67.587  1.00  0.00    -0.352 OA 
HETATM   13  C   UNL     1     -12.202  13.323  65.211  1.00  0.00    -0.492 C  
HETATM   14  C   UNL     1     -11.134  11.276  66.090  1.00  0.00    -0.207 C  
HETATM   15  C   UNL     1     -10.488  10.982  64.738  1.00  0.00    -0.384 C  
HETATM   16  C   UNL     1     -11.283  11.600  63.591  1.00  0.00    -0.497 C  
HETATM   17  C   UNL     1     -11.605  13.075  63.822  1.00  0.00    -0.517 C  
HETATM   18  H   UNL     1     -12.857  12.433  67.505  1.00  0.00     0.000 HD 
BRANCH   9  19
HETATM   19  N   UNL     1      -7.583  13.422  67.574  1.00  0.00    -0.170 NA 
HETATM   20  C   UNL     1      -6.558  12.455  67.172  1.00  0.00    -0.089 C  
HETATM   21  C   UNL     1      -7.315  13.859  68.948  1.00  0.00    -0.088 C  
ENDBRANCH   9  19
ENDBRANCH   2   3
TORSDOF 2
ENDMDL
MODEL        7
REMARK 921   NORMALIZED FREE ENERGY PREDICTED BY IDOCK:   -5.52 KCAL/MOL
REMARK 922        TOTAL FREE ENERGY PREDICTED BY IDOCK:   -6.41 KCAL/MOL
REMARK 923 INTER-LIGAND FREE ENERGY PREDICTED BY IDOCK:   -6.26 KCAL/MOL
REMARK 924 INTRA-LIGAND FREE ENERGY PREDICTED BY IDOCK:   -0.15 KCAL/MOL
REMARK 927      BINDING AFFINITY PREDICTED BY RF-SCORE:    0.00 PKD
ROOT
HETATM    1  C   UNL     1     -11.562  16.173  71.542  1.00  0.00    -0.430 C  
HETATM    2  O   UNL     1     -12.531  15.658  70.637  1.00  0.00    -0.416 OA 
ENDROOT
BRANCH   2   3
HETATM    3  C   UNL     1     -12.088  14.751  69.715  1.00  0.00    -0.319 A  
HETATM    4  C   UNL     1     -12.151  13.368  69.838  1.00  0.00    -0.389 A  
HETATM    5  C   UNL     1     -11.681  12.543  68.811  1.00  0.00    -0.371 A  
HETATM    6  C   UNL     1     -11.104  13.074  67.644  1.00  0.00    -0.296 A  
HETATM    7  C   UNL     1     -11.042  14.470  67.535  1.00  0.00    -0.316 A  
HETATM    8  C   UNL     1     -10.577  12.116  66.557  1.00  0.00    -0.269 C  
HETATM    9  C   UNL     1     -10.769  12.658  65.100  1.00  0.00    -0.292 C  
HETATM   10  C   UNL     1     -11.537  15.296  68.554  1.00  0.00    -0.368 A  
HETATM   11  C   UNL     1      -9.084  11.644  66.819  1.00  0.00    -0.186 C  
HETATM   12  O   UNL     1      -8.219  12.790  66.838  1.00  0.00    -0.350 OA 
HETATM   13  C   UNL     1      -8.901  10.876  68.151  1.00  0.00    -0.137 C  
HETATM   14  C   UNL     1      -8.526  10.710  65.715  1.00  0.00    -0.179 C  
HETATM   15  C   UNL     1      -9.257   9.370  65.651  1.00  0.00    -0.285 C  
HETATM   16  C   UNL     1      -9.206   8.640  66.990  1.00  0.00    -0.186 C  
HETATM   17  C   UNL     1      -9.625   9.526  68.162  1.00  0.00    -0.153 C  
HETATM   18  H   UNL     1      -7.325  12.508  66.994  1.00  0.00     0.000 HD 
BRANCH   9  19
HETATM   19  N   UNL     1     -12.157  12.996  64.710  1.00  0.00    -0.390 NA 
HETATM   20  C   UNL     1     -12.659  12.112  63.656  1.00  0.00    -0.504 C  
HETATM   21  C   UNL     1     -12.223  14.384  64.241  1.00  0.00    -0.423 C  
ENDBRANCH   9  19
ENDBRANCH   2   3
TORSDOF 2
ENDMDL
MODEL        8
REMARK 921   NORMALIZED FREE ENERGY PREDICTED BY IDOCK:   -5.43 KCAL/MOL
REMARK 922        TOTAL FREE ENERGY PREDICTED BY IDOCK:   -6.31 KCAL/MOL
REMARK 923 INTER-LIGAND FREE ENERGY PREDICTED BY IDOCK:   -6.10 KCAL/MOL
REMARK 924 INTRA-LIGAND FREE ENERGY PREDICTED BY IDOCK:   -0.21 KCAL/MOL
REMARK 927      BINDING AFFINITY PREDICTED BY RF-SCORE:    0.00 PKD
ROOT
HETATM    1  C   UNL     1     -12.397  15.738  74.418  1.00  0.00    -0.648 C  
HETATM    2  O   UNL     1     -13.061  14.918  73.463  1.00  0.00    -0.522 OA 
ENDROOT
BRANCH   2   3
HETATM    3  C   UNL     1     -12.441  14.760  72.255  1.00  0.00    -0.327 A  
HETATM    4  C   UNL     1     -11.364  15.503  71.789  1.00  0.00    -0.463 A  
HETATM    5  C   UNL     1     -10.802  15.229  70.537  1.00  0.00    -0.287 A  
HETATM    6  C   UNL     1     -11.320  14.226  69.700  1.00  0.00    -0.292 A  
HETATM    7  C   UNL     1     -12.409  13.487  70.180  1.00  0.00    -0.345 A  
HETATM    8  C   UNL     1     -10.677  13.987  68.319  1.00  0.00    -0.262 C  
HETATM    9  C   UNL     1     -10.679  12.483  67.881  1.00  0.00    -0.217 C  
HETATM   10  C   UNL     1     -12.955  13.746  71.445  1.00  0.00    -0.433 A  
HETATM   11  C   UNL     1     -11.269  14.931  67.189  1.00  0.00    -0.343 C  
HETATM   12  O   UNL     1     -12.678  14.688  67.055  1.00  0.00    -0.333 OA 
HETATM   13  C   UNL     1     -11.062  16.440  67.471  1.00  0.00    -0.109 C  
HETATM   14  C   UNL     1     -10.661  14.677  65.787  1.00  0.00    -0.330 C  
HETATM   15  C   UNL     1      -9.175  15.023  65.717  1.00  0.00    -0.038 C  
HETATM   16  C   UNL     1      -8.918  16.474  66.113  1.00  0.00    -0.344 C  
HETATM   17  C   UNL     1      -9.587  16.854  67.433  1.00  0.00    -0.241 C  
HETATM   18  H   UNL     1     -13.033  15.253  66.379  1.00  0.00     0.000 HD 
BRANCH   9  19
HETATM   19  N   UNL     1     -10.021  11.535  68.809  1.00  0.00    -0.190 NA 
HETATM   20  C   UNL     1      -8.745  11.049  68.279  1.00  0.00    -0.144 C  
HETATM   21  C   UNL     1     -10.900  10.389  69.063  1.00  0.00    -0.234 C  
ENDBRANCH   9  19
ENDBRANCH   2   3
TORSDOF 2
ENDMDL
MODEL        9
REMARK 921   NORMALIZED FREE ENERGY PREDICTED BY IDOCK:   -5.40 KCAL/MOL
REMARK 922        TOTAL FREE ENERGY PREDICTED BY IDOCK:   -6.28 KCAL/MOL
REMARK 923 INTER-LIGAND FREE ENERGY PREDICTED BY IDOCK:   -6.04 KCAL/MOL
REMARK 924 INTRA-LIGAND FREE ENERGY PREDICTED BY IDOCK:   -0.24 KCAL/MOL
REMARK 927      BINDING AFFINITY PREDICTED BY RF-SCORE:    0.00 PKD
ROOT
HETATM    1  C   UNL     1      -7.012  19.844  65.822  1.00  0.00    -0.296 C  
HETATM    2  O   UNL     1      -8.314  20.036  66.363  1.00  0.00    -0.322 OA 
ENDROOT
BRANCH   2   3
HETATM    3  C   UNL     1      -8.985  18.913  66.759  1.00  0.00    -0.313 A  
HETATM    4  C   UNL     1     -10.139  18.884  67.533  1.00  0.00    -0.424 A  
HETATM    5  C   UNL     1     -10.746  17.665  67.854  1.00  0.00    -0.341 A  
HETATM    6  C   UNL     1     -10.200  16.437  67.439  1.00  0.00    -0.281 A  
HETATM    7  C   UNL     1      -9.035  16.481  66.664  1.00  0.00    -0.285 A  
HETATM    8  C   UNL     1     -10.898  15.124  67.847  1.00  0.00    -0.291 C  
HETATM    9  C   UNL     1     -10.807  14.004  66.756  1.00  0.00    -0.294 C  
HETATM   10  C   UNL     1      -8.441  17.704  66.321  1.00  0.00    -0.237 A  
HETATM   11  C   UNL     1     -10.440  14.597  69.272  1.00  0.00    -0.209 C  
HETATM   12  O   UNL     1      -9.027  14.346  69.257  1.00  0.00    -0.387 OA 
HETATM   13  C   UNL     1     -10.744  15.585  70.426  1.00  0.00    -0.342 C  
HETATM   14  C   UNL     1     -11.103  13.257  69.681  1.00  0.00    -0.001 C  
HETATM   15  C   UNL     1     -12.613  13.382  69.878  1.00  0.00    -0.034 C  
HETATM   16  C   UNL     1     -12.955  14.443  70.921  1.00  0.00    -0.413 C  
HETATM   17  C   UNL     1     -12.246  15.771  70.668  1.00  0.00    -0.422 C  
HETATM   18  H   UNL     1      -8.752  14.030  70.109  1.00  0.00     0.000 HD 
BRANCH   9  19
HETATM   19  N   UNL     1     -11.341  14.354  65.420  1.00  0.00    -0.328 NA 
HETATM   20  C   UNL     1     -12.785  14.121  65.330  1.00  0.00    -0.431 C  
HETATM   21  C   UNL     1     -10.665  13.563  64.386  1.00  0.00    -0.388 C  
ENDBRANCH   9  19
ENDBRANCH   2   3
TORSDOF 2
ENDMDL
MODEL       10
REMARK 921   NORMALIZED FREE ENERGY PREDICTED BY IDOCK:   -5.39 KCAL/MOL
REMARK 922        TOTAL FREE ENERGY PREDICTED BY IDOCK:   -6.26 KCAL/MOL
REMARK 923 INTER-LIGAND FREE ENERGY PREDICTED BY IDOCK:   -6.17 KCAL/MOL
REMARK 924 INTRA-LIGAND FREE ENERGY PREDICTED BY IDOCK:   -0.09 KCAL/MOL
REMARK 927      BINDING AFFINITY PREDICTED BY RF-SCORE:    0.00 PKD
ROOT
HETATM    1  C   UNL     1     -12.494  11.961  63.487  1.00  0.00    -0.492 C  
HETATM    2  O   UNL     1     -12.460  13.378  63.366  1.00  0.00    -0.753 OA 
ENDROOT
BRANCH   2   3
HETATM    3  C   UNL     1     -11.821  14.062  64.363  1.00  0.00    -0.431 A  
HETATM    4  C   UNL     1     -11.557  15.426  64.374  1.00  0.00    -0.265 A  
HETATM    5  C   UNL     1     -10.912  16.014  65.467  1.00  0.00    -0.215 A  
HETATM    6  C   UNL     1     -10.482  15.252  66.568  1.00  0.00    -0.299 A  
HETATM    7  C   UNL     1     -10.750  13.877  66.541  1.00  0.00    -0.277 A  
HETATM    8  C   UNL     1      -9.751  15.950  67.732  1.00  0.00    -0.220 C  
HETATM    9  C   UNL     1     -10.073  15.329  69.134  1.00  0.00    -0.240 C  
HETATM   10  C   UNL     1     -11.419  13.293  65.456  1.00  0.00    -0.335 A  
HETATM   11  C   UNL     1      -8.188  16.082  67.491  1.00  0.00    -0.152 C  
HETATM   12  O   UNL     1      -7.615  14.774  67.347  1.00  0.00    -0.183 OA 
HETATM   13  C   UNL     1      -7.822  16.912  66.235  1.00  0.00    -0.346 C  
HETATM   14  C   UNL     1      -7.432  16.748  68.669  1.00  0.00    -0.219 C  
HETATM   15  C   UNL     1      -7.829  18.209  68.874  1.00  0.00    -0.204 C  
HETATM   16  C   UNL     1      -7.600  19.033  67.610  1.00  0.00    -0.261 C  
HETATM   17  C   UNL     1      -8.209  18.389  66.366  1.00  0.00    -0.280 C  
HETATM   18  H   UNL     1      -6.680  14.852  67.202  1.00  0.00     0.000 HD 
BRANCH   9  19
HETATM   19  N   UNL     1     -11.504  15.289  69.513  1.00  0.00    -0.282 NA 
HETATM   20  C   UNL     1     -11.767  16.058  70.732  1.00  0.00    -0.378 C  
HETATM   21  C   UNL     1     -11.929  13.901  69.722  1.00  0.00    -0.338 C  
ENDBRANCH   9  19
ENDBRANCH   2   3
TORSDOF 2
ENDMDL
MODEL       11
REMARK 921   NORMALIZED FREE ENERGY PREDICTED BY IDOCK:   -5.34 KCAL/MOL
REMARK 922        TOTAL FREE ENERGY PREDICTED BY IDOCK:   -6.20 KCAL/MOL
REMARK 923 INTER-LIGAND FREE ENERGY PREDICTED BY IDOCK:   -5.98 KCAL/MOL
REMARK 924 INTRA-LIGAND FREE ENERGY PREDICTED BY IDOCK:   -0.22 KCAL/MOL
REMARK 927      BINDING AFFINITY PREDICTED BY RF-SCORE:    0.00 PKD
ROOT
HETATM    1  C   UNL     1     -12.866  13.374  71.510  1.00  0.00    -0.337 C  
HETATM    2  O   UNL     1     -12.414  13.281  70.164  1.00  0.00    -0.243 OA 
ENDROOT
BRANCH   2   3
HETATM    3  C   UNL     1     -11.587  14.277  69.725  1.00  0.00    -0.293 A  
HETATM    4  C   UNL     1     -11.749  15.635  69.966  1.00  0.00    -0.369 A  
HETATM    5  C   UNL     1     -10.818  16.558  69.478  1.00  0.00    -0.315 A  
HETATM    6  C   UNL     1      -9.713  16.154  68.707  1.00  0.00    -0.233 A  
HETATM    7  C   UNL     1      -9.564  14.782  68.468  1.00  0.00    -0.218 A  
HETATM    8  C   UNL     1      -8.735  17.219  68.173  1.00  0.00    -0.243 C  
HETATM    9  C   UNL     1      -7.246  16.731  68.125  1.00  0.00    -0.164 C  
HETATM   10  C   UNL     1     -10.485  13.856  68.979  1.00  0.00    -0.147 A  
HETATM   11  C   UNL     1      -9.195  17.843  66.788  1.00  0.00    -0.271 C  
HETATM   12  O   UNL     1      -9.281  16.804  65.802  1.00  0.00    -0.520 OA 
HETATM   13  C   UNL     1     -10.566  18.561  66.858  1.00  0.00    -0.406 C  
HETATM   14  C   UNL     1      -8.202  18.888  66.218  1.00  0.00    -0.283 C  
HETATM   15  C   UNL     1      -8.095  20.138  67.090  1.00  0.00    -0.370 C  
HETATM   16  C   UNL     1      -9.455  20.802  67.286  1.00  0.00    -0.467 C  
HETATM   17  C   UNL     1     -10.534  19.818  67.733  1.00  0.00    -0.555 C  
HETATM   18  H   UNL     1      -9.557  17.178  64.973  1.00  0.00     0.000 HD 
BRANCH   9  19
HETATM   19  N   UNL     1      -6.676  16.257  69.406  1.00  0.00    -0.203 NA 
HETATM   20  C   UNL     1      -5.773  17.245  70.002  1.00  0.00    -0.244 C  
HETATM   21  C   UNL     1      -5.942  15.004  69.197  1.00  0.00    -0.098 C  
ENDBRANCH   9  19
ENDBRANCH   2   3
TORSDOF 2
ENDMDL
MODEL       12
REMARK 921   NORMALIZED FREE ENERGY PREDICTED BY IDOCK:   -5.33 KCAL/MOL
REMARK 922        TOTAL FREE ENERGY PREDICTED BY IDOCK:   -6.19 KCAL/MOL
REMARK 923 INTER-LIGAND FREE ENERGY PREDICTED BY IDOCK:   -5.96 KCAL/MOL
REMARK 924 INTRA-LIGAND FREE ENERGY PREDICTED BY IDOCK:   -0.23 KCAL/MOL
REMARK 927      BINDING AFFINITY PREDICTED BY RF-SCORE:    0.00 PKD
ROOT
HETATM    1  C   UNL     1     -13.476  12.951  72.206  1.00  0.00    -0.531 C  
HETATM    2  O   UNL     1     -13.726  14.162  71.503  1.00  0.00    -0.353 OA 
ENDROOT
BRANCH   2   3
HETATM    3  C   UNL     1     -12.677  14.692  70.804  1.00  0.00    -0.359 A  
HETATM    4  C   UNL     1     -12.027  15.886  71.091  1.00  0.00    -0.472 A  
HETATM    5  C   UNL     1     -10.947  16.311  70.309  1.00  0.00    -0.314 A  
HETATM    6  C   UNL     1     -10.505  15.572  69.198  1.00  0.00    -0.232 A  
HETATM    7  C   UNL     1     -11.171  14.372  68.918  1.00  0.00    -0.284 A  
HETATM    8  C   UNL     1      -9.327  16.103  68.357  1.00  0.00    -0.206 C  
HETATM    9  C   UNL     1      -8.405  14.972  67.787  1.00  0.00    -0.150 C  
HETATM   10  C   UNL     1     -12.237  13.935  69.717  1.00  0.00    -0.388 A  
HETATM   11  C   UNL     1      -9.784  17.117  67.225  1.00  0.00    -0.254 C  
HETATM   12  O   UNL     1     -10.688  16.455  66.328  1.00  0.00    -0.266 OA 
HETATM   13  C   UNL     1     -10.486  18.384  67.774  1.00  0.00    -0.433 C  
HETATM   14  C   UNL     1      -8.616  17.632  66.345  1.00  0.00    -0.269 C  
HETATM   15  C   UNL     1      -7.620  18.485  67.127  1.00  0.00    -0.230 C  
HETATM   16  C   UNL     1      -8.303  19.678  67.791  1.00  0.00    -0.346 C  
HETATM   17  C   UNL     1      -9.545  19.280  68.585  1.00  0.00    -0.479 C  
HETATM   18  H   UNL     1     -10.962  17.062  65.650  1.00  0.00     0.000 HD 
BRANCH   9  19
HETATM   19  N   UNL     1      -7.813  14.052  68.785  1.00  0.00    -0.126 NA 
HETATM   20  C   UNL     1      -6.762  14.703  69.572  1.00  0.00    -0.158 C  
HETATM   21  C   UNL     1      -7.249  12.877  68.113  1.00  0.00    -0.114 C  
ENDBRANCH   9  19
ENDBRANCH   2   3
TORSDOF 2
ENDMDL
MODEL       13
REMARK 921   NORMALIZED FREE ENERGY PREDICTED BY IDOCK:   -5.30 KCAL/MOL
REMARK 922        TOTAL FREE ENERGY PREDICTED BY IDOCK:   -6.16 KCAL/MOL
REMARK 923 INTER-LIGAND FREE ENERGY PREDICTED BY IDOCK:   -6.07 KCAL/MOL
REMARK 924 INTRA-LIGAND FREE ENERGY PREDICTED BY IDOCK:   -0.09 KCAL/MOL
REMARK 927      BINDING AFFINITY PREDICTED BY RF-SCORE:    0.00 PKD
ROOT
HETATM    1  C   UNL     1      -6.815  19.643  67.919  1.00  0.00    -0.244 C  
HETATM    2  O   UNL     1      -8.203  19.645  68.230  1.00  0.00    -0.324 OA 
ENDROOT
BRANCH   2   3
HETATM    3  C   UNL     1      -8.787  18.425  68.430  1.00  0.00    -0.320 A  
HETATM    4  C   UNL     1      -8.129  17.257  68.792  1.00  0.00    -0.242 A  
HETATM    5  C   UNL     1      -8.845  16.071  68.989  1.00  0.00    -0.244 A  
HETATM    6  C   UNL     1     -10.237  16.010  68.798  1.00  0.00    -0.225 A  
HETATM    7  C   UNL     1     -10.888  17.194  68.428  1.00  0.00    -0.309 A  
HETATM    8  C   UNL     1     -10.970  14.669  69.002  1.00  0.00    -0.269 C  
HETATM    9  C   UNL     1     -12.408  14.829  69.602  1.00  0.00    -0.215 C  
HETATM   10  C   UNL     1     -10.171  18.388  68.256  1.00  0.00    -0.412 A  
HETATM   11  C   UNL     1     -10.972  13.760  67.701  1.00  0.00    -0.264 C  
HETATM   12  O   UNL     1     -11.636  14.455  66.635  1.00  0.00    -0.357 OA 
HETATM   13  C   UNL     1      -9.553  13.370  67.216  1.00  0.00    -0.234 C  
HETATM   14  C   UNL     1     -11.738  12.425  67.878  1.00  0.00    -0.421 C  
HETATM   15  C   UNL     1     -11.075  11.495  68.893  1.00  0.00    -0.288 C  
HETATM   16  C   UNL     1      -9.629  11.190  68.512  1.00  0.00    -0.193 C  
HETATM   17  C   UNL     1      -8.823  12.448  68.198  1.00  0.00    -0.191 C  
HETATM   18  H   UNL     1     -11.637  13.912  65.856  1.00  0.00     0.000 HD 
BRANCH   9  19
HETATM   19  N   UNL     1     -12.497  15.546  70.895  1.00  0.00    -0.411 NA 
HETATM   20  C   UNL     1     -11.452  15.119  71.829  1.00  0.00    -0.380 C  
HETATM   21  C   UNL     1     -13.810  15.314  71.508  1.00  0.00    -0.525 C  
ENDBRANCH   9  19
ENDBRANCH   2   3
TORSDOF 2
ENDMDL
MODEL       14
REMARK 921   NORMALIZED FREE ENERGY PREDICTED BY IDOCK:   -5.30 KCAL/MOL
REMARK 922        TOTAL FREE ENERGY PREDICTED BY IDOCK:   -6.16 KCAL/MOL
REMARK 923 INTER-LIGAND FREE ENERGY PREDICTED BY IDOCK:   -5.95 KCAL/MOL
REMARK 924 INTRA-LIGAND FREE ENERGY PREDICTED BY IDOCK:   -0.21 KCAL/MOL
REMARK 927      BINDING AFFINITY PREDICTED BY RF-SCORE:    0.00 PKD
ROOT
HETATM    1  C   UNL     1     -10.963  14.828  65.095  1.00  0.00    -0.393 C  
HETATM    2  O   UNL     1     -10.054  13.734  65.065  1.00  0.00    -0.343 OA 
ENDROOT
BRANCH   2   3
HETATM    3  C   UNL     1     -10.299  12.709  65.936  1.00  0.00    -0.276 A  
HETATM    4  C   UNL     1     -11.499  12.470  66.595  1.00  0.00    -0.417 A  
HETATM    5  C   UNL     1     -11.632  11.370  67.449  1.00  0.00    -0.266 A  
HETATM    6  C   UNL     1     -10.560  10.494  67.695  1.00  0.00    -0.295 A  
HETATM    7  C   UNL     1      -9.355  10.749  67.028  1.00  0.00    -0.174 A  
HETATM    8  C   UNL     1     -10.757   9.314  68.668  1.00  0.00    -0.180 C  
HETATM    9  C   UNL     1      -9.962   8.027  68.257  1.00  0.00    -0.185 C  
HETATM   10  C   UNL     1      -9.231  11.838  66.153  1.00  0.00    -0.218 A  
HETATM   11  C   UNL     1     -10.495   9.710  70.182  1.00  0.00    -0.273 C  
HETATM   12  O   UNL     1      -9.142  10.167  70.329  1.00  0.00    -0.356 OA 
HETATM   13  C   UNL     1     -11.441  10.820  70.705  1.00  0.00    -0.314 C  
HETATM   14  C   UNL     1     -10.651   8.526  71.169  1.00  0.00    -0.277 C  
HETATM   15  C   UNL     1     -12.084   8.001  71.240  1.00  0.00    -0.314 C  
HETATM   16  C   UNL     1     -13.065   9.103  71.629  1.00  0.00    -0.431 C  
HETATM   17  C   UNL     1     -12.902  10.365  70.785  1.00  0.00    -0.450 C  
HETATM   18  H   UNL     1      -8.985  10.404  71.235  1.00  0.00     0.000 HD 
BRANCH   9  19
HETATM   19  N   UNL     1     -10.243   7.495  66.905  1.00  0.00    -0.278 NA 
HETATM   20  C   UNL     1     -11.017   6.251  66.957  1.00  0.00    -0.364 C  
HETATM   21  C   UNL     1      -8.985   7.245  66.193  1.00  0.00    -0.149 C  
ENDBRANCH   9  19
ENDBRANCH   2   3
TORSDOF 2
ENDMDL
MODEL       15
REMARK 921   NORMALIZED FREE ENERGY PREDICTED BY IDOCK:   -5.27 KCAL/MOL
REMARK 922        TOTAL FREE ENERGY PREDICTED BY IDOCK:   -6.13 KCAL/MOL
REMARK 923 INTER-LIGAND FREE ENERGY PREDICTED BY IDOCK:   -5.99 KCAL/MOL
REMARK 924 INTRA-LIGAND FREE ENERGY PREDICTED BY IDOCK:   -0.15 KCAL/MOL
REMARK 927      BINDING AFFINITY PREDICTED BY RF-SCORE:    0.00 PKD
ROOT
HETATM    1  C   UNL     1      -8.753  18.896  66.225  1.00  0.00    -0.252 C  
HETATM    2  O   UNL     1      -8.445  17.561  65.841  1.00  0.00    -0.533 OA 
ENDROOT
BRANCH   2   3
HETATM    3  C   UNL     1      -8.992  16.563  66.599  1.00  0.00    -0.255 A  
HETATM    4  C   UNL     1      -8.285  15.613  67.325  1.00  0.00    -0.218 A  
HETATM    5  C   UNL     1      -8.963  14.652  68.084  1.00  0.00    -0.179 A  
HETATM    6  C   UNL     1     -10.367  14.593  68.113  1.00  0.00    -0.230 A  
HETATM    7  C   UNL     1     -11.067  15.554  67.373  1.00  0.00    -0.285 A  
HETATM    8  C   UNL     1     -11.060  13.494  68.945  1.00  0.00    -0.305 C  
HETATM    9  C   UNL     1     -12.402  13.962  69.603  1.00  0.00    -0.249 C  
HETATM   10  C   UNL     1     -10.386  16.532  66.634  1.00  0.00    -0.298 A  
HETATM   11  C   UNL     1     -11.237  12.134  68.148  1.00  0.00    -0.267 C  
HETATM   12  O   UNL     1     -12.044  12.365  66.983  1.00  0.00    -0.549 OA 
HETATM   13  C   UNL     1      -9.897  11.504  67.691  1.00  0.00    -0.192 C  
HETATM   14  C   UNL     1     -11.966  11.031  68.956  1.00  0.00    -0.364 C  
HETATM   15  C   UNL     1     -11.166  10.564  70.172  1.00  0.00    -0.389 C  
HETATM   16  C   UNL     1      -9.785  10.053  69.770  1.00  0.00    -0.259 C  
HETATM   17  C   UNL     1      -9.035  11.027  68.865  1.00  0.00    -0.123 C  
HETATM   18  H   UNL     1     -12.151  11.551  66.506  1.00  0.00     0.000 HD 
BRANCH   9  19
HETATM   19  N   UNL     1     -12.315  15.149  70.483  1.00  0.00    -0.332 NA 
HETATM   20  C   UNL     1     -11.219  15.034  71.448  1.00  0.00    -0.202 C  
HETATM   21  C   UNL     1     -13.576  15.327  71.212  1.00  0.00    -0.507 C  
ENDBRANCH   9  19
ENDBRANCH   2   3
TORSDOF 2
ENDMDL
MODEL       16
REMARK 921   NORMALIZED FREE ENERGY PREDICTED BY IDOCK:   -5.26 KCAL/MOL
REMARK 922        TOTAL FREE ENERGY PREDICTED BY IDOCK:   -6.12 KCAL/MOL
REMARK 923 INTER-LIGAND FREE ENERGY PREDICTED BY IDOCK:   -5.88 KCAL/MOL
REMARK 924 INTRA-LIGAND FREE ENERGY PREDICTED BY IDOCK:   -0.25 KCAL/MOL
REMARK 927      BINDING AFFINITY PREDICTED BY RF-SCORE:    0.00 PKD
ROOT
HETATM    1  C   UNL     1     -13.811   8.896  71.936  1.00  0.00    -0.440 C  
HETATM    2  O   UNL     1     -13.408  10.238  72.185  1.00  0.00    -0.443 OA 
ENDROOT
BRANCH   2   3
HETATM    3  C   UNL     1     -12.666  10.846  71.211  1.00  0.00    -0.437 A  
HETATM    4  C   UNL     1     -12.471  12.214  71.071  1.00  0.00    -0.369 A  
HETATM    5  C   UNL     1     -11.667  12.714  70.040  1.00  0.00    -0.289 A  
HETATM    6  C   UNL     1     -11.061  11.863  69.099  1.00  0.00    -0.285 A  
HETATM    7  C   UNL     1     -11.270  10.486  69.250  1.00  0.00    -0.320 A  
HETATM    8  C   UNL     1     -10.209  12.472  67.968  1.00  0.00    -0.225 C  
HETATM    9  C   UNL     1      -8.981  11.586  67.565  1.00  0.00    -0.159 C  
HETATM   10  C   UNL     1     -12.055   9.985  70.298  1.00  0.00    -0.226 A  
HETATM   11  C   UNL     1     -11.070  12.896  66.704  1.00  0.00    -0.284 C  
HETATM   12  O   UNL     1     -11.733  11.740  66.169  1.00  0.00    -0.462 OA 
HETATM   13  C   UNL     1     -12.144  13.968  67.017  1.00  0.00    -0.455 C  
HETATM   14  C   UNL     1     -10.224  13.475  65.543  1.00  0.00    -0.308 C  
HETATM   15  C   UNL     1      -9.551  14.798  65.905  1.00  0.00    -0.320 C  
HETATM   16  C   UNL     1     -10.573  15.844  66.342  1.00  0.00    -0.298 C  
HETATM   17  C   UNL     1     -11.536  15.320  67.405  1.00  0.00    -0.246 C  
HETATM   18  H   UNL     1     -12.248  11.994  65.413  1.00  0.00     0.000 HD 
BRANCH   9  19
HETATM   19  N   UNL     1      -8.036  11.251  68.655  1.00  0.00    -0.143 NA 
HETATM   20  C   UNL     1      -6.876  12.145  68.666  1.00  0.00    -0.089 C  
HETATM   21  C   UNL     1      -7.572   9.867  68.508  1.00  0.00    -0.080 C  
ENDBRANCH   9  19
ENDBRANCH   2   3
TORSDOF 2
ENDMDL
MODEL       17
REMARK 921   NORMALIZED FREE ENERGY PREDICTED BY IDOCK:   -5.18 KCAL/MOL
REMARK 922        TOTAL FREE ENERGY PREDICTED BY IDOCK:   -6.03 KCAL/MOL
REMARK 923 INTER-LIGAND FREE ENERGY PREDICTED BY IDOCK:   -5.82 KCAL/MOL
REMARK 924 INTRA-LIGAND FREE ENERGY PREDICTED BY IDOCK:   -0.21 KCAL/MOL
REMARK 927      BINDING AFFINITY PREDICTED BY RF-SCORE:    0.00 PKD
ROOT
HETATM    1  C   UNL     1     -13.335   9.186  71.695  1.00  0.00    -0.383 C  
HETATM    2  O   UNL     1     -12.044   9.774  71.811  1.00  0.00    -0.390 OA 
ENDROOT
BRANCH   2   3
HETATM    3  C   UNL     1     -11.613  10.518  70.748  1.00  0.00    -0.338 A  
HETATM    4  C   UNL     1     -12.225  11.663  70.253  1.00  0.00    -0.401 A  
HETATM    5  C   UNL     1     -11.671  12.351  69.168  1.00  0.00    -0.376 A  
HETATM    6  C   UNL     1     -10.506  11.898  68.525  1.00  0.00    -0.240 A  
HETATM    7  C   UNL     1      -9.902  10.740  69.030  1.00  0.00    -0.208 A  
HETATM    8  C   UNL     1      -9.957  12.681  67.316  1.00  0.00    -0.212 C  
HETATM    9  C   UNL     1      -8.393  12.681  67.230  1.00  0.00    -0.189 C  
HETATM   10  C   UNL     1     -10.444  10.066  70.134  1.00  0.00    -0.338 A  
HETATM   11  C   UNL     1     -10.622  12.247  65.942  1.00  0.00    -0.256 C  
HETATM   12  O   UNL     1     -10.363  10.855  65.706  1.00  0.00    -0.247 OA 
HETATM   13  C   UNL     1     -12.155  12.469  65.899  1.00  0.00    -0.420 C  
HETATM   14  C   UNL     1     -10.054  12.998  64.712  1.00  0.00    -0.239 C  
HETATM   15  C   UNL     1     -10.367  14.493  64.737  1.00  0.00    -0.319 C  
HETATM   16  C   UNL     1     -11.869  14.749  64.823  1.00  0.00    -0.425 C  
HETATM   17  C   UNL     1     -12.542  13.951  65.938  1.00  0.00    -0.498 C  
HETATM   18  H   UNL     1     -10.762  10.594  64.884  1.00  0.00     0.000 HD 
BRANCH   9  19
HETATM   19  N   UNL     1      -7.677  13.203  68.417  1.00  0.00    -0.135 NA 
HETATM   20  C   UNL     1      -7.092  14.522  68.165  1.00  0.00    -0.122 C  
HETATM   21  C   UNL     1      -6.611  12.275  68.808  1.00  0.00    -0.084 C  
ENDBRANCH   9  19
ENDBRANCH   2   3
TORSDOF 2
ENDMDL
MODEL       18
REMARK 921   NORMALIZED FREE ENERGY PREDICTED BY IDOCK:   -5.15 KCAL/MOL
REMARK 922        TOTAL FREE ENERGY PREDICTED BY IDOCK:   -5.99 KCAL/MOL
REMARK 923 INTER-LIGAND FREE ENERGY PREDICTED BY IDOCK:   -5.84 KCAL/MOL
REMARK 924 INTRA-LIGAND FREE ENERGY PREDICTED BY IDOCK:   -0.15 KCAL/MOL
REMARK 927      BINDING AFFINITY PREDICTED BY RF-SCORE:    0.00 PKD
ROOT
HETATM    1  C   UNL     1     -12.232  12.035  63.767  1.00  0.00    -0.498 C  
HETATM    2  O   UNL     1     -12.515  12.294  65.137  1.00  0.00    -0.563 OA 
ENDROOT
BRANCH   2   3
HETATM    3  C   UNL     1     -11.723  13.215  65.763  1.00  0.00    -0.374 A  
HETATM    4  C   UNL     1     -12.158  14.205  66.637  1.00  0.00    -0.480 A  
HETATM    5  C   UNL     1     -11.241  15.077  67.233  1.00  0.00    -0.339 A  
HETATM    6  C   UNL     1      -9.865  15.009  66.949  1.00  0.00    -0.244 A  
HETATM    7  C   UNL     1      -9.441  14.010  66.063  1.00  0.00    -0.164 A  
HETATM    8  C   UNL     1      -8.905  16.015  67.614  1.00  0.00    -0.190 C  
HETATM    9  C   UNL     1      -7.501  15.408  67.952  1.00  0.00    -0.140 C  
HETATM   10  C   UNL     1     -10.358  13.120  65.486  1.00  0.00    -0.299 A  
HETATM   11  C   UNL     1      -8.781  17.377  66.808  1.00  0.00    -0.255 C  
HETATM   12  O   UNL     1      -8.277  17.107  65.492  1.00  0.00    -0.240 OA 
HETATM   13  C   UNL     1     -10.122  18.138  66.668  1.00  0.00    -0.376 C  
HETATM   14  C   UNL     1      -7.790  18.385  67.443  1.00  0.00    -0.237 C  
HETATM   15  C   UNL     1      -8.252  18.886  68.810  1.00  0.00    -0.347 C  
HETATM   16  C   UNL     1      -9.633  19.531  68.732  1.00  0.00    -0.479 C  
HETATM   17  C   UNL     1     -10.654  18.656  68.008  1.00  0.00    -0.350 C  
HETATM   18  H   UNL     1      -8.202  17.922  65.009  1.00  0.00     0.000 HD 
BRANCH   9  19
HETATM   19  N   UNL     1      -7.503  14.209  68.820  1.00  0.00    -0.127 NA 
HETATM   20  C   UNL     1      -6.866  14.469  70.113  1.00  0.00    -0.026 C  
HETATM   21  C   UNL     1      -6.800  13.106  68.155  1.00  0.00    -0.111 C  
ENDBRANCH   9  19
ENDBRANCH   2   3
TORSDOF 2
ENDMDL
MODEL       19
REMARK 921   NORMALIZED FREE ENERGY PREDICTED BY IDOCK:   -5.14 KCAL/MOL
REMARK 922        TOTAL FREE ENERGY PREDICTED BY IDOCK:   -5.99 KCAL/MOL
REMARK 923 INTER-LIGAND FREE ENERGY PREDICTED BY IDOCK:   -5.77 KCAL/MOL
REMARK 924 INTRA-LIGAND FREE ENERGY PREDICTED BY IDOCK:   -0.21 KCAL/MOL
REMARK 927      BINDING AFFINITY PREDICTED BY RF-SCORE:    0.00 PKD
ROOT
HETATM    1  C   UNL     1     -12.155  16.109  72.350  1.00  0.00    -0.540 C  
HETATM    2  O   UNL     1     -12.782  16.081  71.074  1.00  0.00    -0.375 OA 
ENDROOT
BRANCH   2   3
HETATM    3  C   UNL     1     -12.179  15.319  70.111  1.00  0.00    -0.364 A  
HETATM    4  C   UNL     1     -12.004  15.678  68.780  1.00  0.00    -0.247 A  
HETATM    5  C   UNL     1     -11.348  14.816  67.895  1.00  0.00    -0.331 A  
HETATM    6  C   UNL     1     -10.878  13.556  68.304  1.00  0.00    -0.277 A  
HETATM    7  C   UNL     1     -11.065  13.205  69.647  1.00  0.00     0.014 A  
HETATM    8  C   UNL     1     -10.188  12.636  67.277  1.00  0.00    -0.227 C  
HETATM    9  C   UNL     1      -9.028  11.777  67.887  1.00  0.00    -0.180 C  
HETATM   10  C   UNL     1     -11.700  14.080  70.540  1.00  0.00    -0.262 A  
HETATM   11  C   UNL     1     -11.213  11.744  66.458  1.00  0.00    -0.321 C  
HETATM   12  O   UNL     1     -11.944  10.904  67.364  1.00  0.00    -0.420 OA 
HETATM   13  C   UNL     1     -12.233  12.569  65.634  1.00  0.00    -0.403 C  
HETATM   14  C   UNL     1     -10.534  10.786  65.448  1.00  0.00    -0.272 C  
HETATM   15  C   UNL     1      -9.816  11.528  64.322  1.00  0.00    -0.279 C  
HETATM   16  C   UNL     1     -10.767  12.451  63.565  1.00  0.00    -0.473 C  
HETATM   17  C   UNL     1     -11.576  13.355  64.493  1.00  0.00    -0.405 C  
HETATM   18  H   UNL     1     -12.558  10.370  66.875  1.00  0.00     0.000 HD 
BRANCH   9  19
HETATM   19  N   UNL     1      -7.943  12.532  68.555  1.00  0.00    -0.128 NA 
HETATM   20  C   UNL     1      -7.313  13.498  67.651  1.00  0.00    -0.174 C  
HETATM   21  C   UNL     1      -6.921  11.606  69.053  1.00  0.00    -0.111 C  
ENDBRANCH   9  19
ENDBRANCH   2   3
TORSDOF 2
ENDMDL
MODEL       20
REMARK 921   NORMALIZED FREE ENERGY PREDICTED BY IDOCK:   -5.06 KCAL/MOL
REMARK 922        TOTAL FREE ENERGY PREDICTED BY IDOCK:   -5.90 KCAL/MOL
REMARK 923 INTER-LIGAND FREE ENERGY PREDICTED BY IDOCK:   -5.66 KCAL/MOL
REMARK 924 INTRA-LIGAND FREE ENERGY PREDICTED BY IDOCK:   -0.23 KCAL/MOL
REMARK 927      BINDING AFFINITY PREDICTED BY RF-SCORE:    0.00 PKD
ROOT
HETATM    1  C   UNL     1     -11.070  15.021  66.865  1.00  0.00    -0.331 C  
HETATM    2  O   UNL     1     -10.058  14.316  67.574  1.00  0.00    -0.233 OA 
ENDROOT
BRANCH   2   3
HETATM    3  C   UNL     1     -10.396  13.083  68.060  1.00  0.00    -0.234 A  
HETATM    4  C   UNL     1     -11.684  12.643  68.338  1.00  0.00    -0.377 A  
HETATM    5  C   UNL     1     -11.903  11.345  68.813  1.00  0.00    -0.388 A  
HETATM    6  C   UNL     1     -10.838  10.459  69.054  1.00  0.00    -0.273 A  
HETATM    7  C   UNL     1      -9.544  10.917  68.773  1.00  0.00    -0.195 A  
HETATM    8  C   UNL     1     -11.137   9.051  69.604  1.00  0.00    -0.080 C  
HETATM    9  C   UNL     1     -10.167   7.948  69.058  1.00  0.00    -0.209 C  
HETATM   10  C   UNL     1      -9.329  12.210  68.274  1.00  0.00    -0.198 A  
HETATM   11  C   UNL     1     -11.239   9.013  71.188  1.00  0.00    -0.305 C  
HETATM   12  O   UNL     1      -9.992   9.441  71.756  1.00  0.00    -0.180 OA 
HETATM   13  C   UNL     1     -12.366   9.911  71.757  1.00  0.00    -0.456 C  
HETATM   14  C   UNL     1     -11.501   7.597  71.759  1.00  0.00    -0.302 C  
HETATM   15  C   UNL     1     -12.867   7.042  71.358  1.00  0.00    -0.407 C  
HETATM   16  C   UNL     1     -13.998   7.969  71.793  1.00  0.00    -0.482 C  
HETATM   17  C   UNL     1     -13.766   9.420  71.377  1.00  0.00    -0.309 C  
HETATM   18  H   UNL     1     -10.053   9.419  72.704  1.00  0.00     0.000 HD 
BRANCH   9  19
HETATM   19  N   UNL     1     -10.107   7.808  67.585  1.00  0.00    -0.181 NA 
HETATM   20  C   UNL     1     -10.891   6.665  67.112  1.00  0.00    -0.401 C  
HETATM   21  C   UNL     1      -8.714   7.644  67.153  1.00  0.00    -0.125 C  
ENDBRANCH   9  19
ENDBRANCH   2   3
TORSDOF 2
ENDMDL
MODEL       21
REMARK 921   NORMALIZED FREE ENERGY PREDICTED BY IDOCK:   -5.06 KCAL/MOL
REMARK 922        TOTAL FREE ENERGY PREDICTED BY IDOCK:   -5.89 KCAL/MOL
REMARK 923 INTER-LIGAND FREE ENERGY PREDICTED BY IDOCK:   -5.73 KCAL/MOL
REMARK 924 INTRA-LIGAND FREE ENERGY PREDICTED BY IDOCK:   -0.17 KCAL/MOL
REMARK 927      BINDING AFFINITY PREDICTED BY RF-SCORE:    0.00 PKD
ROOT
HETATM    1  C   UNL     1     -12.942  12.901  71.707  1.00  0.00    -0.315 C  
HETATM    2  O   UNL     1     -13.620  11.696  72.042  1.00  0.00    -0.309 OA 
ENDROOT
BRANCH   2   3
HETATM    3  C   UNL     1     -12.957  10.528  71.783  1.00  0.00    -0.476 A  
HETATM    4  C   UNL     1     -13.348   9.261  72.198  1.00  0.00    -0.537 A  
HETATM    5  C   UNL     1     -12.594   8.136  71.848  1.00  0.00    -0.368 A  
HETATM    6  C   UNL     1     -11.408   8.247  71.101  1.00  0.00    -0.298 A  
HETATM    7  C   UNL     1     -11.023   9.531  70.692  1.00  0.00    -0.370 A  
HETATM    8  C   UNL     1     -10.602   6.975  70.769  1.00  0.00    -0.240 C  
HETATM    9  C   UNL     1      -9.908   7.025  69.365  1.00  0.00    -0.160 C  
HETATM   10  C   UNL     1     -11.794  10.654  71.022  1.00  0.00    -0.396 A  
HETATM   11  C   UNL     1      -9.583   6.571  71.916  1.00  0.00    -0.150 C  
HETATM   12  O   UNL     1      -8.642   7.637  72.115  1.00  0.00    -0.110 OA 
HETATM   13  C   UNL     1     -10.266   6.268  73.273  1.00  0.00    -0.223 C  
HETATM   14  C   UNL     1      -8.738   5.317  71.581  1.00  0.00    -0.140 C  
HETATM   15  C   UNL     1      -9.582   4.048  71.470  1.00  0.00    -0.237 C  
HETATM   16  C   UNL     1     -10.371   3.787  72.751  1.00  0.00    -0.238 C  
HETATM   17  C   UNL     1     -11.145   5.014  73.228  1.00  0.00    -0.406 C  
HETATM   18  H   UNL     1      -8.032   7.395  72.801  1.00  0.00     0.000 HD 
BRANCH   9  19
HETATM   19  N   UNL     1     -10.801   7.258  68.207  1.00  0.00    -0.114 NA 
HETATM   20  C   UNL     1     -10.859   6.095  67.318  1.00  0.00    -0.352 C  
HETATM   21  C   UNL     1     -10.338   8.421  67.442  1.00  0.00    -0.285 C  
ENDBRANCH   9  19
ENDBRANCH   2   3
TORSDOF 2
ENDMDL
MODEL       22
REMARK 921   NORMALIZED FREE ENERGY PREDICTED BY IDOCK:   -5.03 KCAL/MOL
REMARK 922        TOTAL FREE ENERGY PREDICTED BY IDOCK:   -5.86 KCAL/MOL
REMARK 923 INTER-LIGAND FREE ENERGY PREDICTED BY IDOCK:   -5.64 KCAL/MOL
REMARK 924 INTRA-LIGAND FREE ENERGY PREDICTED BY IDOCK:   -0.23 KCAL/MOL
REMARK 927      BINDING AFFINITY PREDICTED BY RF-SCORE:    0.00 PKD
ROOT
HETATM    1  C   UNL     1     -12.748  12.161  63.496  1.00  0.00    -0.431 C  
HETATM    2  O   UNL     1     -13.046  12.644  64.801  1.00  0.00    -0.852 OA 
ENDROOT
BRANCH   2   3
HETATM    3  C   UNL     1     -12.053  13.332  65.441  1.00  0.00    -0.422 A  
HETATM    4  C   UNL     1     -10.695  13.255  65.157  1.00  0.00    -0.333 A  
HETATM    5  C   UNL     1      -9.776  14.029  65.873  1.00  0.00    -0.250 A  
HETATM    6  C   UNL     1     -10.183  14.880  66.915  1.00  0.00    -0.254 A  
HETATM    7  C   UNL     1     -11.554  14.945  67.195  1.00  0.00    -0.327 A  
HETATM    8  C   UNL     1      -9.122  15.689  67.688  1.00  0.00    -0.193 C  
HETATM    9  C   UNL     1      -9.622  17.104  68.140  1.00  0.00    -0.270 C  
HETATM   10  C   UNL     1     -12.477  14.187  66.459  1.00  0.00    -0.306 A  
HETATM   11  C   UNL     1      -8.482  14.878  68.893  1.00  0.00    -0.174 C  
HETATM   12  O   UNL     1      -9.512  14.518  69.826  1.00  0.00    -0.307 OA 
HETATM   13  C   UNL     1      -7.754  13.584  68.452  1.00  0.00    -0.135 C  
HETATM   14  C   UNL     1      -7.441  15.690  69.704  1.00  0.00    -0.134 C  
HETATM   15  C   UNL     1      -6.200  16.042  68.886  1.00  0.00    -0.126 C  
HETATM   16  C   UNL     1      -5.526  14.792  68.326  1.00  0.00    -0.117 C  
HETATM   17  C   UNL     1      -6.504  13.864  67.610  1.00  0.00    -0.161 C  
HETATM   18  H   UNL     1      -9.129  14.033  70.547  1.00  0.00     0.000 HD 
BRANCH   9  19
HETATM   19  N   UNL     1     -10.112  17.994  67.062  1.00  0.00    -0.329 NA 
HETATM   20  C   UNL     1      -9.035  18.395  66.154  1.00  0.00    -0.099 C  
HETATM   21  C   UNL     1     -10.720  19.196  67.642  1.00  0.00    -0.417 C  
ENDBRANCH   9  19
ENDBRANCH   2   3
TORSDOF 2
ENDMDL
MODEL       23
REMARK 921   NORMALIZED FREE ENERGY PREDICTED BY IDOCK:   -5.02 KCAL/MOL
REMARK 922        TOTAL FREE ENERGY PREDICTED BY IDOCK:   -5.85 KCAL/MOL
REMARK 923 INTER-LIGAND FREE ENERGY PREDICTED BY IDOCK:   -5.72 KCAL/MOL
REMARK 924 INTRA-LIGAND FREE ENERGY PREDICTED BY IDOCK:   -0.12 KCAL/MOL
REMARK 927      BINDING AFFINITY PREDICTED BY RF-SCORE:    0.00 PKD
ROOT
HETATM    1  C   UNL     1      -7.605  19.559  68.829  1.00  0.00    -0.351 C  
HETATM    2  O   UNL     1      -8.718  19.361  67.966  1.00  0.00    -0.303 OA 
ENDROOT
BRANCH   2   3
HETATM    3  C   UNL     1      -8.984  18.073  67.594  1.00  0.00    -0.251 A  
HETATM    4  C   UNL     1      -9.311  17.646  66.313  1.00  0.00    -0.217 A  
HETATM    5  C   UNL     1      -9.540  16.291  66.054  1.00  0.00    -0.371 A  
HETATM    6  C   UNL     1      -9.480  15.325  67.073  1.00  0.00    -0.235 A  
HETATM    7  C   UNL     1      -9.154  15.769  68.361  1.00  0.00    -0.188 A  
HETATM    8  C   UNL     1      -9.769  13.849  66.734  1.00  0.00    -0.282 C  
HETATM    9  C   UNL     1      -8.910  12.837  67.567  1.00  0.00    -0.187 C  
HETATM   10  C   UNL     1      -8.900  17.125  68.614  1.00  0.00    -0.266 A  
HETATM   11  C   UNL     1     -11.315  13.493  66.788  1.00  0.00    -0.328 C  
HETATM   12  O   UNL     1     -11.815  13.736  68.111  1.00  0.00    -0.343 OA 
HETATM   13  C   UNL     1     -12.173  14.308  65.788  1.00  0.00    -0.415 C  
HETATM   14  C   UNL     1     -11.620  12.004  66.487  1.00  0.00    -0.384 C  
HETATM   15  C   UNL     1     -11.270  11.608  65.053  1.00  0.00    -0.275 C  
HETATM   16  C   UNL     1     -12.004  12.479  64.037  1.00  0.00    -0.536 C  
HETATM   17  C   UNL     1     -11.861  13.971  64.326  1.00  0.00    -0.435 C  
HETATM   18  H   UNL     1     -12.740  13.523  68.143  1.00  0.00     0.000 HD 
BRANCH   9  19
HETATM   19  N   UNL     1      -7.442  12.999  67.471  1.00  0.00    -0.153 NA 
HETATM   20  C   UNL     1      -6.800  11.825  66.876  1.00  0.00    -0.104 C  
HETATM   21  C   UNL     1      -6.874  13.230  68.804  1.00  0.00    -0.102 C  
ENDBRANCH   9  19
ENDBRANCH   2   3
TORSDOF 2
ENDMDL
MODEL       24
REMARK 921   NORMALIZED FREE ENERGY PREDICTED BY IDOCK:   -4.98 KCAL/MOL
REMARK 922        TOTAL FREE ENERGY PREDICTED BY IDOCK:   -5.81 KCAL/MOL
REMARK 923 INTER-LIGAND FREE ENERGY PREDICTED BY IDOCK:   -5.57 KCAL/MOL
REMARK 924 INTRA-LIGAND FREE ENERGY PREDICTED BY IDOCK:   -0.24 KCAL/MOL
REMARK 927      BINDING AFFINITY PREDICTED BY RF-SCORE:    0.00 PKD
ROOT
HETATM    1  C   UNL     1     -12.050  12.850  63.459  1.00  0.00    -0.555 C  
HETATM    2  O   UNL     1     -11.983  11.991  64.591  1.00  0.00    -0.323 OA 
ENDROOT
BRANCH   2   3
HETATM    3  C   UNL     1     -11.747  12.586  65.799  1.00  0.00    -0.426 A  
HETATM    4  C   UNL     1     -11.831  11.969  67.041  1.00  0.00    -0.251 A  
HETATM    5  C   UNL     1     -11.543  12.684  68.208  1.00  0.00    -0.377 A  
HETATM    6  C   UNL     1     -11.194  14.046  68.172  1.00  0.00    -0.299 A  
HETATM    7  C   UNL     1     -11.119  14.657  66.914  1.00  0.00    -0.333 A  
HETATM    8  C   UNL     1     -10.915  14.790  69.493  1.00  0.00    -0.287 C  
HETATM    9  C   UNL     1      -9.796  15.879  69.372  1.00  0.00    -0.280 C  
HETATM   10  C   UNL     1     -11.383  13.932  65.743  1.00  0.00    -0.308 A  
HETATM   11  C   UNL     1     -12.230  15.369  70.168  1.00  0.00    -0.375 C  
HETATM   12  O   UNL     1     -12.854  16.302  69.272  1.00  0.00    -0.223 OA 
HETATM   13  C   UNL     1     -13.270  14.280  70.534  1.00  0.00    -0.061 C  
HETATM   14  C   UNL     1     -11.963  16.153  71.477  1.00  0.00    -0.490 C  
HETATM   15  C   UNL     1     -11.418  15.266  72.595  1.00  0.00    -0.380 C  
HETATM   16  C   UNL     1     -12.361  14.104  72.897  1.00  0.00    -0.012 C  
HETATM   17  C   UNL     1     -12.780  13.342  71.642  1.00  0.00    -0.327 C  
HETATM   18  H   UNL     1     -13.641  16.648  69.675  1.00  0.00     0.000 HD 
BRANCH   9  19
HETATM   19  N   UNL     1      -8.481  15.407  68.882  1.00  0.00    -0.188 NA 
HETATM   20  C   UNL     1      -7.509  15.269  69.970  1.00  0.00     0.083 C  
HETATM   21  C   UNL     1      -7.951  16.344  67.885  1.00  0.00    -0.153 C  
ENDBRANCH   9  19
ENDBRANCH   2   3
TORSDOF 2
ENDMDL
MODEL       25
REMARK 921   NORMALIZED FREE ENERGY PREDICTED BY IDOCK:   -4.93 KCAL/MOL
REMARK 922        TOTAL FREE ENERGY PREDICTED BY IDOCK:   -5.75 KCAL/MOL
REMARK 923 INTER-LIGAND FREE ENERGY PREDICTED BY IDOCK:   -5.52 KCAL/MOL
REMARK 924 INTRA-LIGAND FREE ENERGY PREDICTED BY IDOCK:   -0.22 KCAL/MOL
REMARK 927      BINDING AFFINITY PREDICTED BY RF-SCORE:    0.00 PKD
ROOT
HETATM    1  C   UNL     1      -9.506   8.841  71.162  1.00  0.00    -0.240 C  
HETATM    2  O   UNL     1     -10.531   8.967  70.182  1.00  0.00    -0.200 OA 
ENDROOT
BRANCH   2   3
HETATM    3  C   UNL     1     -10.453  10.048  69.350  1.00  0.00    -0.232 A  
HETATM    4  C   UNL     1      -9.308  10.787  69.078  1.00  0.00    -0.168 A  
HETATM    5  C   UNL     1      -9.353  11.864  68.187  1.00  0.00    -0.191 A  
HETATM    6  C   UNL     1     -10.552  12.256  67.565  1.00  0.00    -0.242 A  
HETATM    7  C   UNL     1     -11.700  11.506  67.851  1.00  0.00    -0.317 A  
HETATM    8  C   UNL     1     -10.547  13.469  66.613  1.00  0.00    -0.280 C  
HETATM    9  C   UNL     1     -11.537  13.320  65.407  1.00  0.00    -0.321 C  
HETATM   10  C   UNL     1     -11.647  10.411  68.725  1.00  0.00    -0.188 A  
HETATM   11  C   UNL     1     -10.743  14.850  67.369  1.00  0.00    -0.292 C  
HETATM   12  O   UNL     1     -12.006  14.845  68.053  1.00  0.00    -0.498 OA 
HETATM   13  C   UNL     1      -9.632  15.152  68.406  1.00  0.00    -0.212 C  
HETATM   14  C   UNL     1     -10.780  16.076  66.423  1.00  0.00    -0.232 C  
HETATM   15  C   UNL     1      -9.449  16.311  65.710  1.00  0.00    -0.229 C  
HETATM   16  C   UNL     1      -8.305  16.486  66.704  1.00  0.00    -0.297 C  
HETATM   17  C   UNL     1      -8.263  15.382  67.758  1.00  0.00    -0.159 C  
HETATM   18  H   UNL     1     -12.123  15.671  68.506  1.00  0.00     0.000 HD 
BRANCH   9  19
HETATM   19  N   UNL     1     -11.344  12.127  64.552  1.00  0.00    -0.322 NA 
HETATM   20  C   UNL     1     -10.093  12.195  63.793  1.00  0.00    -0.379 C  
HETATM   21  C   UNL     1     -12.465  11.995  63.615  1.00  0.00    -0.525 C  
ENDBRANCH   9  19
ENDBRANCH   2   3
TORSDOF 2
ENDMDL
MODEL       26
REMARK 921   NORMALIZED FREE ENERGY PREDICTED BY IDOCK:   -4.87 KCAL/MOL
REMARK 922        TOTAL FREE ENERGY PREDICTED BY IDOCK:   -5.68 KCAL/MOL
REMARK 923 INTER-LIGAND FREE ENERGY PREDICTED BY IDOCK:   -5.45 KCAL/MOL
REMARK 924 INTRA-LIGAND FREE ENERGY PREDICTED BY IDOCK:   -0.23 KCAL/MOL
REMARK 927      BINDING AFFINITY PREDICTED BY RF-SCORE:    0.00 PKD
ROOT
HETATM    1  C   UNL     1     -13.964  13.709  72.311  1.00  0.00    -0.563 C  
HETATM    2  O   UNL     1     -12.996  14.741  72.458  1.00  0.00    -0.340 OA 
ENDROOT
BRANCH   2   3
HETATM    3  C   UNL     1     -12.259  15.053  71.350  1.00  0.00    -0.328 A  
HETATM    4  C   UNL     1     -10.872  15.098  71.280  1.00  0.00    -0.028 A  
HETATM    5  C   UNL     1     -10.232  15.410  70.076  1.00  0.00    -0.265 A  
HETATM    6  C   UNL     1     -10.960  15.718  68.913  1.00  0.00    -0.283 A  
HETATM    7  C   UNL     1     -12.357  15.673  68.998  1.00  0.00     0.044 A  
HETATM    8  C   UNL     1     -10.201  16.082  67.621  1.00  0.00    -0.262 C  
HETATM    9  C   UNL     1     -10.910  15.580  66.317  1.00  0.00    -0.283 C  
HETATM   10  C   UNL     1     -12.997  15.336  70.199  1.00  0.00    -0.128 A  
HETATM   11  C   UNL     1      -9.830  17.623  67.534  1.00  0.00    -0.299 C  
HETATM   12  O   UNL     1     -11.033  18.405  67.561  1.00  0.00    -0.354 OA 
HETATM   13  C   UNL     1      -8.913  18.105  68.686  1.00  0.00    -0.289 C  
HETATM   14  C   UNL     1      -9.100  18.012  66.224  1.00  0.00    -0.197 C  
HETATM   15  C   UNL     1      -7.722  17.365  66.101  1.00  0.00    -0.311 C  
HETATM   16  C   UNL     1      -6.830  17.717  67.288  1.00  0.00    -0.190 C  
HETATM   17  C   UNL     1      -7.515  17.480  68.632  1.00  0.00    -0.265 C  
HETATM   18  H   UNL     1     -10.812  19.327  67.509  1.00  0.00     0.000 HD 
BRANCH   9  19
HETATM   19  N   UNL     1     -11.175  14.125  66.241  1.00  0.00    -0.322 NA 
HETATM   20  C   UNL     1     -10.238  13.446  65.342  1.00  0.00    -0.298 C  
HETATM   21  C   UNL     1     -12.544  13.888  65.772  1.00  0.00    -0.494 C  
ENDBRANCH   9  19
ENDBRANCH   2   3
TORSDOF 2
ENDMDL
MODEL       27
REMARK 921   NORMALIZED FREE ENERGY PREDICTED BY IDOCK:   -4.82 KCAL/MOL
REMARK 922        TOTAL FREE ENERGY PREDICTED BY IDOCK:   -5.63 KCAL/MOL
REMARK 923 INTER-LIGAND FREE ENERGY PREDICTED BY IDOCK:   -5.41 KCAL/MOL
REMARK 924 INTRA-LIGAND FREE ENERGY PREDICTED BY IDOCK:   -0.22 KCAL/MOL
REMARK 927      BINDING AFFINITY PREDICTED BY RF-SCORE:    0.00 PKD
ROOT
HETATM    1  C   UNL     1     -10.763   5.086  73.694  1.00  0.00    -0.293 C  
HETATM    2  O   UNL     1     -11.711   5.611  72.772  1.00  0.00    -0.283 OA 
ENDROOT
BRANCH   2   3
HETATM    3  C   UNL     1     -11.356   6.755  72.113  1.00  0.00    -0.271 A  
HETATM    4  C   UNL     1     -11.604   8.052  72.543  1.00  0.00    -0.464 A  
HETATM    5  C   UNL     1     -11.169   9.145  71.786  1.00  0.00    -0.451 A  
HETATM    6  C   UNL     1     -10.502   8.975  70.560  1.00  0.00    -0.271 A  
HETATM    7  C   UNL     1     -10.262   7.662  70.136  1.00  0.00    -0.204 A  
HETATM    8  C   UNL     1     -10.070  10.217  69.756  1.00  0.00    -0.269 C  
HETATM    9  C   UNL     1      -8.719  10.024  68.986  1.00  0.00    -0.158 C  
HETATM   10  C   UNL     1     -10.677   6.567  70.908  1.00  0.00    -0.289 A  
HETATM   11  C   UNL     1     -11.216  10.767  68.805  1.00  0.00    -0.272 C  
HETATM   12  O   UNL     1     -11.583   9.750  67.862  1.00  0.00    -0.523 OA 
HETATM   13  C   UNL     1     -12.493  11.208  69.565  1.00  0.00    -0.142 C  
HETATM   14  C   UNL     1     -10.786  11.993  67.960  1.00  0.00    -0.244 C  
HETATM   15  C   UNL     1     -10.488  13.224  68.815  1.00  0.00    -0.187 C  
HETATM   16  C   UNL     1     -11.687  13.612  69.675  1.00  0.00    -0.383 C  
HETATM   17  C   UNL     1     -12.260  12.431  70.457  1.00  0.00    -0.382 C  
HETATM   18  H   UNL     1     -12.269  10.079  67.293  1.00  0.00     0.000 HD 
BRANCH   9  19
HETATM   19  N   UNL     1      -7.550   9.644  69.811  1.00  0.00    -0.106 NA 
HETATM   20  C   UNL     1      -6.642  10.774  70.025  1.00  0.00    -0.159 C  
HETATM   21  C   UNL     1      -6.812   8.554  69.165  1.00  0.00    -0.058 C  
ENDBRANCH   9  19
ENDBRANCH   2   3
TORSDOF 2
ENDMDL
MODEL       28
REMARK 921   NORMALIZED FREE ENERGY PREDICTED BY IDOCK:   -4.80 KCAL/MOL
REMARK 922        TOTAL FREE ENERGY PREDICTED BY IDOCK:   -5.60 KCAL/MOL
REMARK 923 INTER-LIGAND FREE ENERGY PREDICTED BY IDOCK:   -5.37 KCAL/MOL
REMARK 924 INTRA-LIGAND FREE ENERGY PREDICTED BY IDOCK:   -0.23 KCAL/MOL
REMARK 927      BINDING AFFINITY PREDICTED BY RF-SCORE:    0.00 PKD
ROOT
HETATM    1  C   UNL     1      -5.376  14.934  70.713  1.00  0.00    -0.135 C  
HETATM    2  O   UNL     1      -5.772  15.518  69.477  1.00  0.00    -0.108 OA 
ENDROOT
BRANCH   2   3
HETATM    3  C   UNL     1      -6.936  15.057  68.927  1.00  0.00    -0.114 A  
HETATM    4  C   UNL     1      -7.039  14.114  67.913  1.00  0.00    -0.168 A  
HETATM    5  C   UNL     1      -8.295  13.707  67.448  1.00  0.00    -0.198 A  
HETATM    6  C   UNL     1      -9.484  14.255  67.961  1.00  0.00    -0.204 A  
HETATM    7  C   UNL     1      -9.365  15.209  68.980  1.00  0.00    -0.219 A  
HETATM    8  C   UNL     1     -10.838  13.789  67.392  1.00  0.00    -0.285 C  
HETATM    9  C   UNL     1     -11.981  13.734  68.462  1.00  0.00    -0.367 C  
HETATM   10  C   UNL     1      -8.106  15.597  69.462  1.00  0.00    -0.174 A  
HETATM   11  C   UNL     1     -11.279  14.600  66.101  1.00  0.00    -0.341 C  
HETATM   12  O   UNL     1     -11.408  15.991  66.432  1.00  0.00     0.055 OA 
HETATM   13  C   UNL     1     -10.284  14.474  64.920  1.00  0.00    -0.338 C  
HETATM   14  C   UNL     1     -12.657  14.170  65.538  1.00  0.00    -0.501 C  
HETATM   15  C   UNL     1     -12.656  12.738  65.006  1.00  0.00    -0.538 C  
HETATM   16  C   UNL     1     -11.596  12.543  63.925  1.00  0.00    -0.516 C  
HETATM   17  C   UNL     1     -10.221  13.054  64.347  1.00  0.00    -0.335 C  
HETATM   18  H   UNL     1     -11.671  16.477  65.660  1.00  0.00     0.000 HD 
BRANCH   9  19
HETATM   19  N   UNL     1     -11.721  12.885  69.647  1.00  0.00    -0.309 NA 
HETATM   20  C   UNL     1     -12.248  11.529  69.474  1.00  0.00    -0.221 C  
HETATM   21  C   UNL     1     -12.329  13.486  70.839  1.00  0.00    -0.356 C  
ENDBRANCH   9  19
ENDBRANCH   2   3
TORSDOF 2
ENDMDL
MODEL       29
REMARK 921   NORMALIZED FREE ENERGY PREDICTED BY IDOCK:   -4.79 KCAL/MOL
REMARK 922        TOTAL FREE ENERGY PREDICTED BY IDOCK:   -5.59 KCAL/MOL
REMARK 923 INTER-LIGAND FREE ENERGY PREDICTED BY IDOCK:   -5.37 KCAL/MOL
REMARK 924 INTRA-LIGAND FREE ENERGY PREDICTED BY IDOCK:   -0.22 KCAL/MOL
REMARK 927      BINDING AFFINITY PREDICTED BY RF-SCORE:    0.00 PKD
ROOT
HETATM    1  C   UNL     1      -9.932   6.585  74.366  1.00  0.00    -0.351 C  
HETATM    2  O   UNL     1     -10.841   7.521  73.799  1.00  0.00    -0.316 OA 
ENDROOT
BRANCH   2   3
HETATM    3  C   UNL     1     -10.592   7.915  72.514  1.00  0.00    -0.315 A  
HETATM    4  C   UNL     1      -9.509   8.676  72.091  1.00  0.00    -0.373 A  
HETATM    5  C   UNL     1      -9.353   8.997  70.738  1.00  0.00    -0.305 A  
HETATM    6  C   UNL     1     -10.292   8.595  69.772  1.00  0.00    -0.212 A  
HETATM    7  C   UNL     1     -11.382   7.833  70.213  1.00  0.00    -0.174 A  
HETATM    8  C   UNL     1     -10.083   9.002  68.300  1.00  0.00    -0.223 C  
HETATM    9  C   UNL     1     -10.567   7.918  67.277  1.00  0.00    -0.295 C  
HETATM   10  C   UNL     1     -11.523   7.491  71.565  1.00  0.00    -0.293 A  
HETATM   11  C   UNL     1     -10.677  10.436  67.964  1.00  0.00    -0.249 C  
HETATM   12  O   UNL     1     -12.090  10.438  68.214  1.00  0.00    -0.747 OA 
HETATM   13  C   UNL     1     -10.037  11.580  68.789  1.00  0.00    -0.191 C  
HETATM   14  C   UNL     1     -10.509  10.844  66.478  1.00  0.00    -0.308 C  
HETATM   15  C   UNL     1      -9.046  11.023  66.077  1.00  0.00    -0.212 C  
HETATM   16  C   UNL     1      -8.347  12.056  66.957  1.00  0.00    -0.178 C  
HETATM   17  C   UNL     1      -8.560  11.804  68.448  1.00  0.00    -0.156 C  
HETATM   18  H   UNL     1     -12.445  11.295  68.013  1.00  0.00     0.000 HD 
BRANCH   9  19
HETATM   19  N   UNL     1      -9.963   6.574  67.421  1.00  0.00    -0.133 NA 
HETATM   20  C   UNL     1      -8.543   6.573  67.059  1.00  0.00    -0.113 C  
HETATM   21  C   UNL     1     -10.673   5.611  66.572  1.00  0.00    -0.226 C  
ENDBRANCH   9  19
ENDBRANCH   2   3
TORSDOF 2
ENDMDL
MODEL       30
REMARK 921   NORMALIZED FREE ENERGY PREDICTED BY IDOCK:   -4.78 KCAL/MOL
REMARK 922        TOTAL FREE ENERGY PREDICTED BY IDOCK:   -5.58 KCAL/MOL
REMARK 923 INTER-LIGAND FREE ENERGY PREDICTED BY IDOCK:   -5.42 KCAL/MOL
REMARK 924 INTRA-LIGAND FREE ENERGY PREDICTED BY IDOCK:   -0.16 KCAL/MOL
REMARK 927      BINDING AFFINITY PREDICTED BY RF-SCORE:    0.00 PKD
ROOT
HETATM    1  C   UNL     1      -9.935   8.338  66.627  1.00  0.00    -0.278 C  
HETATM    2  O   UNL     1     -10.897   8.792  67.571  1.00  0.00    -0.206 OA 
ENDROOT
BRANCH   2   3
HETATM    3  C   UNL     1     -10.952  10.140  67.792  1.00  0.00    -0.277 A  
HETATM    4  C   UNL     1     -11.260  11.108  66.844  1.00  0.00    -0.258 A  
HETATM    5  C   UNL     1     -11.304  12.460  67.201  1.00  0.00    -0.390 A  
HETATM    6  C   UNL     1     -11.011  12.888  68.508  1.00  0.00    -0.288 A  
HETATM    7  C   UNL     1     -10.697  11.902  69.452  1.00  0.00    -0.012 A  
HETATM    8  C   UNL     1     -11.049  14.394  68.836  1.00  0.00    -0.277 C  
HETATM    9  C   UNL     1     -11.556  14.705  70.285  1.00  0.00    -0.280 C  
HETATM   10  C   UNL     1     -10.678  10.545  69.099  1.00  0.00    -0.266 A  
HETATM   11  C   UNL     1      -9.679  15.131  68.521  1.00  0.00    -0.214 C  
HETATM   12  O   UNL     1      -8.630  14.545  69.308  1.00  0.00    -0.364 OA 
HETATM   13  C   UNL     1      -9.264  15.058  67.030  1.00  0.00    -0.246 C  
HETATM   14  C   UNL     1      -9.687  16.638  68.882  1.00  0.00    -0.255 C  
HETATM   15  C   UNL     1     -10.664  17.443  68.027  1.00  0.00    -0.359 C  
HETATM   16  C   UNL     1     -10.362  17.292  66.538  1.00  0.00    -0.308 C  
HETATM   17  C   UNL     1     -10.214  15.833  66.111  1.00  0.00    -0.332 C  
HETATM   18  H   UNL     1      -7.810  14.986  69.120  1.00  0.00     0.000 HD 
BRANCH   9  19
HETATM   19  N   UNL     1     -12.896  14.176  70.631  1.00  0.00    -0.322 NA 
HETATM   20  C   UNL     1     -13.871  15.250  70.835  1.00  0.00    -0.234 C  
HETATM   21  C   UNL     1     -12.815  13.366  71.852  1.00  0.00    -0.256 C  
ENDBRANCH   9  19
ENDBRANCH   2   3
TORSDOF 2
ENDMDL
MODEL       31
REMARK 921   NORMALIZED FREE ENERGY PREDICTED BY IDOCK:   -4.77 KCAL/MOL
REMARK 922        TOTAL FREE ENERGY PREDICTED BY IDOCK:   -5.57 KCAL/MOL
REMARK 923 INTER-LIGAND FREE ENERGY PREDICTED BY IDOCK:   -5.36 KCAL/MOL
REMARK 924 INTRA-LIGAND FREE ENERGY PREDICTED BY IDOCK:   -0.21 KCAL/MOL
REMARK 927      BINDING AFFINITY PREDICTED BY RF-SCORE:    0.00 PKD
ROOT
HETATM    1  C   UNL     1     -13.633   9.327  72.338  1.00  0.00    -0.463 C  
HETATM    2  O   UNL     1     -13.229  10.647  71.994  1.00  0.00    -0.473 OA 
ENDROOT
BRANCH   2   3
HETATM    3  C   UNL     1     -12.300  10.763  70.997  1.00  0.00    -0.404 A  
HETATM    4  C   UNL     1     -11.420   9.770  70.584  1.00  0.00    -0.397 A  
HETATM    5  C   UNL     1     -10.528  10.007  69.533  1.00  0.00    -0.260 A  
HETATM    6  C   UNL     1     -10.466  11.253  68.884  1.00  0.00    -0.232 A  
HETATM    7  C   UNL     1     -11.355  12.246  69.314  1.00  0.00    -0.317 A  
HETATM    8  C   UNL     1      -9.443  11.464  67.750  1.00  0.00    -0.167 C  
HETATM    9  C   UNL     1      -9.962  12.402  66.608  1.00  0.00    -0.225 C  
HETATM   10  C   UNL     1     -12.266  12.000  70.351  1.00  0.00    -0.379 A  
HETATM   11  C   UNL     1      -8.016  11.915  68.280  1.00  0.00    -0.148 C  
HETATM   12  O   UNL     1      -8.140  13.159  68.985  1.00  0.00    -0.335 OA 
HETATM   13  C   UNL     1      -7.354  10.884  69.228  1.00  0.00    -0.125 C  
HETATM   14  C   UNL     1      -6.987  12.169  67.150  1.00  0.00    -0.117 C  
HETATM   15  C   UNL     1      -6.633  10.899  66.378  1.00  0.00    -0.134 C  
HETATM   16  C   UNL     1      -6.094   9.812  67.304  1.00  0.00    -0.055 C  
HETATM   17  C   UNL     1      -6.987   9.576  68.520  1.00  0.00    -0.065 C  
HETATM   18  H   UNL     1      -7.287  13.429  69.302  1.00  0.00     0.000 HD 
BRANCH   9  19
HETATM   19  N   UNL     1     -11.223  11.989  65.951  1.00  0.00    -0.329 NA 
HETATM   20  C   UNL     1     -10.991  11.474  64.598  1.00  0.00    -0.288 C  
HETATM   21  C   UNL     1     -12.147  13.126  65.877  1.00  0.00    -0.444 C  
ENDBRANCH   9  19
ENDBRANCH   2   3
TORSDOF 2
ENDMDL
MODEL       32
REMARK 921   NORMALIZED FREE ENERGY PREDICTED BY IDOCK:   -4.77 KCAL/MOL
REMARK 922        TOTAL FREE ENERGY PREDICTED BY IDOCK:   -5.57 KCAL/MOL
REMARK 923 INTER-LIGAND FREE ENERGY PREDICTED BY IDOCK:   -5.41 KCAL/MOL
REMARK 924 INTRA-LIGAND FREE ENERGY PREDICTED BY IDOCK:   -0.15 KCAL/MOL
REMARK 927      BINDING AFFINITY PREDICTED BY RF-SCORE:    0.00 PKD
ROOT
HETATM    1  C   UNL     1      -8.813   9.253  62.409  1.00  0.00    -0.233 C  
HETATM    2  O   UNL     1      -9.715  10.350  62.345  1.00  0.00    -0.224 OA 
ENDROOT
BRANCH   2   3
HETATM    3  C   UNL     1      -9.806  11.135  63.461  1.00  0.00    -0.353 A  
HETATM    4  C   UNL     1     -10.500  12.334  63.560  1.00  0.00    -0.459 A  
HETATM    5  C   UNL     1     -10.535  13.036  64.770  1.00  0.00    -0.382 A  
HETATM    6  C   UNL     1      -9.851  12.576  65.909  1.00  0.00    -0.257 A  
HETATM    7  C   UNL     1      -9.151  11.368  65.795  1.00  0.00    -0.195 A  
HETATM    8  C   UNL     1      -9.903  13.405  67.207  1.00  0.00    -0.233 C  
HETATM    9  C   UNL     1      -9.910  12.531  68.507  1.00  0.00    -0.149 C  
HETATM   10  C   UNL     1      -9.138  10.653  64.588  1.00  0.00    -0.238 A  
HETATM   11  C   UNL     1      -8.790  14.536  67.264  1.00  0.00    -0.208 C  
HETATM   12  O   UNL     1      -7.491  13.931  67.192  1.00  0.00    -0.343 OA 
HETATM   13  C   UNL     1      -8.905  15.576  66.122  1.00  0.00    -0.273 C  
HETATM   14  C   UNL     1      -8.804  15.354  68.580  1.00  0.00    -0.186 C  
HETATM   15  C   UNL     1     -10.079  16.179  68.749  1.00  0.00    -0.237 C  
HETATM   16  C   UNL     1     -10.291  17.128  67.573  1.00  0.00    -0.341 C  
HETATM   17  C   UNL     1     -10.173  16.429  66.221  1.00  0.00    -0.341 C  
HETATM   18  H   UNL     1      -6.825  14.607  67.226  1.00  0.00     0.000 HD 
BRANCH   9  19
HETATM   19  N   UNL     1     -11.000  11.535  68.614  1.00  0.00    -0.207 NA 
HETATM   20  C   UNL     1     -11.911  11.838  69.721  1.00  0.00    -0.349 C  
HETATM   21  C   UNL     1     -10.438  10.194  68.811  1.00  0.00    -0.204 C  
ENDBRANCH   9  19
ENDBRANCH   2   3
TORSDOF 2
ENDMDL
MODEL       33
REMARK 921   NORMALIZED FREE ENERGY PREDICTED BY IDOCK:   -4.76 KCAL/MOL
REMARK 922        TOTAL FREE ENERGY PREDICTED BY IDOCK:   -5.56 KCAL/MOL
REMARK 923 INTER-LIGAND FREE ENERGY PREDICTED BY IDOCK:   -5.36 KCAL/MOL
REMARK 924 INTRA-LIGAND FREE ENERGY PREDICTED BY IDOCK:   -0.20 KCAL/MOL
REMARK 927      BINDING AFFINITY PREDICTED BY RF-SCORE:    0.00 PKD
ROOT
HETATM    1  C   UNL     1      -9.113   6.702  67.900  1.00  0.00    -0.114 C  
HETATM    2  O   UNL     1      -8.997   7.836  68.751  1.00  0.00    -0.141 OA 
ENDROOT
BRANCH   2   3
HETATM    3  C   UNL     1      -9.225   9.057  68.179  1.00  0.00    -0.136 A  
HETATM    4  C   UNL     1      -8.252   9.974  67.801  1.00  0.00    -0.113 A  
HETATM    5  C   UNL     1      -8.613  11.185  67.202  1.00  0.00    -0.139 A  
HETATM    6  C   UNL     1      -9.960  11.531  66.992  1.00  0.00    -0.225 A  
HETATM    7  C   UNL     1     -10.931  10.600  67.382  1.00  0.00    -0.361 A  
HETATM    8  C   UNL     1     -10.299  12.892  66.354  1.00  0.00    -0.277 C  
HETATM    9  C   UNL     1     -11.560  12.849  65.424  1.00  0.00    -0.350 C  
HETATM   10  C   UNL     1     -10.566   9.375  67.959  1.00  0.00    -0.278 A  
HETATM   11  C   UNL     1     -10.390  14.069  67.415  1.00  0.00    -0.259 C  
HETATM   12  O   UNL     1     -11.421  13.772  68.369  1.00  0.00    -0.275 OA 
HETATM   13  C   UNL     1      -9.069  14.309  68.188  1.00  0.00    -0.193 C  
HETATM   14  C   UNL     1     -10.768  15.437  66.794  1.00  0.00    -0.310 C  
HETATM   15  C   UNL     1      -9.697  15.971  65.845  1.00  0.00    -0.378 C  
HETATM   16  C   UNL     1      -8.346  16.101  66.542  1.00  0.00    -0.352 C  
HETATM   17  C   UNL     1      -7.943  14.832  67.290  1.00  0.00    -0.232 C  
HETATM   18  H   UNL     1     -11.475  14.476  69.004  1.00  0.00     0.000 HD 
BRANCH   9  19
HETATM   19  N   UNL     1     -11.513  11.874  64.311  1.00  0.00    -0.355 NA 
HETATM   20  C   UNL     1     -10.350  12.088  63.447  1.00  0.00    -0.434 C  
HETATM   21  C   UNL     1     -12.733  11.976  63.503  1.00  0.00    -0.443 C  
ENDBRANCH   9  19
ENDBRANCH   2   3
TORSDOF 2
ENDMDL
MODEL       34
REMARK 921   NORMALIZED FREE ENERGY PREDICTED BY IDOCK:   -4.74 KCAL/MOL
REMARK 922        TOTAL FREE ENERGY PREDICTED BY IDOCK:   -5.54 KCAL/MOL
REMARK 923 INTER-LIGAND FREE ENERGY PREDICTED BY IDOCK:   -5.31 KCAL/MOL
REMARK 924 INTRA-LIGAND FREE ENERGY PREDICTED BY IDOCK:   -0.23 KCAL/MOL
REMARK 927      BINDING AFFINITY PREDICTED BY RF-SCORE:    0.00 PKD
ROOT
HETATM    1  C   UNL     1     -13.211  12.625  72.000  1.00  0.00    -0.427 C  
HETATM    2  O   UNL     1     -13.433  11.223  72.089  1.00  0.00    -0.390 OA 
ENDROOT
BRANCH   2   3
HETATM    3  C   UNL     1     -12.545  10.419  71.430  1.00  0.00    -0.434 A  
HETATM    4  C   UNL     1     -11.570  10.844  70.536  1.00  0.00    -0.397 A  
HETATM    5  C   UNL     1     -10.703   9.921  69.941  1.00  0.00    -0.318 A  
HETATM    6  C   UNL     1     -10.806   8.543  70.196  1.00  0.00    -0.238 A  
HETATM    7  C   UNL     1     -11.796   8.127  71.096  1.00  0.00    -0.303 A  
HETATM    8  C   UNL     1      -9.841   7.570  69.490  1.00  0.00    -0.169 C  
HETATM    9  C   UNL     1      -9.434   6.341  70.373  1.00  0.00    -0.161 C  
HETATM   10  C   UNL     1     -12.647   9.056  71.711  1.00  0.00    -0.434 A  
HETATM   11  C   UNL     1     -10.354   7.120  68.057  1.00  0.00    -0.194 C  
HETATM   12  O   UNL     1     -11.617   6.452  68.191  1.00  0.00    -0.557 OA 
HETATM   13  C   UNL     1     -10.531   8.297  67.065  1.00  0.00    -0.384 C  
HETATM   14  C   UNL     1      -9.414   6.112  67.349  1.00  0.00    -0.118 C  
HETATM   15  C   UNL     1      -8.054   6.715  67.004  1.00  0.00    -0.113 C  
HETATM   16  C   UNL     1      -8.197   7.957  66.129  1.00  0.00    -0.117 C  
HETATM   17  C   UNL     1      -9.203   8.961  66.688  1.00  0.00    -0.215 C  
HETATM   18  H   UNL     1     -11.925   6.183  67.333  1.00  0.00     0.000 HD 
BRANCH   9  19
HETATM   19  N   UNL     1      -8.813   6.658  71.679  1.00  0.00    -0.134 NA 
HETATM   20  C   UNL     1      -7.476   7.237  71.523  1.00  0.00    -0.082 C  
HETATM   21  C   UNL     1      -8.715   5.444  72.496  1.00  0.00    -0.124 C  
ENDBRANCH   9  19
ENDBRANCH   2   3
TORSDOF 2
ENDMDL
MODEL       35
REMARK 921   NORMALIZED FREE ENERGY PREDICTED BY IDOCK:   -4.74 KCAL/MOL
REMARK 922        TOTAL FREE ENERGY PREDICTED BY IDOCK:   -5.53 KCAL/MOL
REMARK 923 INTER-LIGAND FREE ENERGY PREDICTED BY IDOCK:   -5.49 KCAL/MOL
REMARK 924 INTRA-LIGAND FREE ENERGY PREDICTED BY IDOCK:   -0.04 KCAL/MOL
REMARK 927      BINDING AFFINITY PREDICTED BY RF-SCORE:    0.00 PKD
ROOT
HETATM    1  C   UNL     1      -7.045  18.049  68.864  1.00  0.00    -0.263 C  
HETATM    2  O   UNL     1      -8.404  17.940  68.458  1.00  0.00    -0.295 OA 
ENDROOT
BRANCH   2   3
HETATM    3  C   UNL     1      -8.831  16.699  68.076  1.00  0.00    -0.206 A  
HETATM    4  C   UNL     1      -9.508  15.788  68.878  1.00  0.00    -0.229 A  
HETATM    5  C   UNL     1      -9.914  14.553  68.361  1.00  0.00    -0.241 A  
HETATM    6  C   UNL     1      -9.627  14.177  67.037  1.00  0.00    -0.264 A  
HETATM    7  C   UNL     1      -8.940  15.103  66.241  1.00  0.00    -0.274 A  
HETATM    8  C   UNL     1     -10.075  12.792  66.531  1.00  0.00    -0.264 C  
HETATM    9  C   UNL     1     -10.499  12.785  65.023  1.00  0.00    -0.314 C  
HETATM   10  C   UNL     1      -8.556  16.351  66.753  1.00  0.00    -0.270 A  
HETATM   11  C   UNL     1      -9.024  11.646  66.852  1.00  0.00    -0.191 C  
HETATM   12  O   UNL     1      -7.774  11.953  66.217  1.00  0.00    -0.377 OA 
HETATM   13  C   UNL     1      -8.763  11.453  68.367  1.00  0.00    -0.157 C  
HETATM   14  C   UNL     1      -9.441  10.254  66.317  1.00  0.00    -0.223 C  
HETATM   15  C   UNL     1     -10.695   9.710  66.998  1.00  0.00    -0.225 C  
HETATM   16  C   UNL     1     -10.517   9.626  68.512  1.00  0.00    -0.241 C  
HETATM   17  C   UNL     1      -9.989  10.923  69.118  1.00  0.00    -0.181 C  
HETATM   18  H   UNL     1      -7.145  11.268  66.409  1.00  0.00     0.000 HD 
BRANCH   9  19
HETATM   19  N   UNL     1     -11.579  13.727  64.648  1.00  0.00    -0.362 NA 
HETATM   20  C   UNL     1     -12.627  13.790  65.669  1.00  0.00    -0.509 C  
HETATM   21  C   UNL     1     -12.178  13.320  63.372  1.00  0.00    -0.403 C  
ENDBRANCH   9  19
ENDBRANCH   2   3
TORSDOF 2
ENDMDL
MODEL       36
REMARK 921   NORMALIZED FREE ENERGY PREDICTED BY IDOCK:   -4.73 KCAL/MOL
REMARK 922        TOTAL FREE ENERGY PREDICTED BY IDOCK:   -5.53 KCAL/MOL
REMARK 923 INTER-LIGAND FREE ENERGY PREDICTED BY IDOCK:   -5.37 KCAL/MOL
REMARK 924 INTRA-LIGAND FREE ENERGY PREDICTED BY IDOCK:   -0.16 KCAL/MOL
REMARK 927      BINDING AFFINITY PREDICTED BY RF-SCORE:    0.00 PKD
ROOT
HETATM    1  C   UNL     1      -9.391  20.552  67.181  1.00  0.00    -0.376 C  
HETATM    2  O   UNL     1      -8.858  19.533  66.343  1.00  0.00    -0.339 OA 
ENDROOT
BRANCH   2   3
HETATM    3  C   UNL     1      -9.309  18.261  66.563  1.00  0.00    -0.302 A  
HETATM    4  C   UNL     1     -10.458  17.914  67.263  1.00  0.00    -0.373 A  
HETATM    5  C   UNL     1     -10.825  16.571  67.402  1.00  0.00    -0.202 A  
HETATM    6  C   UNL     1     -10.038  15.533  66.874  1.00  0.00    -0.263 A  
HETATM    7  C   UNL     1      -8.880  15.897  66.175  1.00  0.00    -0.363 A  
HETATM    8  C   UNL     1     -10.478  14.070  67.082  1.00  0.00    -0.270 C  
HETATM    9  C   UNL     1     -10.136  13.137  65.870  1.00  0.00    -0.290 C  
HETATM   10  C   UNL     1      -8.526  17.244  66.015  1.00  0.00    -0.136 A  
HETATM   11  C   UNL     1      -9.970  13.461  68.456  1.00  0.00    -0.193 C  
HETATM   12  O   UNL     1      -8.535  13.487  68.489  1.00  0.00    -0.231 OA 
HETATM   13  C   UNL     1     -10.497  14.217  69.702  1.00  0.00     0.111 C  
HETATM   14  C   UNL     1     -10.372  11.979  68.664  1.00  0.00    -0.211 C  
HETATM   15  C   UNL     1     -11.882  11.788  68.791  1.00  0.00    -0.380 C  
HETATM   16  C   UNL     1     -12.457  12.622  69.933  1.00  0.00     0.002 C  
HETATM   17  C   UNL     1     -12.013  14.082  69.881  1.00  0.00    -0.399 C  
HETATM   18  H   UNL     1      -8.231  13.123  69.311  1.00  0.00     0.000 HD 
BRANCH   9  19
HETATM   19  N   UNL     1     -10.687  13.548  64.559  1.00  0.00    -0.411 NA 
HETATM   20  C   UNL     1     -12.123  13.828  64.632  1.00  0.00    -0.421 C  
HETATM   21  C   UNL     1     -10.456  12.494  63.565  1.00  0.00    -0.322 C  
ENDBRANCH   9  19
ENDBRANCH   2   3
TORSDOF 2
ENDMDL
MODEL       37
REMARK 921   NORMALIZED FREE ENERGY PREDICTED BY IDOCK:   -4.70 KCAL/MOL
REMARK 922        TOTAL FREE ENERGY PREDICTED BY IDOCK:   -5.49 KCAL/MOL
REMARK 923 INTER-LIGAND FREE ENERGY PREDICTED BY IDOCK:   -5.27 KCAL/MOL
REMARK 924 INTRA-LIGAND FREE ENERGY PREDICTED BY IDOCK:   -0.22 KCAL/MOL
REMARK 927      BINDING AFFINITY PREDICTED BY RF-SCORE:    0.00 PKD
ROOT
HETATM    1  C   UNL     1      -9.633   7.511  70.425  1.00  0.00    -0.168 C  
HETATM    2  O   UNL     1     -10.396   8.647  70.815  1.00  0.00    -0.191 OA 
ENDROOT
BRANCH   2   3
HETATM    3  C   UNL     1     -10.359   9.727  69.977  1.00  0.00    -0.263 A  
HETATM    4  C   UNL     1     -11.458  10.454  69.537  1.00  0.00    -0.311 A  
HETATM    5  C   UNL     1     -11.287  11.558  68.695  1.00  0.00    -0.330 A  
HETATM    6  C   UNL     1     -10.015  11.948  68.241  1.00  0.00    -0.202 A  
HETATM    7  C   UNL     1      -8.916  11.204  68.688  1.00  0.00    -0.162 A  
HETATM    8  C   UNL     1      -9.889  13.156  67.291  1.00  0.00    -0.232 C  
HETATM    9  C   UNL     1      -8.590  14.001  67.523  1.00  0.00    -0.192 C  
HETATM   10  C   UNL     1      -9.087  10.113  69.553  1.00  0.00    -0.213 A  
HETATM   11  C   UNL     1     -10.073  12.765  65.764  1.00  0.00    -0.286 C  
HETATM   12  O   UNL     1      -9.063  11.817  65.390  1.00  0.00    -0.407 OA 
HETATM   13  C   UNL     1     -11.458  12.148  65.445  1.00  0.00    -0.387 C  
HETATM   14  C   UNL     1      -9.912  13.962  64.793  1.00  0.00    -0.105 C  
HETATM   15  C   UNL     1     -11.006  15.014  64.967  1.00  0.00    -0.436 C  
HETATM   16  C   UNL     1     -12.396  14.412  64.784  1.00  0.00    -0.427 C  
HETATM   17  C   UNL     1     -12.607  13.148  65.616  1.00  0.00    -0.414 C  
HETATM   18  H   UNL     1      -9.172  11.582  64.476  1.00  0.00     0.000 HD 
BRANCH   9  19
HETATM   19  N   UNL     1      -8.396  14.533  68.891  1.00  0.00    -0.143 NA 
HETATM   20  C   UNL     1      -9.456  15.473  69.266  1.00  0.00    -0.263 C  
HETATM   21  C   UNL     1      -7.099  15.212  68.986  1.00  0.00    -0.140 C  
ENDBRANCH   9  19
ENDBRANCH   2   3
TORSDOF 2
ENDMDL
MODEL       38
REMARK 921   NORMALIZED FREE ENERGY PREDICTED BY IDOCK:   -4.69 KCAL/MOL
REMARK 922        TOTAL FREE ENERGY PREDICTED BY IDOCK:   -5.48 KCAL/MOL
REMARK 923 INTER-LIGAND FREE ENERGY PREDICTED BY IDOCK:   -5.27 KCAL/MOL
REMARK 924 INTRA-LIGAND FREE ENERGY PREDICTED BY IDOCK:   -0.21 KCAL/MOL
REMARK 927      BINDING AFFINITY PREDICTED BY RF-SCORE:    0.00 PKD
ROOT
HETATM    1  C   UNL     1     -11.059  14.950  68.977  1.00  0.00    -0.250 C  
HETATM    2  O   UNL     1     -12.100  14.065  69.373  1.00  0.00    -0.324 OA 
ENDROOT
BRANCH   2   3
HETATM    3  C   UNL     1     -11.754  12.754  69.550  1.00  0.00    -0.318 A  
HETATM    4  C   UNL     1     -12.441  11.828  70.326  1.00  0.00    -0.237 A  
HETATM    5  C   UNL     1     -11.996  10.504  70.410  1.00  0.00    -0.425 A  
HETATM    6  C   UNL     1     -10.834  10.073  69.747  1.00  0.00    -0.308 A  
HETATM    7  C   UNL     1     -10.148  11.018  68.972  1.00  0.00    -0.197 A  
HETATM    8  C   UNL     1     -10.376   8.609  69.898  1.00  0.00    -0.213 C  
HETATM    9  C   UNL     1      -9.717   8.024  68.603  1.00  0.00    -0.159 C  
HETATM   10  C   UNL     1     -10.609  12.338  68.868  1.00  0.00    -0.170 A  
HETATM   11  C   UNL     1      -9.469   8.373  71.179  1.00  0.00    -0.179 C  
HETATM   12  O   UNL     1      -8.289   9.185  71.084  1.00  0.00    -0.241 OA 
HETATM   13  C   UNL     1     -10.182   8.709  72.513  1.00  0.00    -0.238 C  
HETATM   14  C   UNL     1      -8.969   6.914  71.325  1.00  0.00    -0.142 C  
HETATM   15  C   UNL     1     -10.105   5.923  71.575  1.00  0.00    -0.238 C  
HETATM   16  C   UNL     1     -10.911   6.297  72.816  1.00  0.00    -0.281 C  
HETATM   17  C   UNL     1     -11.346   7.760  72.819  1.00  0.00    -0.446 C  
HETATM   18  H   UNL     1      -7.746   9.044  71.850  1.00  0.00     0.000 HD 
BRANCH   9  19
HETATM   19  N   UNL     1     -10.544   8.070  67.375  1.00  0.00    -0.285 NA 
HETATM   20  C   UNL     1     -10.998   6.737  66.973  1.00  0.00    -0.368 C  
HETATM   21  C   UNL     1      -9.777   8.665  66.276  1.00  0.00    -0.251 C  
ENDBRANCH   9  19
ENDBRANCH   2   3
TORSDOF 2
ENDMDL
MODEL       39
REMARK 921   NORMALIZED FREE ENERGY PREDICTED BY IDOCK:   -4.64 KCAL/MOL
REMARK 922        TOTAL FREE ENERGY PREDICTED BY IDOCK:   -5.43 KCAL/MOL
REMARK 923 INTER-LIGAND FREE ENERGY PREDICTED BY IDOCK:   -5.27 KCAL/MOL
REMARK 924 INTRA-LIGAND FREE ENERGY PREDICTED BY IDOCK:   -0.16 KCAL/MOL
REMARK 927      BINDING AFFINITY PREDICTED BY RF-SCORE:    0.00 PKD
ROOT
HETATM    1  C   UNL     1      -9.104   4.423  66.308  1.00  0.00    -0.126 C  
HETATM    2  O   UNL     1      -8.461   5.248  67.272  1.00  0.00    -0.107 OA 
ENDROOT
BRANCH   2   3
HETATM    3  C   UNL     1      -9.060   6.445  67.551  1.00  0.00    -0.114 A  
HETATM    4  C   UNL     1      -9.949   7.123  66.726  1.00  0.00    -0.278 A  
HETATM    5  C   UNL     1     -10.513   8.335  67.136  1.00  0.00    -0.386 A  
HETATM    6  C   UNL     1     -10.181   8.923  68.370  1.00  0.00    -0.231 A  
HETATM    7  C   UNL     1      -9.280   8.232  69.190  1.00  0.00    -0.151 A  
HETATM    8  C   UNL     1     -10.814  10.275  68.757  1.00  0.00    -0.265 C  
HETATM    9  C   UNL     1     -11.101  10.413  70.291  1.00  0.00    -0.307 C  
HETATM   10  C   UNL     1      -8.735   7.004  68.788  1.00  0.00    -0.127 A  
HETATM   11  C   UNL     1     -10.006  11.520  68.194  1.00  0.00    -0.192 C  
HETATM   12  O   UNL     1      -8.672  11.502  68.724  1.00  0.00    -0.292 OA 
HETATM   13  C   UNL     1      -9.913  11.551  66.648  1.00  0.00    -0.236 C  
HETATM   14  C   UNL     1     -10.607  12.887  68.607  1.00  0.00    -0.256 C  
HETATM   15  C   UNL     1     -11.990  13.130  68.005  1.00  0.00    -0.345 C  
HETATM   16  C   UNL     1     -11.960  13.041  66.481  1.00  0.00    -0.457 C  
HETATM   17  C   UNL     1     -11.272  11.775  65.976  1.00  0.00    -0.352 C  
HETATM   18  H   UNL     1      -8.188  12.247  68.387  1.00  0.00     0.000 HD 
BRANCH   9  19
HETATM   19  N   UNL     1     -11.967   9.370  70.886  1.00  0.00    -0.291 NA 
HETATM   20  C   UNL     1     -13.255   9.914  71.325  1.00  0.00    -0.383 C  
HETATM   21  C   UNL     1     -11.293   8.753  72.033  1.00  0.00    -0.371 C  
ENDBRANCH   9  19
ENDBRANCH   2   3
TORSDOF 2
ENDMDL
MODEL       40
REMARK 921   NORMALIZED FREE ENERGY PREDICTED BY IDOCK:   -4.61 KCAL/MOL
REMARK 922        TOTAL FREE ENERGY PREDICTED BY IDOCK:   -5.39 KCAL/MOL
REMARK 923 INTER-LIGAND FREE ENERGY PREDICTED BY IDOCK:   -5.17 KCAL/MOL
REMARK 924 INTRA-LIGAND FREE ENERGY PREDICTED BY IDOCK:   -0.22 KCAL/MOL
REMARK 927      BINDING AFFINITY PREDICTED BY RF-SCORE:    0.00 PKD
ROOT
HETATM    1  C   UNL     1     -10.610  19.405  66.477  1.00  0.00    -0.458 C  
HETATM    2  O   UNL     1     -10.802  18.329  65.567  1.00  0.00    -0.490 OA 
ENDROOT
BRANCH   2   3
HETATM    3  C   UNL     1     -10.357  17.100  65.970  1.00  0.00    -0.309 A  
HETATM    4  C   UNL     1     -10.429  15.926  65.230  1.00  0.00    -0.403 A  
HETATM    5  C   UNL     1      -9.917  14.731  65.747  1.00  0.00    -0.375 A  
HETATM    6  C   UNL     1      -9.347  14.666  67.031  1.00  0.00    -0.244 A  
HETATM    7  C   UNL     1      -9.286  15.856  67.767  1.00  0.00    -0.201 A  
HETATM    8  C   UNL     1      -8.824  13.315  67.559  1.00  0.00    -0.206 C  
HETATM    9  C   UNL     1      -7.552  13.449  68.464  1.00  0.00    -0.127 C  
HETATM   10  C   UNL     1      -9.777  17.058  67.238  1.00  0.00    -0.253 A  
HETATM   11  C   UNL     1      -9.954  12.444  68.254  1.00  0.00    -0.224 C  
HETATM   12  O   UNL     1     -10.490  13.164  69.374  1.00  0.00    -0.421 OA 
HETATM   13  C   UNL     1     -11.124  12.076  67.308  1.00  0.00    -0.341 C  
HETATM   14  C   UNL     1      -9.436  11.099  68.825  1.00  0.00    -0.173 C  
HETATM   15  C   UNL     1      -8.949  10.145  67.736  1.00  0.00    -0.129 C  
HETATM   16  C   UNL     1     -10.043   9.860  66.710  1.00  0.00    -0.292 C  
HETATM   17  C   UNL     1     -10.700  11.131  66.179  1.00  0.00    -0.285 C  
HETATM   18  H   UNL     1     -11.166  12.643  69.790  1.00  0.00     0.000 HD 
BRANCH   9  19
HETATM   19  N   UNL     1      -6.388  14.128  67.851  1.00  0.00    -0.153 NA 
HETATM   20  C   UNL     1      -5.319  13.184  67.516  1.00  0.00     0.004 C  
HETATM   21  C   UNL     1      -5.858  15.142  68.769  1.00  0.00    -0.089 C  
ENDBRANCH   9  19
ENDBRANCH   2   3
TORSDOF 2
ENDMDL
MODEL       41
REMARK 921   NORMALIZED FREE ENERGY PREDICTED BY IDOCK:   -4.61 KCAL/MOL
REMARK 922        TOTAL FREE ENERGY PREDICTED BY IDOCK:   -5.39 KCAL/MOL
REMARK 923 INTER-LIGAND FREE ENERGY PREDICTED BY IDOCK:   -5.16 KCAL/MOL
REMARK 924 INTRA-LIGAND FREE ENERGY PREDICTED BY IDOCK:   -0.23 KCAL/MOL
REMARK 927      BINDING AFFINITY PREDICTED BY RF-SCORE:    0.00 PKD
ROOT
HETATM    1  C   UNL     1      -9.842  17.868  68.520  1.00  0.00    -0.367 C  
HETATM    2  O   UNL     1     -10.826  16.995  69.062  1.00  0.00    -0.304 OA 
ENDROOT
BRANCH   2   3
HETATM    3  C   UNL     1     -10.650  15.659  68.836  1.00  0.00    -0.228 A  
HETATM    4  C   UNL     1      -9.437  15.027  68.592  1.00  0.00    -0.212 A  
HETATM    5  C   UNL     1      -9.386  13.642  68.397  1.00  0.00    -0.181 A  
HETATM    6  C   UNL     1     -10.549  12.852  68.406  1.00  0.00    -0.267 A  
HETATM    7  C   UNL     1     -11.765  13.503  68.649  1.00  0.00    -0.389 A  
HETATM    8  C   UNL     1     -10.434  11.335  68.157  1.00  0.00    -0.215 C  
HETATM    9  C   UNL     1     -11.466  10.488  68.977  1.00  0.00    -0.237 C  
HETATM   10  C   UNL     1     -11.812  14.887  68.870  1.00  0.00    -0.334 A  
HETATM   11  C   UNL     1     -10.454  10.958  66.616  1.00  0.00    -0.254 C  
HETATM   12  O   UNL     1     -11.691  11.397  66.033  1.00  0.00    -0.223 OA 
HETATM   13  C   UNL     1      -9.289  11.584  65.809  1.00  0.00    -0.238 C  
HETATM   14  C   UNL     1     -10.378   9.434  66.349  1.00  0.00    -0.237 C  
HETATM   15  C   UNL     1      -9.050   8.823  66.790  1.00  0.00    -0.180 C  
HETATM   16  C   UNL     1      -7.867   9.504  66.108  1.00  0.00    -0.100 C  
HETATM   17  C   UNL     1      -7.920  11.027  66.214  1.00  0.00    -0.148 C  
HETATM   18  H   UNL     1     -11.703  11.172  65.111  1.00  0.00     0.000 HD 
BRANCH   9  19
HETATM   19  N   UNL     1     -11.431  10.666  70.446  1.00  0.00    -0.325 NA 
HETATM   20  C   UNL     1     -10.727   9.567  71.113  1.00  0.00    -0.338 C  
HETATM   21  C   UNL     1     -12.797  10.748  70.975  1.00  0.00    -0.385 C  
ENDBRANCH   9  19
ENDBRANCH   2   3
TORSDOF 2
ENDMDL
MODEL       42
REMARK 921   NORMALIZED FREE ENERGY PREDICTED BY IDOCK:   -4.60 KCAL/MOL
REMARK 922        TOTAL FREE ENERGY PREDICTED BY IDOCK:   -5.38 KCAL/MOL
REMARK 923 INTER-LIGAND FREE ENERGY PREDICTED BY IDOCK:   -5.20 KCAL/MOL
REMARK 924 INTRA-LIGAND FREE ENERGY PREDICTED BY IDOCK:   -0.18 KCAL/MOL
REMARK 927      BINDING AFFINITY PREDICTED BY RF-SCORE:    0.00 PKD
ROOT
HETATM    1  C   UNL     1      -9.040   8.300  69.550  1.00  0.00    -0.154 C  
HETATM    2  O   UNL     1     -10.300   8.839  69.169  1.00  0.00    -0.210 OA 
ENDROOT
BRANCH   2   3
HETATM    3  C   UNL     1     -10.318  10.155  68.798  1.00  0.00    -0.194 A  
HETATM    4  C   UNL     1      -9.224  11.012  68.787  1.00  0.00    -0.167 A  
HETATM    5  C   UNL     1      -9.367  12.338  68.364  1.00  0.00    -0.162 A  
HETATM    6  C   UNL     1     -10.613  12.856  67.969  1.00  0.00    -0.238 A  
HETATM    7  C   UNL     1     -11.708  11.982  67.990  1.00  0.00    -0.398 A  
HETATM    8  C   UNL     1     -10.716  14.333  67.539  1.00  0.00    -0.270 C  
HETATM    9  C   UNL     1     -11.758  14.579  66.396  1.00  0.00    -0.363 C  
HETATM   10  C   UNL     1     -11.558  10.647  68.390  1.00  0.00    -0.269 A  
HETATM   11  C   UNL     1     -10.938  15.320  68.762  1.00  0.00    -0.260 C  
HETATM   12  O   UNL     1     -12.162  14.981  69.432  1.00  0.00    -0.472 OA 
HETATM   13  C   UNL     1      -9.790  15.286  69.802  1.00  0.00    -0.188 C  
HETATM   14  C   UNL     1     -11.081  16.804  68.343  1.00  0.00    -0.266 C  
HETATM   15  C   UNL     1      -9.802  17.371  67.729  1.00  0.00    -0.283 C  
HETATM   16  C   UNL     1      -8.618  17.237  68.682  1.00  0.00    -0.265 C  
HETATM   17  C   UNL     1      -8.469  15.826  69.246  1.00  0.00    -0.258 C  
HETATM   18  H   UNL     1     -12.295  15.571  70.164  1.00  0.00     0.000 HD 
BRANCH   9  19
HETATM   19  N   UNL     1     -11.553  13.803  65.152  1.00  0.00    -0.321 NA 
HETATM   20  C   UNL     1     -10.191  13.951  64.633  1.00  0.00    -0.247 C  
HETATM   21  C   UNL     1     -12.505  14.240  64.125  1.00  0.00    -0.218 C  
ENDBRANCH   9  19
ENDBRANCH   2   3
TORSDOF 2
ENDMDL
MODEL       43
REMARK 921   NORMALIZED FREE ENERGY PREDICTED BY IDOCK:   -4.60 KCAL/MOL
REMARK 922        TOTAL FREE ENERGY PREDICTED BY IDOCK:   -5.38 KCAL/MOL
REMARK 923 INTER-LIGAND FREE ENERGY PREDICTED BY IDOCK:   -5.13 KCAL/MOL
REMARK 924 INTRA-LIGAND FREE ENERGY PREDICTED BY IDOCK:   -0.25 KCAL/MOL
REMARK 927      BINDING AFFINITY PREDICTED BY RF-SCORE:    0.00 PKD
ROOT
HETATM    1  C   UNL     1      -6.002  10.836  70.503  1.00  0.00    -0.122 C  
HETATM    2  O   UNL     1      -6.242  12.116  69.930  1.00  0.00    -0.141 OA 
ENDROOT
BRANCH   2   3
HETATM    3  C   UNL     1      -7.120  12.164  68.884  1.00  0.00    -0.098 A  
HETATM    4  C   UNL     1      -7.468  13.300  68.164  1.00  0.00    -0.128 A  
HETATM    5  C   UNL     1      -8.366  13.215  67.095  1.00  0.00    -0.146 A  
HETATM    6  C   UNL     1      -8.968  11.997  66.733  1.00  0.00    -0.198 A  
HETATM    7  C   UNL     1      -8.612  10.860  67.469  1.00  0.00    -0.127 A  
HETATM    8  C   UNL     1      -9.972  11.969  65.564  1.00  0.00    -0.267 C  
HETATM    9  C   UNL     1      -9.914  10.648  64.722  1.00  0.00    -0.327 C  
HETATM   10  C   UNL     1      -7.692  10.943  68.524  1.00  0.00    -0.119 A  
HETATM   11  C   UNL     1     -11.455  12.316  66.012  1.00  0.00    -0.381 C  
HETATM   12  O   UNL     1     -11.897  11.356  66.982  1.00  0.00    -0.530 OA 
HETATM   13  C   UNL     1     -11.600  13.730  66.628  1.00  0.00    -0.392 C  
HETATM   14  C   UNL     1     -12.483  12.255  64.854  1.00  0.00    -0.327 C  
HETATM   15  C   UNL     1     -12.235  13.319  63.787  1.00  0.00    -0.508 C  
HETATM   16  C   UNL     1     -12.245  14.724  64.384  1.00  0.00    -0.447 C  
HETATM   17  C   UNL     1     -11.347  14.850  65.613  1.00  0.00    -0.325 C  
HETATM   18  H   UNL     1     -12.784  11.563  67.250  1.00  0.00     0.000 HD 
BRANCH   9  19
HETATM   19  N   UNL     1      -8.596  10.308  64.139  1.00  0.00    -0.183 NA 
HETATM   20  C   UNL     1      -8.505  10.696  62.729  1.00  0.00    -0.196 C  
HETATM   21  C   UNL     1      -8.354   8.866  64.254  1.00  0.00    -0.169 C  
ENDBRANCH   9  19
ENDBRANCH   2   3
TORSDOF 2
ENDMDL
MODEL       44
REMARK 921   NORMALIZED FREE ENERGY PREDICTED BY IDOCK:   -4.56 KCAL/MOL
REMARK 922        TOTAL FREE ENERGY PREDICTED BY IDOCK:   -5.34 KCAL/MOL
REMARK 923 INTER-LIGAND FREE ENERGY PREDICTED BY IDOCK:   -5.11 KCAL/MOL
REMARK 924 INTRA-LIGAND FREE ENERGY PREDICTED BY IDOCK:   -0.23 KCAL/MOL
REMARK 927      BINDING AFFINITY PREDICTED BY RF-SCORE:    0.00 PKD
ROOT
HETATM    1  C   UNL     1     -10.553   7.683  67.058  1.00  0.00    -0.336 C  
HETATM    2  O   UNL     1     -10.310   8.900  66.363  1.00  0.00    -0.259 OA 
ENDROOT
BRANCH   2   3
HETATM    3  C   UNL     1     -10.356  10.048  67.104  1.00  0.00    -0.241 A  
HETATM    4  C   UNL     1     -10.571  10.124  68.475  1.00  0.00    -0.245 A  
HETATM    5  C   UNL     1     -10.573  11.363  69.124  1.00  0.00    -0.196 A  
HETATM    6  C   UNL     1     -10.393  12.566  68.419  1.00  0.00    -0.237 A  
HETATM    7  C   UNL     1     -10.181  12.475  67.037  1.00  0.00    -0.231 A  
HETATM    8  C   UNL     1     -10.433  13.904  69.184  1.00  0.00    -0.074 C  
HETATM    9  C   UNL     1      -9.450  14.981  68.610  1.00  0.00    -0.212 C  
HETATM   10  C   UNL     1     -10.154  11.231  66.392  1.00  0.00    -0.260 A  
HETATM   11  C   UNL     1     -11.903  14.478  69.351  1.00  0.00    -0.325 C  
HETATM   12  O   UNL     1     -12.476  14.706  68.055  1.00  0.00    -0.595 OA 
HETATM   13  C   UNL     1     -12.848  13.538  70.141  1.00  0.00     0.075 C  
HETATM   14  C   UNL     1     -11.957  15.842  70.084  1.00  0.00    -0.364 C  
HETATM   15  C   UNL     1     -11.505  15.747  71.540  1.00  0.00    -0.504 C  
HETATM   16  C   UNL     1     -12.336  14.732  72.320  1.00  0.00    -0.403 C  
HETATM   17  C   UNL     1     -12.441  13.385  71.610  1.00  0.00    -0.189 C  
HETATM   18  H   UNL     1     -13.356  15.049  68.155  1.00  0.00     0.000 HD 
BRANCH   9  19
HETATM   19  N   UNL     1      -8.024  14.590  68.544  1.00  0.00    -0.136 NA 
HETATM   20  C   UNL     1      -7.244  15.181  69.634  1.00  0.00    -0.194 C  
HETATM   21  C   UNL     1      -7.447  15.009  67.262  1.00  0.00    -0.181 C  
ENDBRANCH   9  19
ENDBRANCH   2   3
TORSDOF 2
ENDMDL
MODEL       45
REMARK 921   NORMALIZED FREE ENERGY PREDICTED BY IDOCK:   -4.56 KCAL/MOL
REMARK 922        TOTAL FREE ENERGY PREDICTED BY IDOCK:   -5.34 KCAL/MOL
REMARK 923 INTER-LIGAND FREE ENERGY PREDICTED BY IDOCK:   -5.12 KCAL/MOL
REMARK 924 INTRA-LIGAND FREE ENERGY PREDICTED BY IDOCK:   -0.22 KCAL/MOL
REMARK 927      BINDING AFFINITY PREDICTED BY RF-SCORE:    0.00 PKD
ROOT
HETATM    1  C   UNL     1      -9.888  18.676  68.258  1.00  0.00    -0.371 C  
HETATM    2  O   UNL     1     -10.873  17.653  68.185  1.00  0.00    -0.349 OA 
ENDROOT
BRANCH   2   3
HETATM    3  C   UNL     1     -10.443  16.416  67.791  1.00  0.00    -0.300 A  
HETATM    4  C   UNL     1     -10.040  16.064  66.509  1.00  0.00    -0.297 A  
HETATM    5  C   UNL     1      -9.599  14.765  66.236  1.00  0.00    -0.339 A  
HETATM    6  C   UNL     1      -9.578  13.769  67.228  1.00  0.00    -0.237 A  
HETATM    7  C   UNL     1      -9.991  14.136  68.515  1.00  0.00    -0.235 A  
HETATM    8  C   UNL     1      -9.108  12.347  66.863  1.00  0.00    -0.211 C  
HETATM    9  C   UNL     1      -8.330  11.630  68.019  1.00  0.00    -0.148 C  
HETATM   10  C   UNL     1     -10.409  15.445  68.793  1.00  0.00    -0.229 A  
HETATM   11  C   UNL     1     -10.274  11.439  66.285  1.00  0.00    -0.233 C  
HETATM   12  O   UNL     1     -11.310  11.310  67.270  1.00  0.00    -0.371 OA 
HETATM   13  C   UNL     1     -10.908  11.997  64.986  1.00  0.00    -0.351 C  
HETATM   14  C   UNL     1      -9.827   9.994  65.948  1.00  0.00    -0.330 C  
HETATM   15  C   UNL     1      -8.812   9.941  64.807  1.00  0.00    -0.232 C  
HETATM   16  C   UNL     1      -9.358  10.599  63.542  1.00  0.00    -0.319 C  
HETATM   17  C   UNL     1      -9.936  11.988  63.801  1.00  0.00    -0.368 C  
HETATM   18  H   UNL     1     -12.008  10.766  66.925  1.00  0.00     0.000 HD 
BRANCH   9  19
HETATM   19  N   UNL     1      -7.135  12.337  68.534  1.00  0.00    -0.093 NA 
HETATM   20  C   UNL     1      -6.014  12.272  67.593  1.00  0.00    -0.119 C  
HETATM   21  C   UNL     1      -6.719  11.752  69.813  1.00  0.00     0.016 C  
ENDBRANCH   9  19
ENDBRANCH   2   3
TORSDOF 2
ENDMDL
MODEL       46
REMARK 921   NORMALIZED FREE ENERGY PREDICTED BY IDOCK:   -4.54 KCAL/MOL
REMARK 922        TOTAL FREE ENERGY PREDICTED BY IDOCK:   -5.31 KCAL/MOL
REMARK 923 INTER-LIGAND FREE ENERGY PREDICTED BY IDOCK:   -5.09 KCAL/MOL
REMARK 924 INTRA-LIGAND FREE ENERGY PREDICTED BY IDOCK:   -0.22 KCAL/MOL
REMARK 927      BINDING AFFINITY PREDICTED BY RF-SCORE:    0.00 PKD
ROOT
HETATM    1  C   UNL     1      -7.542   7.082  62.981  1.00  0.00    -0.104 C  
HETATM    2  O   UNL     1      -6.897   8.204  63.572  1.00  0.00    -0.075 OA 
ENDROOT
BRANCH   2   3
HETATM    3  C   UNL     1      -7.687   9.053  64.296  1.00  0.00    -0.123 A  
HETATM    4  C   UNL     1      -8.978   9.445  63.966  1.00  0.00    -0.174 A  
HETATM    5  C   UNL     1      -9.694  10.306  64.804  1.00  0.00    -0.397 A  
HETATM    6  C   UNL     1      -9.129  10.827  65.982  1.00  0.00    -0.204 A  
HETATM    7  C   UNL     1      -7.825  10.428  66.300  1.00  0.00    -0.132 A  
HETATM    8  C   UNL     1      -9.956  11.794  66.853  1.00  0.00    -0.220 C  
HETATM    9  C   UNL     1      -9.687  11.637  68.388  1.00  0.00    -0.199 C  
HETATM   10  C   UNL     1      -7.118   9.545  65.472  1.00  0.00    -0.090 A  
HETATM   11  C   UNL     1      -9.834  13.306  66.385  1.00  0.00    -0.281 C  
HETATM   12  O   UNL     1      -8.462  13.721  66.465  1.00  0.00    -0.424 OA 
HETATM   13  C   UNL     1     -10.331  13.549  64.938  1.00  0.00    -0.395 C  
HETATM   14  C   UNL     1     -10.629  14.296  67.274  1.00  0.00    -0.278 C  
HETATM   15  C   UNL     1     -12.139  14.079  67.196  1.00  0.00    -0.436 C  
HETATM   16  C   UNL     1     -12.646  14.185  65.760  1.00  0.00    -0.475 C  
HETATM   17  C   UNL     1     -11.840  13.331  64.784  1.00  0.00    -0.411 C  
HETATM   18  H   UNL     1      -8.389  14.626  66.186  1.00  0.00     0.000 HD 
BRANCH   9  19
HETATM   19  N   UNL     1      -9.910  10.286  68.951  1.00  0.00    -0.185 NA 
HETATM   20  C   UNL     1     -11.160  10.210  69.711  1.00  0.00    -0.279 C  
HETATM   21  C   UNL     1      -8.794   9.918  69.830  1.00  0.00    -0.211 C  
ENDBRANCH   9  19
ENDBRANCH   2   3
TORSDOF 2
ENDMDL
MODEL       47
REMARK 921   NORMALIZED FREE ENERGY PREDICTED BY IDOCK:   -4.53 KCAL/MOL
REMARK 922        TOTAL FREE ENERGY PREDICTED BY IDOCK:   -5.31 KCAL/MOL
REMARK 923 INTER-LIGAND FREE ENERGY PREDICTED BY IDOCK:   -5.08 KCAL/MOL
REMARK 924 INTRA-LIGAND FREE ENERGY PREDICTED BY IDOCK:   -0.22 KCAL/MOL
REMARK 927      BINDING AFFINITY PREDICTED BY RF-SCORE:    0.00 PKD
ROOT
HETATM    1  C   UNL     1     -10.518  12.518  63.855  1.00  0.00    -0.434 C  
HETATM    2  O   UNL     1     -10.163  12.705  65.220  1.00  0.00    -0.286 OA 
ENDROOT
BRANCH   2   3
HETATM    3  C   UNL     1     -10.022  11.575  65.977  1.00  0.00    -0.224 A  
HETATM    4  C   UNL     1      -8.899  10.757  66.018  1.00  0.00    -0.192 A  
HETATM    5  C   UNL     1      -8.869   9.635  66.853  1.00  0.00    -0.143 A  
HETATM    6  C   UNL     1      -9.972   9.279  67.649  1.00  0.00    -0.245 A  
HETATM    7  C   UNL     1     -11.099  10.110  67.595  1.00  0.00    -0.275 A  
HETATM    8  C   UNL     1      -9.893   8.016  68.530  1.00  0.00    -0.185 C  
HETATM    9  C   UNL     1     -10.658   8.154  69.890  1.00  0.00    -0.239 C  
HETATM   10  C   UNL     1     -11.118  11.248  66.776  1.00  0.00    -0.314 A  
HETATM   11  C   UNL     1     -10.303   6.694  67.754  1.00  0.00    -0.196 C  
HETATM   12  O   UNL     1     -11.657   6.812  67.293  1.00  0.00    -0.726 OA 
HETATM   13  C   UNL     1      -9.401   6.386  66.533  1.00  0.00    -0.181 C  
HETATM   14  C   UNL     1     -10.265   5.420  68.635  1.00  0.00    -0.246 C  
HETATM   15  C   UNL     1      -8.854   5.068  69.103  1.00  0.00    -0.114 C  
HETATM   16  C   UNL     1      -7.903   4.882  67.924  1.00  0.00    -0.086 C  
HETATM   17  C   UNL     1      -7.962   6.040  66.930  1.00  0.00    -0.102 C  
HETATM   18  H   UNL     1     -11.903   6.021  66.829  1.00  0.00     0.000 HD 
BRANCH   9  19
HETATM   19  N   UNL     1     -10.247   9.283  70.755  1.00  0.00    -0.263 NA 
HETATM   20  C   UNL     1      -9.403   8.840  71.868  1.00  0.00    -0.273 C  
HETATM   21  C   UNL     1     -11.432   9.959  71.294  1.00  0.00    -0.361 C  
ENDBRANCH   9  19
ENDBRANCH   2   3
TORSDOF 2
ENDMDL
MODEL       48
REMARK 921   NORMALIZED FREE ENERGY PREDICTED BY IDOCK:   -4.53 KCAL/MOL
REMARK 922        TOTAL FREE ENERGY PREDICTED BY IDOCK:   -5.30 KCAL/MOL
REMARK 923 INTER-LIGAND FREE ENERGY PREDICTED BY IDOCK:   -5.08 KCAL/MOL
REMARK 924 INTRA-LIGAND FREE ENERGY PREDICTED BY IDOCK:   -0.22 KCAL/MOL
REMARK 927      BINDING AFFINITY PREDICTED BY RF-SCORE:    0.00 PKD
ROOT
HETATM    1  C   UNL     1      -5.206  10.114  68.965  1.00  0.00    -0.035 C  
HETATM    2  O   UNL     1      -5.536  11.456  69.303  1.00  0.00    -0.047 OA 
ENDROOT
BRANCH   2   3
HETATM    3  C   UNL     1      -6.725  11.934  68.826  1.00  0.00    -0.088 A  
HETATM    4  C   UNL     1      -7.743  11.171  68.268  1.00  0.00    -0.116 A  
HETATM    5  C   UNL     1      -8.927  11.778  67.834  1.00  0.00    -0.180 A  
HETATM    6  C   UNL     1      -9.115  13.169  67.916  1.00  0.00    -0.207 A  
HETATM    7  C   UNL     1      -8.079  13.926  68.477  1.00  0.00    -0.133 A  
HETATM    8  C   UNL     1     -10.430  13.786  67.397  1.00  0.00    -0.256 C  
HETATM    9  C   UNL     1     -10.912  15.021  68.231  1.00  0.00    -0.271 C  
HETATM   10  C   UNL     1      -6.903  13.314  68.934  1.00  0.00    -0.103 A  
HETATM   11  C   UNL     1     -10.393  14.102  65.842  1.00  0.00    -0.316 C  
HETATM   12  O   UNL     1      -9.341  15.041  65.571  1.00  0.00    -0.443 OA 
HETATM   13  C   UNL     1     -10.164  12.849  64.960  1.00  0.00    -0.289 C  
HETATM   14  C   UNL     1     -11.693  14.758  65.312  1.00  0.00    -0.311 C  
HETATM   15  C   UNL     1     -12.902  13.828  65.400  1.00  0.00    -0.455 C  
HETATM   16  C   UNL     1     -12.661  12.523  64.645  1.00  0.00    -0.507 C  
HETATM   17  C   UNL     1     -11.335  11.863  65.015  1.00  0.00    -0.333 C  
HETATM   18  H   UNL     1      -9.319  15.231  64.641  1.00  0.00     0.000 HD 
BRANCH   9  19
HETATM   19  N   UNL     1     -11.113  14.789  69.679  1.00  0.00    -0.268 NA 
HETATM   20  C   UNL     1     -12.214  13.856  69.936  1.00  0.00    -0.333 C  
HETATM   21  C   UNL     1     -11.395  16.059  70.357  1.00  0.00    -0.391 C  
ENDBRANCH   9  19
ENDBRANCH   2   3
TORSDOF 2
ENDMDL
MODEL       49
REMARK 921   NORMALIZED FREE ENERGY PREDICTED BY IDOCK:   -4.51 KCAL/MOL
REMARK 922        TOTAL FREE ENERGY PREDICTED BY IDOCK:   -5.28 KCAL/MOL
REMARK 923 INTER-LIGAND FREE ENERGY PREDICTED BY IDOCK:   -5.09 KCAL/MOL
REMARK 924 INTRA-LIGAND FREE ENERGY PREDICTED BY IDOCK:   -0.19 KCAL/MOL
REMARK 927      BINDING AFFINITY PREDICTED BY RF-SCORE:    0.00 PKD
ROOT
HETATM    1  C   UNL     1     -10.451   3.934  64.575  1.00  0.00    -0.207 C  
HETATM    2  O   UNL     1      -9.878   3.502  65.804  1.00  0.00    -0.104 OA 
ENDROOT
BRANCH   2   3
HETATM    3  C   UNL     1      -9.967   4.368  66.858  1.00  0.00    -0.177 A  
HETATM    4  C   UNL     1      -9.347   4.214  68.092  1.00  0.00    -0.212 A  
HETATM    5  C   UNL     1      -9.498   5.186  69.087  1.00  0.00    -0.188 A  
HETATM    6  C   UNL     1     -10.300   6.324  68.891  1.00  0.00    -0.246 A  
HETATM    7  C   UNL     1     -10.923   6.464  67.644  1.00  0.00    -0.441 A  
HETATM    8  C   UNL     1     -10.452   7.347  70.034  1.00  0.00    -0.233 C  
HETATM    9  C   UNL     1     -10.570   8.828  69.535  1.00  0.00    -0.219 C  
HETATM   10  C   UNL     1     -10.750   5.502  66.639  1.00  0.00    -0.332 A  
HETATM   11  C   UNL     1     -11.613   6.974  71.049  1.00  0.00    -0.320 C  
HETATM   12  O   UNL     1     -12.864   6.925  70.346  1.00  0.00    -0.520 OA 
HETATM   13  C   UNL     1     -11.402   5.612  71.758  1.00  0.00    -0.181 C  
HETATM   14  C   UNL     1     -11.805   8.012  72.183  1.00  0.00    -0.401 C  
HETATM   15  C   UNL     1     -10.601   8.092  73.120  1.00  0.00    -0.226 C  
HETATM   16  C   UNL     1     -10.285   6.734  73.741  1.00  0.00    -0.378 C  
HETATM   17  C   UNL     1     -10.197   5.616  72.704  1.00  0.00    -0.216 C  
HETATM   18  H   UNL     1     -13.559   6.701  70.953  1.00  0.00     0.000 HD 
BRANCH   9  19
HETATM   19  N   UNL     1      -9.458   9.319  68.690  1.00  0.00    -0.145 NA 
HETATM   20  C   UNL     1      -8.662  10.341  69.375  1.00  0.00    -0.156 C  
HETATM   21  C   UNL     1      -9.985   9.881  67.443  1.00  0.00    -0.189 C  
ENDBRANCH   9  19
ENDBRANCH   2   3
TORSDOF 2
ENDMDL
MODEL       50
REMARK 921   NORMALIZED FREE ENERGY PREDICTED BY IDOCK:   -4.49 KCAL/MOL
REMARK 922        TOTAL FREE ENERGY PREDICTED BY IDOCK:   -5.26 KCAL/MOL
REMARK 923 INTER-LIGAND FREE ENERGY PREDICTED BY IDOCK:   -5.09 KCAL/MOL
REMARK 924 INTRA-LIGAND FREE ENERGY PREDICTED BY IDOCK:   -0.17 KCAL/MOL
REMARK 927      BINDING AFFINITY PREDICTED BY RF-SCORE:    0.00 PKD
ROOT
HETATM    1  C   UNL     1     -10.374   6.777  69.308  1.00  0.00    -0.200 C  
HETATM    2  O   UNL     1      -9.828   7.967  69.865  1.00  0.00    -0.182 OA 
ENDROOT
BRANCH   2   3
HETATM    3  C   UNL     1     -10.086   9.131  69.196  1.00  0.00    -0.194 A  
HETATM    4  C   UNL     1     -11.156   9.358  68.339  1.00  0.00     0.019 A  
HETATM    5  C   UNL     1     -11.323  10.606  67.729  1.00  0.00    -0.320 A  
HETATM    6  C   UNL     1     -10.409  11.654  67.932  1.00  0.00    -0.206 A  
HETATM    7  C   UNL     1      -9.333  11.411  68.794  1.00  0.00    -0.115 A  
HETATM    8  C   UNL     1     -10.630  12.999  67.211  1.00  0.00    -0.247 C  
HETATM    9  C   UNL     1     -10.188  14.241  68.058  1.00  0.00    -0.226 C  
HETATM   10  C   UNL     1      -9.180  10.168  69.425  1.00  0.00    -0.229 A  
HETATM   11  C   UNL     1     -10.006  13.029  65.752  1.00  0.00    -0.254 C  
HETATM   12  O   UNL     1      -8.589  12.813  65.835  1.00  0.00    -0.122 OA 
HETATM   13  C   UNL     1     -10.604  11.963  64.800  1.00  0.00    -0.346 C  
HETATM   14  C   UNL     1     -10.185  14.387  65.028  1.00  0.00    -0.406 C  
HETATM   15  C   UNL     1     -11.649  14.711  64.735  1.00  0.00    -0.418 C  
HETATM   16  C   UNL     1     -12.309  13.615  63.902  1.00  0.00    -0.375 C  
HETATM   17  C   UNL     1     -12.080  12.218  64.476  1.00  0.00    -0.462 C  
HETATM   18  H   UNL     1      -8.215  12.830  64.962  1.00  0.00     0.000 HD 
BRANCH   9  19
HETATM   19  N   UNL     1     -10.825  14.380  69.388  1.00  0.00    -0.233 NA 
HETATM   20  C   UNL     1     -12.285  14.302  69.305  1.00  0.00    -0.252 C  
HETATM   21  C   UNL     1     -10.448  15.662  69.993  1.00  0.00    -0.323 C  
ENDBRANCH   9  19
ENDBRANCH   2   3
TORSDOF 2
ENDMDL
MODEL       51
REMARK 921   NORMALIZED FREE ENERGY PREDICTED BY IDOCK:   -4.46 KCAL/MOL
REMARK 922        TOTAL FREE ENERGY PREDICTED BY IDOCK:   -5.22 KCAL/MOL
REMARK 923 INTER-LIGAND FREE ENERGY PREDICTED BY IDOCK:   -4.98 KCAL/MOL
REMARK 924 INTRA-LIGAND FREE ENERGY PREDICTED BY IDOCK:   -0.24 KCAL/MOL
REMARK 927      BINDING AFFINITY PREDICTED BY RF-SCORE:    0.00 PKD
ROOT
HETATM    1  C   UNL     1      -5.937  11.892  69.826  1.00  0.00    -0.132 C  
HETATM    2  O   UNL     1      -5.480  12.809  68.839  1.00  0.00    -0.065 OA 
ENDROOT
BRANCH   2   3
HETATM    3  C   UNL     1      -6.383  13.739  68.403  1.00  0.00    -0.099 A  
HETATM    4  C   UNL     1      -6.086  14.878  67.664  1.00  0.00    -0.098 A  
HETATM    5  C   UNL     1      -7.107  15.744  67.256  1.00  0.00    -0.245 A  
HETATM    6  C   UNL     1      -8.450  15.515  67.602  1.00  0.00    -0.177 A  
HETATM    7  C   UNL     1      -8.735  14.366  68.351  1.00  0.00    -0.180 A  
HETATM    8  C   UNL     1      -9.528  16.519  67.149  1.00  0.00    -0.246 C  
HETATM    9  C   UNL     1     -10.901  15.848  66.803  1.00  0.00    -0.228 C  
HETATM   10  C   UNL     1      -7.714  13.486  68.738  1.00  0.00    -0.044 A  
HETATM   11  C   UNL     1      -9.704  17.735  68.154  1.00  0.00    -0.313 C  
HETATM   12  O   UNL     1     -10.095  17.236  69.442  1.00  0.00    -0.215 OA 
HETATM   13  C   UNL     1      -8.419  18.583  68.332  1.00  0.00    -0.352 C  
HETATM   14  C   UNL     1     -10.811  18.734  67.732  1.00  0.00    -0.333 C  
HETATM   15  C   UNL     1     -10.483  19.465  66.432  1.00  0.00    -0.581 C  
HETATM   16  C   UNL     1      -9.154  20.210  66.529  1.00  0.00    -0.411 C  
HETATM   17  C   UNL     1      -8.021  19.332  67.056  1.00  0.00    -0.277 C  
HETATM   18  H   UNL     1     -10.201  17.964  70.044  1.00  0.00     0.000 HD 
BRANCH   9  19
HETATM   19  N   UNL     1     -10.864  14.791  65.767  1.00  0.00    -0.318 NA 
HETATM   20  C   UNL     1     -11.342  15.279  64.471  1.00  0.00    -0.300 C  
HETATM   21  C   UNL     1     -11.689  13.651  66.183  1.00  0.00    -0.364 C  
ENDBRANCH   9  19
ENDBRANCH   2   3
TORSDOF 2
ENDMDL
MODEL       52
REMARK 921   NORMALIZED FREE ENERGY PREDICTED BY IDOCK:   -4.44 KCAL/MOL
REMARK 922        TOTAL FREE ENERGY PREDICTED BY IDOCK:   -5.21 KCAL/MOL
REMARK 923 INTER-LIGAND FREE ENERGY PREDICTED BY IDOCK:   -4.97 KCAL/MOL
REMARK 924 INTRA-LIGAND FREE ENERGY PREDICTED BY IDOCK:   -0.23 KCAL/MOL
REMARK 927      BINDING AFFINITY PREDICTED BY RF-SCORE:    0.00 PKD
ROOT
HETATM    1  C   UNL     1      -9.004  11.271  62.533  1.00  0.00    -0.233 C  
HETATM    2  O   UNL     1      -9.594  12.022  63.587  1.00  0.00    -0.227 OA 
ENDROOT
BRANCH   2   3
HETATM    3  C   UNL     1      -9.822  11.358  64.760  1.00  0.00    -0.259 A  
HETATM    4  C   UNL     1     -11.016  11.344  65.470  1.00  0.00    -0.248 A  
HETATM    5  C   UNL     1     -11.130  10.605  66.652  1.00  0.00    -0.053 A  
HETATM    6  C   UNL     1     -10.044   9.883  67.178  1.00  0.00    -0.270 A  
HETATM    7  C   UNL     1      -8.844   9.909  66.455  1.00  0.00    -0.159 A  
HETATM    8  C   UNL     1     -10.220   9.108  68.499  1.00  0.00    -0.223 C  
HETATM    9  C   UNL     1      -9.406   7.771  68.552  1.00  0.00    -0.147 C  
HETATM   10  C   UNL     1      -8.739  10.630  65.257  1.00  0.00    -0.198 A  
HETATM   11  C   UNL     1      -9.962  10.006  69.782  1.00  0.00    -0.241 C  
HETATM   12  O   UNL     1      -8.616  10.505  69.752  1.00  0.00    -0.387 OA 
HETATM   13  C   UNL     1     -10.924  11.215  69.896  1.00  0.00    -0.162 C  
HETATM   14  C   UNL     1     -10.097   9.233  71.118  1.00  0.00    -0.374 C  
HETATM   15  C   UNL     1     -11.521   8.745  71.376  1.00  0.00    -0.366 C  
HETATM   16  C   UNL     1     -12.519   9.900  71.368  1.00  0.00    -0.495 C  
HETATM   17  C   UNL     1     -12.378  10.795  70.139  1.00  0.00    -0.401 C  
HETATM   18  H   UNL     1      -8.461  11.043  70.519  1.00  0.00     0.000 HD 
BRANCH   9  19
HETATM   19  N   UNL     1      -9.680   6.800  67.468  1.00  0.00    -0.125 NA 
HETATM   20  C   UNL     1     -10.991   6.164  67.623  1.00  0.00    -0.302 C  
HETATM   21  C   UNL     1      -8.645   5.761  67.451  1.00  0.00    -0.105 C  
ENDBRANCH   9  19
ENDBRANCH   2   3
TORSDOF 2
ENDMDL
MODEL       53
REMARK 921   NORMALIZED FREE ENERGY PREDICTED BY IDOCK:   -4.43 KCAL/MOL
REMARK 922        TOTAL FREE ENERGY PREDICTED BY IDOCK:   -5.20 KCAL/MOL
REMARK 923 INTER-LIGAND FREE ENERGY PREDICTED BY IDOCK:   -4.95 KCAL/MOL
REMARK 924 INTRA-LIGAND FREE ENERGY PREDICTED BY IDOCK:   -0.24 KCAL/MOL
REMARK 927      BINDING AFFINITY PREDICTED BY RF-SCORE:    0.00 PKD
ROOT
HETATM    1  C   UNL     1     -10.715   5.827  69.778  1.00  0.00    -0.348 C  
HETATM    2  O   UNL     1     -11.151   7.014  70.431  1.00  0.00    -0.262 OA 
ENDROOT
BRANCH   2   3
HETATM    3  C   UNL     1     -10.841   8.197  69.821  1.00  0.00    -0.190 A  
HETATM    4  C   UNL     1     -10.661   9.419  70.458  1.00  0.00    -0.331 A  
HETATM    5  C   UNL     1     -10.322  10.559  69.722  1.00  0.00    -0.211 A  
HETATM    6  C   UNL     1     -10.185  10.520  68.323  1.00  0.00    -0.185 A  
HETATM    7  C   UNL     1     -10.374   9.283  67.693  1.00  0.00    -0.311 A  
HETATM    8  C   UNL     1      -9.838  11.815  67.561  1.00  0.00    -0.195 C  
HETATM    9  C   UNL     1      -8.917  11.578  66.316  1.00  0.00    -0.196 C  
HETATM   10  C   UNL     1     -10.688   8.136  68.435  1.00  0.00    -0.066 A  
HETATM   11  C   UNL     1     -11.118  12.678  67.193  1.00  0.00    -0.280 C  
HETATM   12  O   UNL     1     -11.989  11.905  66.353  1.00  0.00    -0.572 OA 
HETATM   13  C   UNL     1     -11.926  13.147  68.429  1.00  0.00    -0.324 C  
HETATM   14  C   UNL     1     -10.790  13.964  66.393  1.00  0.00    -0.291 C  
HETATM   15  C   UNL     1      -9.972  14.970  67.202  1.00  0.00    -0.237 C  
HETATM   16  C   UNL     1     -10.684  15.358  68.495  1.00  0.00    -0.256 C  
HETATM   17  C   UNL     1     -11.156  14.148  69.296  1.00  0.00    -0.286 C  
HETATM   18  H   UNL     1     -12.755  12.422  66.132  1.00  0.00     0.000 HD 
BRANCH   9  19
HETATM   19  N   UNL     1      -7.628  10.901  66.580  1.00  0.00    -0.133 NA 
HETATM   20  C   UNL     1      -6.612  11.833  67.076  1.00  0.00    -0.140 C  
HETATM   21  C   UNL     1      -7.134  10.265  65.354  1.00  0.00    -0.139 C  
ENDBRANCH   9  19
ENDBRANCH   2   3
TORSDOF 2
ENDMDL
MODEL       54
REMARK 921   NORMALIZED FREE ENERGY PREDICTED BY IDOCK:   -4.40 KCAL/MOL
REMARK 922        TOTAL FREE ENERGY PREDICTED BY IDOCK:   -5.16 KCAL/MOL
REMARK 923 INTER-LIGAND FREE ENERGY PREDICTED BY IDOCK:   -5.01 KCAL/MOL
REMARK 924 INTRA-LIGAND FREE ENERGY PREDICTED BY IDOCK:   -0.15 KCAL/MOL
REMARK 927      BINDING AFFINITY PREDICTED BY RF-SCORE:    0.00 PKD
ROOT
HETATM    1  C   UNL     1     -11.867  16.001  73.150  1.00  0.00    -0.379 C  
HETATM    2  O   UNL     1     -11.748  16.570  71.852  1.00  0.00    -0.458 OA 
ENDROOT
BRANCH   2   3
HETATM    3  C   UNL     1     -11.582  15.697  70.813  1.00  0.00    -0.382 A  
HETATM    4  C   UNL     1     -10.537  15.711  69.897  1.00  0.00    -0.328 A  
HETATM    5  C   UNL     1     -10.467  14.746  68.887  1.00  0.00    -0.249 A  
HETATM    6  C   UNL     1     -11.455  13.757  68.742  1.00  0.00    -0.338 A  
HETATM    7  C   UNL     1     -12.506  13.757  69.669  1.00  0.00    -0.176 A  
HETATM    8  C   UNL     1     -11.340  12.736  67.593  1.00  0.00    -0.359 C  
HETATM    9  C   UNL     1     -11.868  11.310  67.970  1.00  0.00    -0.170 C  
HETATM   10  C   UNL     1     -12.561  14.710  70.696  1.00  0.00    -0.419 A  
HETATM   11  C   UNL     1     -11.973  13.259  66.235  1.00  0.00    -0.417 C  
HETATM   12  O   UNL     1     -13.369  13.529  66.432  1.00  0.00     0.188 OA 
HETATM   13  C   UNL     1     -11.302  14.546  65.694  1.00  0.00    -0.336 C  
HETATM   14  C   UNL     1     -11.900  12.229  65.079  1.00  0.00    -0.412 C  
HETATM   15  C   UNL     1     -10.466  11.929  64.646  1.00  0.00    -0.340 C  
HETATM   16  C   UNL     1      -9.731  13.199  64.225  1.00  0.00     0.410 C  
HETATM   17  C   UNL     1      -9.852  14.320  65.255  1.00  0.00    -0.204 C  
HETATM   18  H   UNL     1     -13.748  13.841  65.619  1.00  0.00     0.000 HD 
BRANCH   9  19
HETATM   19  N   UNL     1     -11.236  10.673  69.148  1.00  0.00    -0.246 NA 
HETATM   20  C   UNL     1     -10.480   9.473  68.781  1.00  0.00    -0.219 C  
HETATM   21  C   UNL     1     -12.261  10.310  70.132  1.00  0.00    -0.176 C  
ENDBRANCH   9  19
ENDBRANCH   2   3
TORSDOF 2
ENDMDL
MODEL       55
REMARK 921   NORMALIZED FREE ENERGY PREDICTED BY IDOCK:   -4.40 KCAL/MOL
REMARK 922        TOTAL FREE ENERGY PREDICTED BY IDOCK:   -5.16 KCAL/MOL
REMARK 923 INTER-LIGAND FREE ENERGY PREDICTED BY IDOCK:   -4.93 KCAL/MOL
REMARK 924 INTRA-LIGAND FREE ENERGY PREDICTED BY IDOCK:   -0.23 KCAL/MOL
REMARK 927      BINDING AFFINITY PREDICTED BY RF-SCORE:    0.00 PKD
ROOT
HETATM    1  C   UNL     1     -14.362   8.565  72.167  1.00  0.00    -0.436 C  
HETATM    2  O   UNL     1     -13.089   8.982  72.648  1.00  0.00    -0.426 OA 
ENDROOT
BRANCH   2   3
HETATM    3  C   UNL     1     -12.124   9.210  71.708  1.00  0.00    -0.376 A  
HETATM    4  C   UNL     1     -12.159  10.194  70.726  1.00  0.00    -0.438 A  
HETATM    5  C   UNL     1     -11.094  10.341  69.832  1.00  0.00    -0.362 A  
HETATM    6  C   UNL     1      -9.975   9.490  69.870  1.00  0.00    -0.259 A  
HETATM    7  C   UNL     1      -9.954   8.500  70.861  1.00  0.00    -0.237 A  
HETATM    8  C   UNL     1      -8.844   9.682  68.841  1.00  0.00    -0.136 C  
HETATM    9  C   UNL     1      -7.419   9.375  69.415  1.00  0.00    -0.080 C  
HETATM   10  C   UNL     1     -11.011   8.370  71.773  1.00  0.00    -0.359 A  
HETATM   11  C   UNL     1      -9.109   8.912  67.479  1.00  0.00    -0.133 C  
HETATM   12  O   UNL     1      -9.218   7.505  67.740  1.00  0.00    -0.135 OA 
HETATM   13  C   UNL     1     -10.395   9.371  66.748  1.00  0.00    -0.303 C  
HETATM   14  C   UNL     1      -7.962   9.064  66.447  1.00  0.00    -0.103 C  
HETATM   15  C   UNL     1      -7.799  10.500  65.953  1.00  0.00    -0.151 C  
HETATM   16  C   UNL     1      -9.092  11.031  65.339  1.00  0.00    -0.213 C  
HETATM   17  C   UNL     1     -10.306  10.814  66.239  1.00  0.00    -0.303 C  
HETATM   18  H   UNL     1      -9.377   7.044  66.925  1.00  0.00     0.000 HD 
BRANCH   9  19
HETATM   19  N   UNL     1      -7.020  10.150  70.612  1.00  0.00    -0.329 NA 
HETATM   20  C   UNL     1      -6.272  11.358  70.257  1.00  0.00    -0.106 C  
HETATM   21  C   UNL     1      -6.193   9.319  71.495  1.00  0.00    -0.046 C  
ENDBRANCH   9  19
ENDBRANCH   2   3
TORSDOF 2
ENDMDL
MODEL       56
REMARK 921   NORMALIZED FREE ENERGY PREDICTED BY IDOCK:   -4.38 KCAL/MOL
REMARK 922        TOTAL FREE ENERGY PREDICTED BY IDOCK:   -5.14 KCAL/MOL
REMARK 923 INTER-LIGAND FREE ENERGY PREDICTED BY IDOCK:   -5.16 KCAL/MOL
REMARK 924 INTRA-LIGAND FREE ENERGY PREDICTED BY IDOCK:    0.03 KCAL/MOL
REMARK 927      BINDING AFFINITY PREDICTED BY RF-SCORE:    0.00 PKD
ROOT
HETATM    1  C   UNL     1     -12.163  14.770  64.551  1.00  0.00    -0.428 C  
HETATM    2  O   UNL     1     -12.730  13.520  64.924  1.00  0.00    -0.632 OA 
ENDROOT
BRANCH   2   3
HETATM    3  C   UNL     1     -11.895  12.626  65.535  1.00  0.00    -0.431 A  
HETATM    4  C   UNL     1     -11.236  11.572  64.914  1.00  0.00    -0.242 A  
HETATM    5  C   UNL     1     -10.387  10.737  65.647  1.00  0.00    -0.297 A  
HETATM    6  C   UNL     1     -10.197  10.909  67.030  1.00  0.00    -0.256 A  
HETATM    7  C   UNL     1     -10.871  11.972  67.644  1.00  0.00    -0.273 A  
HETATM    8  C   UNL     1      -9.271   9.940  67.791  1.00  0.00    -0.141 C  
HETATM    9  C   UNL     1      -8.474  10.622  68.955  1.00  0.00    -0.154 C  
HETATM   10  C   UNL     1     -11.702  12.824  66.903  1.00  0.00    -0.447 A  
HETATM   11  C   UNL     1     -10.016   8.626  68.279  1.00  0.00    -0.180 C  
HETATM   12  O   UNL     1     -11.085   8.986  69.167  1.00  0.00    -0.434 OA 
HETATM   13  C   UNL     1     -10.610   7.784  67.122  1.00  0.00    -0.401 C  
HETATM   14  C   UNL     1      -9.109   7.659  69.080  1.00  0.00    -0.144 C  
HETATM   15  C   UNL     1      -7.983   7.068  68.233  1.00  0.00    -0.123 C  
HETATM   16  C   UNL     1      -8.529   6.337  67.009  1.00  0.00    -0.108 C  
HETATM   17  C   UNL     1      -9.532   7.174  66.219  1.00  0.00    -0.125 C  
HETATM   18  H   UNL     1     -11.532   8.200  69.459  1.00  0.00     0.000 HD 
BRANCH   9  19
HETATM   19  N   UNL     1      -7.632  11.779  68.574  1.00  0.00    -0.125 NA 
HETATM   20  C   UNL     1      -7.035  11.607  67.247  1.00  0.00    -0.131 C  
HETATM   21  C   UNL     1      -6.561  11.966  69.559  1.00  0.00    -0.093 C  
ENDBRANCH   9  19
ENDBRANCH   2   3
TORSDOF 2
ENDMDL
MODEL       57
REMARK 921   NORMALIZED FREE ENERGY PREDICTED BY IDOCK:   -4.35 KCAL/MOL
REMARK 922        TOTAL FREE ENERGY PREDICTED BY IDOCK:   -5.10 KCAL/MOL
REMARK 923 INTER-LIGAND FREE ENERGY PREDICTED BY IDOCK:   -4.87 KCAL/MOL
REMARK 924 INTRA-LIGAND FREE ENERGY PREDICTED BY IDOCK:   -0.23 KCAL/MOL
REMARK 927      BINDING AFFINITY PREDICTED BY RF-SCORE:    0.00 PKD
ROOT
HETATM    1  C   UNL     1      -9.712  11.064  64.002  1.00  0.00    -0.288 C  
HETATM    2  O   UNL     1      -8.779  10.172  64.599  1.00  0.00    -0.163 OA 
ENDROOT
BRANCH   2   3
HETATM    3  C   UNL     1      -9.114   9.663  65.823  1.00  0.00    -0.185 A  
HETATM    4  C   UNL     1     -10.394   9.618  66.363  1.00  0.00    -0.246 A  
HETATM    5  C   UNL     1     -10.612   9.050  67.623  1.00  0.00    -0.298 A  
HETATM    6  C   UNL     1      -9.554   8.538  68.394  1.00  0.00    -0.157 A  
HETATM    7  C   UNL     1      -8.268   8.595  67.840  1.00  0.00    -0.115 A  
HETATM    8  C   UNL     1      -9.850   7.949  69.788  1.00  0.00    -0.179 C  
HETATM    9  C   UNL     1      -8.934   6.734  70.159  1.00  0.00    -0.149 C  
HETATM   10  C   UNL     1      -8.055   9.142  66.567  1.00  0.00    -0.107 A  
HETATM   11  C   UNL     1      -9.866   9.047  70.934  1.00  0.00    -0.264 C  
HETATM   12  O   UNL     1      -8.582   9.685  71.001  1.00  0.00    -0.344 OA 
HETATM   13  C   UNL     1     -10.942  10.143  70.727  1.00  0.00    -0.313 C  
HETATM   14  C   UNL     1     -10.125   8.466  72.346  1.00  0.00    -0.386 C  
HETATM   15  C   UNL     1     -11.521   7.862  72.490  1.00  0.00    -0.455 C  
HETATM   16  C   UNL     1     -12.608   8.884  72.168  1.00  0.00    -0.467 C  
HETATM   17  C   UNL     1     -12.370   9.602  70.841  1.00  0.00    -0.346 C  
HETATM   18  H   UNL     1      -8.591  10.342  71.687  1.00  0.00     0.000 HD 
BRANCH   9  19
HETATM   19  N   UNL     1      -8.957   5.591  69.218  1.00  0.00    -0.111 NA 
HETATM   20  C   UNL     1      -9.802   4.498  69.706  1.00  0.00    -0.225 C  
HETATM   21  C   UNL     1      -7.596   5.086  69.009  1.00  0.00    -0.072 C  
ENDBRANCH   9  19
ENDBRANCH   2   3
TORSDOF 2
ENDMDL
MODEL       58
REMARK 921   NORMALIZED FREE ENERGY PREDICTED BY IDOCK:   -4.34 KCAL/MOL
REMARK 922        TOTAL FREE ENERGY PREDICTED BY IDOCK:   -5.09 KCAL/MOL
REMARK 923 INTER-LIGAND FREE ENERGY PREDICTED BY IDOCK:   -4.84 KCAL/MOL
REMARK 924 INTRA-LIGAND FREE ENERGY PREDICTED BY IDOCK:   -0.25 KCAL/MOL
REMARK 927      BINDING AFFINITY PREDICTED BY RF-SCORE:    0.00 PKD
ROOT
HETATM    1  C   UNL     1     -11.416  14.400  68.643  1.00  0.00    -0.287 C  
HETATM    2  O   UNL     1     -10.410  13.627  67.998  1.00  0.00    -0.238 OA 
ENDROOT
BRANCH   2   3
HETATM    3  C   UNL     1     -10.298  12.321  68.386  1.00  0.00    -0.224 A  
HETATM    4  C   UNL     1      -9.110  11.621  68.556  1.00  0.00    -0.157 A  
HETATM    5  C   UNL     1      -9.127  10.288  68.980  1.00  0.00    -0.187 A  
HETATM    6  C   UNL     1     -10.333   9.604  69.215  1.00  0.00    -0.223 A  
HETATM    7  C   UNL     1     -11.523  10.320  69.035  1.00  0.00    -0.200 A  
HETATM    8  C   UNL     1     -10.290   8.127  69.654  1.00  0.00    -0.221 C  
HETATM    9  C   UNL     1     -11.433   7.740  70.654  1.00  0.00    -0.245 C  
HETATM   10  C   UNL     1     -11.504  11.664  68.635  1.00  0.00    -0.349 A  
HETATM   11  C   UNL     1     -10.212   7.120  68.430  1.00  0.00    -0.174 C  
HETATM   12  O   UNL     1     -11.370   7.288  67.599  1.00  0.00    -0.500 OA 
HETATM   13  C   UNL     1      -8.951   7.311  67.550  1.00  0.00    -0.122 C  
HETATM   14  C   UNL     1     -10.208   5.629  68.853  1.00  0.00    -0.279 C  
HETATM   15  C   UNL     1      -8.957   5.242  69.640  1.00  0.00    -0.133 C  
HETATM   16  C   UNL     1      -7.685   5.537  68.850  1.00  0.00    -0.091 C  
HETATM   17  C   UNL     1      -7.655   6.955  68.286  1.00  0.00    -0.107 C  
HETATM   18  H   UNL     1     -11.323   6.686  66.866  1.00  0.00     0.000 HD 
BRANCH   9  19
HETATM   19  N   UNL     1     -11.503   8.535  71.900  1.00  0.00    -0.311 NA 
HETATM   20  C   UNL     1     -10.886   7.836  73.030  1.00  0.00    -0.389 C  
HETATM   21  C   UNL     1     -12.901   8.833  72.228  1.00  0.00    -0.405 C  
ENDBRANCH   9  19
ENDBRANCH   2   3
TORSDOF 2
ENDMDL
MODEL       59
REMARK 921   NORMALIZED FREE ENERGY PREDICTED BY IDOCK:   -4.34 KCAL/MOL
REMARK 922        TOTAL FREE ENERGY PREDICTED BY IDOCK:   -5.09 KCAL/MOL
REMARK 923 INTER-LIGAND FREE ENERGY PREDICTED BY IDOCK:   -4.86 KCAL/MOL
REMARK 924 INTRA-LIGAND FREE ENERGY PREDICTED BY IDOCK:   -0.23 KCAL/MOL
REMARK 927      BINDING AFFINITY PREDICTED BY RF-SCORE:    0.00 PKD
ROOT
HETATM    1  C   UNL     1      -7.504  13.606  68.601  1.00  0.00    -0.113 C  
HETATM    2  O   UNL     1      -8.472  13.000  67.751  1.00  0.00    -0.162 OA 
ENDROOT
BRANCH   2   3
HETATM    3  C   UNL     1      -9.142  11.922  68.257  1.00  0.00    -0.183 A  
HETATM    4  C   UNL     1     -10.522  11.791  68.351  1.00  0.00    -0.231 A  
HETATM    5  C   UNL     1     -11.090  10.623  68.871  1.00  0.00    -0.314 A  
HETATM    6  C   UNL     1     -10.295   9.563  69.342  1.00  0.00    -0.225 A  
HETATM    7  C   UNL     1      -8.906   9.709  69.246  1.00  0.00    -0.164 A  
HETATM    8  C   UNL     1     -10.976   8.311  69.930  1.00  0.00    -0.166 C  
HETATM    9  C   UNL     1     -10.207   6.980  69.625  1.00  0.00    -0.202 C  
HETATM   10  C   UNL     1      -8.338  10.871  68.701  1.00  0.00    -0.148 A  
HETATM   11  C   UNL     1     -11.312   8.457  71.474  1.00  0.00    -0.276 C  
HETATM   12  O   UNL     1     -10.097   8.670  72.208  1.00  0.00    -0.311 OA 
HETATM   13  C   UNL     1     -12.281   9.624  71.790  1.00  0.00    -0.464 C  
HETATM   14  C   UNL     1     -11.963   7.192  72.090  1.00  0.00    -0.304 C  
HETATM   15  C   UNL     1     -13.344   6.897  71.509  1.00  0.00    -0.303 C  
HETATM   16  C   UNL     1     -14.292   8.079  71.690  1.00  0.00    -0.581 C  
HETATM   17  C   UNL     1     -13.686   9.400  71.220  1.00  0.00    -0.248 C  
HETATM   18  H   UNL     1     -10.298   8.757  73.133  1.00  0.00     0.000 HD 
BRANCH   9  19
HETATM   19  N   UNL     1      -9.967   6.682  68.195  1.00  0.00    -0.142 NA 
HETATM   20  C   UNL     1     -11.155   6.123  67.546  1.00  0.00    -0.215 C  
HETATM   21  C   UNL     1      -8.857   5.732  68.060  1.00  0.00    -0.109 C  
ENDBRANCH   9  19
ENDBRANCH   2   3
TORSDOF 2
ENDMDL
MODEL       60
REMARK 921   NORMALIZED FREE ENERGY PREDICTED BY IDOCK:   -4.33 KCAL/MOL
REMARK 922        TOTAL FREE ENERGY PREDICTED BY IDOCK:   -5.08 KCAL/MOL
REMARK 923 INTER-LIGAND FREE ENERGY PREDICTED BY IDOCK:   -4.86 KCAL/MOL
REMARK 924 INTRA-LIGAND FREE ENERGY PREDICTED BY IDOCK:   -0.23 KCAL/MOL
REMARK 927      BINDING AFFINITY PREDICTED BY RF-SCORE:    0.00 PKD
ROOT
HETATM    1  C   UNL     1     -12.439  15.472  73.435  1.00  0.00    -0.511 C  
HETATM    2  O   UNL     1     -12.561  16.312  72.294  1.00  0.00    -0.424 OA 
ENDROOT
BRANCH   2   3
HETATM    3  C   UNL     1     -12.147  15.789  71.101  1.00  0.00    -0.427 A  
HETATM    4  C   UNL     1     -12.798  14.797  70.377  1.00  0.00    -0.323 A  
HETATM    5  C   UNL     1     -12.282  14.359  69.152  1.00  0.00    -0.255 A  
HETATM    6  C   UNL     1     -11.085  14.877  68.629  1.00  0.00    -0.272 A  
HETATM    7  C   UNL     1     -10.437  15.874  69.371  1.00  0.00    -0.265 A  
HETATM    8  C   UNL     1     -10.550  14.337  67.288  1.00  0.00    -0.278 C  
HETATM    9  C   UNL     1      -9.833  15.425  66.418  1.00  0.00    -0.281 C  
HETATM   10  C   UNL     1     -10.968  16.329  70.586  1.00  0.00    -0.179 A  
HETATM   11  C   UNL     1      -9.658  13.035  67.456  1.00  0.00    -0.204 C  
HETATM   12  O   UNL     1      -8.523  13.338  68.281  1.00  0.00    -0.161 OA 
HETATM   13  C   UNL     1     -10.415  11.843  68.093  1.00  0.00    -0.225 C  
HETATM   14  C   UNL     1      -9.081  12.501  66.121  1.00  0.00    -0.012 C  
HETATM   15  C   UNL     1     -10.165  12.001  65.168  1.00  0.00    -0.308 C  
HETATM   16  C   UNL     1     -11.016  10.909  65.812  1.00  0.00    -0.045 C  
HETATM   17  C   UNL     1     -11.531  11.301  67.194  1.00  0.00    -0.217 C  
HETATM   18  H   UNL     1      -7.989  12.560  68.382  1.00  0.00     0.000 HD 
BRANCH   9  19
HETATM   19  N   UNL     1     -10.636  16.624  66.086  1.00  0.00    -0.262 NA 
HETATM   20  C   UNL     1     -11.315  16.487  64.795  1.00  0.00    -0.075 C  
HETATM   21  C   UNL     1      -9.774  17.810  66.048  1.00  0.00    -0.130 C  
ENDBRANCH   9  19
ENDBRANCH   2   3
TORSDOF 2
ENDMDL
MODEL       61
REMARK 921   NORMALIZED FREE ENERGY PREDICTED BY IDOCK:   -4.31 KCAL/MOL
REMARK 922        TOTAL FREE ENERGY PREDICTED BY IDOCK:   -5.06 KCAL/MOL
REMARK 923 INTER-LIGAND FREE ENERGY PREDICTED BY IDOCK:   -4.82 KCAL/MOL
REMARK 924 INTRA-LIGAND FREE ENERGY PREDICTED BY IDOCK:   -0.24 KCAL/MOL
REMARK 927      BINDING AFFINITY PREDICTED BY RF-SCORE:    0.00 PKD
ROOT
HETATM    1  C   UNL     1      -9.106   1.901  66.917  1.00  0.00    -0.070 C  
HETATM    2  O   UNL     1      -9.533   3.035  66.171  1.00  0.00    -0.110 OA 
ENDROOT
BRANCH   2   3
HETATM    3  C   UNL     1      -9.842   4.158  66.886  1.00  0.00    -0.164 A  
HETATM    4  C   UNL     1     -10.638   5.209  66.448  1.00  0.00    -0.336 A  
HETATM    5  C   UNL     1     -10.899   6.298  67.286  1.00  0.00    -0.457 A  
HETATM    6  C   UNL     1     -10.346   6.386  68.576  1.00  0.00    -0.227 A  
HETATM    7  C   UNL     1      -9.541   5.322  69.003  1.00  0.00    -0.199 A  
HETATM    8  C   UNL     1     -10.645   7.623  69.445  1.00  0.00    -0.217 C  
HETATM    9  C   UNL     1     -10.763   7.299  70.973  1.00  0.00    -0.231 C  
HETATM   10  C   UNL     1      -9.301   4.219  68.171  1.00  0.00    -0.204 A  
HETATM   11  C   UNL     1      -9.647   8.827  69.173  1.00  0.00    -0.162 C  
HETATM   12  O   UNL     1      -8.306   8.410  69.467  1.00  0.00    -0.116 OA 
HETATM   13  C   UNL     1      -9.685   9.345  67.713  1.00  0.00    -0.182 C  
HETATM   14  C   UNL     1      -9.911  10.066  70.066  1.00  0.00    -0.273 C  
HETATM   15  C   UNL     1     -11.260  10.723  69.779  1.00  0.00    -0.365 C  
HETATM   16  C   UNL     1     -11.382  11.134  68.314  1.00  0.00    -0.365 C  
HETATM   17  C   UNL     1     -11.020  10.005  67.352  1.00  0.00    -0.258 C  
HETATM   18  H   UNL     1      -7.708   9.130  69.304  1.00  0.00     0.000 HD 
BRANCH   9  19
HETATM   19  N   UNL     1     -11.773   6.283  71.346  1.00  0.00    -0.296 NA 
HETATM   20  C   UNL     1     -13.107   6.869  71.500  1.00  0.00    -0.281 C  
HETATM   21  C   UNL     1     -11.390   5.632  72.603  1.00  0.00    -0.305 C  
ENDBRANCH   9  19
ENDBRANCH   2   3
TORSDOF 2
ENDMDL
MODEL       62
REMARK 921   NORMALIZED FREE ENERGY PREDICTED BY IDOCK:   -4.30 KCAL/MOL
REMARK 922        TOTAL FREE ENERGY PREDICTED BY IDOCK:   -5.05 KCAL/MOL
REMARK 923 INTER-LIGAND FREE ENERGY PREDICTED BY IDOCK:   -4.82 KCAL/MOL
REMARK 924 INTRA-LIGAND FREE ENERGY PREDICTED BY IDOCK:   -0.23 KCAL/MOL
REMARK 927      BINDING AFFINITY PREDICTED BY RF-SCORE:    0.00 PKD
ROOT
HETATM    1  C   UNL     1     -10.936   6.947  67.123  1.00  0.00    -0.357 C  
HETATM    2  O   UNL     1      -9.933   7.670  66.419  1.00  0.00    -0.182 OA 
ENDROOT
BRANCH   2   3
HETATM    3  C   UNL     1      -9.813   8.999  66.717  1.00  0.00    -0.234 A  
HETATM    4  C   UNL     1     -10.576   9.698  67.644  1.00  0.00    -0.334 A  
HETATM    5  C   UNL     1     -10.341  11.057  67.875  1.00  0.00    -0.213 A  
HETATM    6  C   UNL     1      -9.357  11.767  67.164  1.00  0.00    -0.178 A  
HETATM    7  C   UNL     1      -8.597  11.051  66.230  1.00  0.00    -0.167 A  
HETATM    8  C   UNL     1      -9.160  13.270  67.441  1.00  0.00    -0.216 C  
HETATM    9  C   UNL     1      -7.669  13.736  67.330  1.00  0.00    -0.143 C  
HETATM   10  C   UNL     1      -8.818   9.682  66.017  1.00  0.00    -0.178 A  
HETATM   11  C   UNL     1     -10.130  14.189  66.585  1.00  0.00    -0.275 C  
HETATM   12  O   UNL     1      -9.881  13.974  65.188  1.00  0.00    -0.570 OA 
HETATM   13  C   UNL     1     -11.633  13.926  66.856  1.00  0.00    -0.400 C  
HETATM   14  C   UNL     1      -9.919  15.706  66.823  1.00  0.00    -0.258 C  
HETATM   15  C   UNL     1     -10.278  16.135  68.245  1.00  0.00    -0.248 C  
HETATM   16  C   UNL     1     -11.720  15.775  68.592  1.00  0.00    -0.353 C  
HETATM   17  C   UNL     1     -12.058  14.320  68.274  1.00  0.00    -0.278 C  
HETATM   18  H   UNL     1     -10.461  14.523  64.675  1.00  0.00     0.000 HD 
BRANCH   9  19
HETATM   19  N   UNL     1      -6.701  13.030  68.200  1.00  0.00    -0.089 NA 
HETATM   20  C   UNL     1      -6.642  13.616  69.541  1.00  0.00    -0.069 C  
HETATM   21  C   UNL     1      -5.363  13.073  67.600  1.00  0.00    -0.081 C  
ENDBRANCH   9  19
ENDBRANCH   2   3
TORSDOF 2
ENDMDL
MODEL       63
REMARK 921   NORMALIZED FREE ENERGY PREDICTED BY IDOCK:   -4.27 KCAL/MOL
REMARK 922        TOTAL FREE ENERGY PREDICTED BY IDOCK:   -5.01 KCAL/MOL
REMARK 923 INTER-LIGAND FREE ENERGY PREDICTED BY IDOCK:   -4.82 KCAL/MOL
REMARK 924 INTRA-LIGAND FREE ENERGY PREDICTED BY IDOCK:   -0.19 KCAL/MOL
REMARK 927      BINDING AFFINITY PREDICTED BY RF-SCORE:    0.00 PKD
ROOT
HETATM    1  C   UNL     1     -14.282   9.020  72.369  1.00  0.00    -0.339 C  
HETATM    2  O   UNL     1     -12.949   8.679  72.729  1.00  0.00    -0.305 OA 
ENDROOT
BRANCH   2   3
HETATM    3  C   UNL     1     -12.119   8.296  71.712  1.00  0.00    -0.319 A  
HETATM    4  C   UNL     1     -11.112   9.070  71.147  1.00  0.00    -0.371 A  
HETATM    5  C   UNL     1     -10.312   8.553  70.122  1.00  0.00    -0.214 A  
HETATM    6  C   UNL     1     -10.515   7.261  69.608  1.00  0.00    -0.239 A  
HETATM    7  C   UNL     1     -11.536   6.493  70.183  1.00  0.00    -0.466 A  
HETATM    8  C   UNL     1      -9.621   6.755  68.459  1.00  0.00    -0.130 C  
HETATM    9  C   UNL     1      -9.308   5.222  68.538  1.00  0.00    -0.121 C  
HETATM   10  C   UNL     1     -12.321   7.003  71.228  1.00  0.00    -0.426 A  
HETATM   11  C   UNL     1     -10.160   7.173  67.025  1.00  0.00    -0.238 C  
HETATM   12  O   UNL     1     -11.469   6.618  66.828  1.00  0.00    -0.776 OA 
HETATM   13  C   UNL     1     -10.248   8.706  66.819  1.00  0.00    -0.361 C  
HETATM   14  C   UNL     1      -9.293   6.640  65.857  1.00  0.00     0.040 C  
HETATM   15  C   UNL     1      -7.891   7.246  65.838  1.00  0.00    -0.106 C  
HETATM   16  C   UNL     1      -7.941   8.770  65.764  1.00  0.00    -0.105 C  
HETATM   17  C   UNL     1      -8.873   9.382  66.806  1.00  0.00    -0.142 C  
HETATM   18  H   UNL     1     -11.792   6.868  65.970  1.00  0.00     0.000 HD 
BRANCH   9  19
HETATM   19  N   UNL     1      -8.671   4.753  69.790  1.00  0.00    -0.081 NA 
HETATM   20  C   UNL     1      -7.435   5.484  70.080  1.00  0.00    -0.070 C  
HETATM   21  C   UNL     1      -8.368   3.322  69.693  1.00  0.00    -0.052 C  
ENDBRANCH   9  19
ENDBRANCH   2   3
TORSDOF 2
ENDMDL
MODEL       64
REMARK 921   NORMALIZED FREE ENERGY PREDICTED BY IDOCK:   -4.26 KCAL/MOL
REMARK 922        TOTAL FREE ENERGY PREDICTED BY IDOCK:   -5.01 KCAL/MOL
REMARK 923 INTER-LIGAND FREE ENERGY PREDICTED BY IDOCK:   -4.88 KCAL/MOL
REMARK 924 INTRA-LIGAND FREE ENERGY PREDICTED BY IDOCK:   -0.12 KCAL/MOL
REMARK 927      BINDING AFFINITY PREDICTED BY RF-SCORE:    0.00 PKD
ROOT
HETATM    1  C   UNL     1      -9.004  19.571  67.808  1.00  0.00    -0.318 C  
HETATM    2  O   UNL     1      -9.834  18.769  68.639  1.00  0.00    -0.358 OA 
ENDROOT
BRANCH   2   3
HETATM    3  C   UNL     1     -10.067  17.489  68.220  1.00  0.00    -0.346 A  
HETATM    4  C   UNL     1      -9.224  16.727  67.420  1.00  0.00    -0.220 A  
HETATM    5  C   UNL     1      -9.568  15.416  67.076  1.00  0.00    -0.227 A  
HETATM    6  C   UNL     1     -10.779  14.837  67.493  1.00  0.00    -0.269 A  
HETATM    7  C   UNL     1     -11.622  15.617  68.294  1.00  0.00    -0.326 A  
HETATM    8  C   UNL     1     -11.117  13.397  67.059  1.00  0.00    -0.310 C  
HETATM    9  C   UNL     1     -11.907  12.587  68.143  1.00  0.00    -0.317 C  
HETATM   10  C   UNL     1     -11.265  16.923  68.660  1.00  0.00    -0.091 A  
HETATM   11  C   UNL     1     -11.825  13.328  65.640  1.00  0.00    -0.380 C  
HETATM   12  O   UNL     1     -13.057  14.063  65.686  1.00  0.00    -0.639 OA 
HETATM   13  C   UNL     1     -10.961  13.899  64.488  1.00  0.00    -0.379 C  
HETATM   14  C   UNL     1     -12.207  11.890  65.206  1.00  0.00     0.155 C  
HETATM   15  C   UNL     1     -10.987  11.000  64.976  1.00  0.00    -0.117 C  
HETATM   16  C   UNL     1     -10.046  11.598  63.935  1.00  0.00    -0.395 C  
HETATM   17  C   UNL     1      -9.708  13.061  64.214  1.00  0.00     0.289 C  
HETATM   18  H   UNL     1     -13.481  14.022  64.837  1.00  0.00     0.000 HD 
BRANCH   9  19
HETATM   19  N   UNL     1     -11.259  12.474  69.470  1.00  0.00    -0.152 NA 
HETATM   20  C   UNL     1     -10.934  11.085  69.802  1.00  0.00    -0.193 C  
HETATM   21  C   UNL     1     -12.140  13.020  70.507  1.00  0.00    -0.292 C  
ENDBRANCH   9  19
ENDBRANCH   2   3
TORSDOF 2
ENDMDL
MODEL       65
REMARK 921   NORMALIZED FREE ENERGY PREDICTED BY IDOCK:   -4.25 KCAL/MOL
REMARK 922        TOTAL FREE ENERGY PREDICTED BY IDOCK:   -4.99 KCAL/MOL
REMARK 923 INTER-LIGAND FREE ENERGY PREDICTED BY IDOCK:   -4.76 KCAL/MOL
REMARK 924 INTRA-LIGAND FREE ENERGY PREDICTED BY IDOCK:   -0.24 KCAL/MOL
REMARK 927      BINDING AFFINITY PREDICTED BY RF-SCORE:    0.00 PKD
ROOT
HETATM    1  C   UNL     1     -12.000  13.326  67.389  1.00  0.00    -0.335 C  
HETATM    2  O   UNL     1     -11.842  14.492  66.590  1.00  0.00    -0.393 OA 
ENDROOT
BRANCH   2   3
HETATM    3  C   UNL     1     -10.760  15.282  66.865  1.00  0.00    -0.313 A  
HETATM    4  C   UNL     1     -10.799  16.538  67.458  1.00  0.00    -0.237 A  
HETATM    5  C   UNL     1      -9.615  17.240  67.708  1.00  0.00    -0.262 A  
HETATM    6  C   UNL     1      -8.359  16.723  67.343  1.00  0.00    -0.197 A  
HETATM    7  C   UNL     1      -8.335  15.458  66.741  1.00  0.00    -0.285 A  
HETATM    8  C   UNL     1      -7.091  17.554  67.618  1.00  0.00    -0.180 C  
HETATM    9  C   UNL     1      -5.843  16.684  67.996  1.00  0.00    -0.119 C  
HETATM   10  C   UNL     1      -9.521  14.745  66.514  1.00  0.00    -0.316 A  
HETATM   11  C   UNL     1      -6.761  18.583  66.456  1.00  0.00    -0.196 C  
HETATM   12  O   UNL     1      -6.548  17.867  65.230  1.00  0.00    -0.291 OA 
HETATM   13  C   UNL     1      -7.879  19.629  66.218  1.00  0.00    -0.331 C  
HETATM   14  C   UNL     1      -5.467  19.400  66.699  1.00  0.00    -0.164 C  
HETATM   15  C   UNL     1      -5.575  20.333  67.904  1.00  0.00    -0.232 C  
HETATM   16  C   UNL     1      -6.750  21.297  67.761  1.00  0.00    -0.173 C  
HETATM   17  C   UNL     1      -8.054  20.590  67.399  1.00  0.00    -0.345 C  
HETATM   18  H   UNL     1      -6.351  18.483  64.535  1.00  0.00     0.000 HD 
BRANCH   9  19
HETATM   19  N   UNL     1      -6.006  15.787  69.162  1.00  0.00    -0.108 NA 
HETATM   20  C   UNL     1      -5.405  16.351  70.373  1.00  0.00    -0.191 C  
HETATM   21  C   UNL     1      -5.390  14.486  68.885  1.00  0.00    -0.088 C  
ENDBRANCH   9  19
ENDBRANCH   2   3
TORSDOF 2
ENDMDL
MODEL       66
REMARK 921   NORMALIZED FREE ENERGY PREDICTED BY IDOCK:   -4.25 KCAL/MOL
REMARK 922        TOTAL FREE ENERGY PREDICTED BY IDOCK:   -4.99 KCAL/MOL
REMARK 923 INTER-LIGAND FREE ENERGY PREDICTED BY IDOCK:   -4.77 KCAL/MOL
REMARK 924 INTRA-LIGAND FREE ENERGY PREDICTED BY IDOCK:   -0.23 KCAL/MOL
REMARK 927      BINDING AFFINITY PREDICTED BY RF-SCORE:    0.00 PKD
ROOT
HETATM    1  C   UNL     1     -11.022  12.286  63.670  1.00  0.00    -0.471 C  
HETATM    2  O   UNL     1     -10.606  12.464  65.019  1.00  0.00    -0.280 OA 
ENDROOT
BRANCH   2   3
HETATM    3  C   UNL     1     -10.262  11.334  65.708  1.00  0.00    -0.251 A  
HETATM    4  C   UNL     1      -9.955  10.101  65.147  1.00  0.00    -0.379 A  
HETATM    5  C   UNL     1      -9.595   9.022  65.962  1.00  0.00    -0.342 A  
HETATM    6  C   UNL     1      -9.563   9.134  67.363  1.00  0.00    -0.193 A  
HETATM    7  C   UNL     1      -9.879  10.382  67.915  1.00  0.00    -0.176 A  
HETATM    8  C   UNL     1      -9.187   7.904  68.212  1.00  0.00    -0.137 C  
HETATM    9  C   UNL     1      -8.377   8.261  69.505  1.00  0.00    -0.121 C  
HETATM   10  C   UNL     1     -10.215  11.470  67.096  1.00  0.00    -0.233 A  
HETATM   11  C   UNL     1     -10.429   6.970  68.534  1.00  0.00    -0.200 C  
HETATM   12  O   UNL     1     -11.409   7.717  69.271  1.00  0.00    -0.421 OA 
HETATM   13  C   UNL     1     -11.112   6.390  67.270  1.00  0.00    -0.416 C  
HETATM   14  C   UNL     1     -10.075   5.748  69.419  1.00  0.00    -0.277 C  
HETATM   15  C   UNL     1      -9.135   4.767  68.721  1.00  0.00    -0.151 C  
HETATM   16  C   UNL     1      -9.724   4.270  67.403  1.00  0.00    -0.210 C  
HETATM   17  C   UNL     1     -10.216   5.407  66.510  1.00  0.00    -0.287 C  
HETATM   18  H   UNL     1     -12.152   7.159  69.464  1.00  0.00     0.000 HD 
BRANCH   9  19
HETATM   19  N   UNL     1      -7.120   9.015  69.296  1.00  0.00    -0.057 NA 
HETATM   20  C   UNL     1      -6.005   8.131  68.944  1.00  0.00    -0.039 C  
HETATM   21  C   UNL     1      -6.774   9.759  70.512  1.00  0.00    -0.125 C  
ENDBRANCH   9  19
ENDBRANCH   2   3
TORSDOF 2
ENDMDL
MODEL       67
REMARK 921   NORMALIZED FREE ENERGY PREDICTED BY IDOCK:   -4.20 KCAL/MOL
REMARK 922        TOTAL FREE ENERGY PREDICTED BY IDOCK:   -4.94 KCAL/MOL
REMARK 923 INTER-LIGAND FREE ENERGY PREDICTED BY IDOCK:   -4.88 KCAL/MOL
REMARK 924 INTRA-LIGAND FREE ENERGY PREDICTED BY IDOCK:   -0.06 KCAL/MOL
REMARK 927      BINDING AFFINITY PREDICTED BY RF-SCORE:    0.00 PKD
ROOT
HETATM    1  C   UNL     1      -9.183   7.612  67.075  1.00  0.00    -0.138 C  
HETATM    2  O   UNL     1     -10.255   8.440  66.642  1.00  0.00    -0.285 OA 
ENDROOT
BRANCH   2   3
HETATM    3  C   UNL     1     -10.047   9.790  66.698  1.00  0.00    -0.237 A  
HETATM    4  C   UNL     1      -8.858  10.444  66.399  1.00  0.00    -0.159 A  
HETATM    5  C   UNL     1      -8.778  11.839  66.474  1.00  0.00    -0.173 A  
HETATM    6  C   UNL     1      -9.874  12.620  66.882  1.00  0.00    -0.234 A  
HETATM    7  C   UNL     1     -11.065  11.948  67.185  1.00  0.00    -0.347 A  
HETATM    8  C   UNL     1      -9.719  14.151  66.973  1.00  0.00    -0.258 C  
HETATM    9  C   UNL     1     -11.019  14.935  66.585  1.00  0.00    -0.325 C  
HETATM   10  C   UNL     1     -11.151  10.552  67.085  1.00  0.00    -0.232 A  
HETATM   11  C   UNL     1      -9.136  14.632  68.369  1.00  0.00    -0.192 C  
HETATM   12  O   UNL     1     -10.023  14.226  69.422  1.00  0.00    -0.421 OA 
HETATM   13  C   UNL     1      -7.726  14.069  68.679  1.00  0.00    -0.135 C  
HETATM   14  C   UNL     1      -9.009  16.171  68.491  1.00  0.00    -0.204 C  
HETATM   15  C   UNL     1      -7.986  16.759  67.520  1.00  0.00    -0.189 C  
HETATM   16  C   UNL     1      -6.608  16.132  67.713  1.00  0.00    -0.172 C  
HETATM   17  C   UNL     1      -6.650  14.605  67.729  1.00  0.00    -0.189 C  
HETATM   18  H   UNL     1      -9.674  14.514  70.257  1.00  0.00     0.000 HD 
BRANCH   9  19
HETATM   19  N   UNL     1     -11.565  14.658  65.237  1.00  0.00    -0.351 NA 
HETATM   20  C   UNL     1     -11.631  15.869  64.415  1.00  0.00    -0.234 C  
HETATM   21  C   UNL     1     -12.910  14.083  65.349  1.00  0.00    -0.410 C  
ENDBRANCH   9  19
ENDBRANCH   2   3
TORSDOF 2
ENDMDL
MODEL       68
REMARK 921   NORMALIZED FREE ENERGY PREDICTED BY IDOCK:   -4.19 KCAL/MOL
REMARK 922        TOTAL FREE ENERGY PREDICTED BY IDOCK:   -4.92 KCAL/MOL
REMARK 923 INTER-LIGAND FREE ENERGY PREDICTED BY IDOCK:   -4.89 KCAL/MOL
REMARK 924 INTRA-LIGAND FREE ENERGY PREDICTED BY IDOCK:   -0.03 KCAL/MOL
REMARK 927      BINDING AFFINITY PREDICTED BY RF-SCORE:    0.00 PKD
ROOT
HETATM    1  C   UNL     1      -5.878   8.170  68.007  1.00  0.00    -0.042 C  
HETATM    2  O   UNL     1      -5.748   9.568  67.772  1.00  0.00    -0.041 OA 
ENDROOT
BRANCH   2   3
HETATM    3  C   UNL     1      -6.900  10.253  67.503  1.00  0.00    -0.072 A  
HETATM    4  C   UNL     1      -7.908   9.843  66.639  1.00  0.00    -0.110 A  
HETATM    5  C   UNL     1      -9.054  10.626  66.464  1.00  0.00    -0.179 A  
HETATM    6  C   UNL     1      -9.213  11.858  67.123  1.00  0.00    -0.183 A  
HETATM    7  C   UNL     1      -8.187  12.262  67.988  1.00  0.00    -0.163 A  
HETATM    8  C   UNL     1     -10.485  12.692  66.871  1.00  0.00    -0.246 C  
HETATM    9  C   UNL     1     -10.978  13.477  68.134  1.00  0.00    -0.254 C  
HETATM   10  C   UNL     1      -7.051  11.463  68.181  1.00  0.00    -0.075 A  
HETATM   11  C   UNL     1     -10.364  13.636  65.600  1.00  0.00    -0.300 C  
HETATM   12  O   UNL     1      -9.278  14.555  65.791  1.00  0.00    -0.516 OA 
HETATM   13  C   UNL     1     -10.122  12.866  64.278  1.00  0.00    -0.251 C  
HETATM   14  C   UNL     1     -11.620  14.509  65.354  1.00  0.00    -0.355 C  
HETATM   15  C   UNL     1     -12.854  13.682  64.997  1.00  0.00    -0.325 C  
HETATM   16  C   UNL     1     -12.607  12.812  63.768  1.00  0.00    -0.387 C  
HETATM   17  C   UNL     1     -11.317  12.000  63.867  1.00  0.00    -0.503 C  
HETATM   18  H   UNL     1      -9.205  15.120  65.030  1.00  0.00     0.000 HD 
BRANCH   9  19
HETATM   19  N   UNL     1     -11.255  12.662  69.338  1.00  0.00    -0.186 NA 
HETATM   20  C   UNL     1     -11.896  11.389  69.000  1.00  0.00    -0.348 C  
HETATM   21  C   UNL     1     -12.123  13.405  70.258  1.00  0.00    -0.349 C  
ENDBRANCH   9  19
ENDBRANCH   2   3
TORSDOF 2
ENDMDL
MODEL       69
REMARK 921   NORMALIZED FREE ENERGY PREDICTED BY IDOCK:   -4.17 KCAL/MOL
REMARK 922        TOTAL FREE ENERGY PREDICTED BY IDOCK:   -4.90 KCAL/MOL
REMARK 923 INTER-LIGAND FREE ENERGY PREDICTED BY IDOCK:   -4.72 KCAL/MOL
REMARK 924 INTRA-LIGAND FREE ENERGY PREDICTED BY IDOCK:   -0.18 KCAL/MOL
REMARK 927      BINDING AFFINITY PREDICTED BY RF-SCORE:    0.00 PKD
ROOT
HETATM    1  C   UNL     1     -11.724  16.002  69.985  1.00  0.00    -0.278 C  
HETATM    2  O   UNL     1     -11.513  15.467  68.683  1.00  0.00    -0.322 OA 
ENDROOT
BRANCH   2   3
HETATM    3  C   UNL     1     -11.078  14.173  68.615  1.00  0.00    -0.262 A  
HETATM    4  C   UNL     1     -11.859  13.040  68.805  1.00  0.00    -0.355 A  
HETATM    5  C   UNL     1     -11.298  11.764  68.687  1.00  0.00    -0.327 A  
HETATM    6  C   UNL     1      -9.932  11.582  68.408  1.00  0.00    -0.206 A  
HETATM    7  C   UNL     1      -9.155  12.732  68.224  1.00  0.00    -0.180 A  
HETATM    8  C   UNL     1      -9.363  10.152  68.317  1.00  0.00    -0.136 C  
HETATM    9  C   UNL     1      -8.227   9.998  67.250  1.00  0.00    -0.117 C  
HETATM   10  C   UNL     1      -9.724  14.011  68.318  1.00  0.00    -0.225 A  
HETATM   11  C   UNL     1      -8.929   9.568  69.728  1.00  0.00    -0.200 C  
HETATM   12  O   UNL     1      -7.908  10.402  70.296  1.00  0.00    -0.416 OA 
HETATM   13  C   UNL     1     -10.095   9.470  70.743  1.00  0.00    -0.352 C  
HETATM   14  C   UNL     1      -8.320   8.145  69.649  1.00  0.00    -0.125 C  
HETATM   15  C   UNL     1      -9.329   7.095  69.188  1.00  0.00    -0.141 C  
HETATM   16  C   UNL     1     -10.554   7.060  70.096  1.00  0.00    -0.249 C  
HETATM   17  C   UNL     1     -11.156   8.443  70.332  1.00  0.00    -0.240 C  
HETATM   18  H   UNL     1      -7.648  10.052  71.140  1.00  0.00     0.000 HD 
BRANCH   9  19
HETATM   19  N   UNL     1      -8.580  10.388  65.865  1.00  0.00    -0.152 NA 
HETATM   20  C   UNL     1      -9.763   9.672  65.381  1.00  0.00    -0.295 C  
HETATM   21  C   UNL     1      -7.454  10.114  64.965  1.00  0.00    -0.140 C  
ENDBRANCH   9  19
ENDBRANCH   2   3
TORSDOF 2
ENDMDL
MODEL       70
REMARK 921   NORMALIZED FREE ENERGY PREDICTED BY IDOCK:   -4.16 KCAL/MOL
REMARK 922        TOTAL FREE ENERGY PREDICTED BY IDOCK:   -4.89 KCAL/MOL
REMARK 923 INTER-LIGAND FREE ENERGY PREDICTED BY IDOCK:   -4.77 KCAL/MOL
REMARK 924 INTRA-LIGAND FREE ENERGY PREDICTED BY IDOCK:   -0.13 KCAL/MOL
REMARK 927      BINDING AFFINITY PREDICTED BY RF-SCORE:    0.00 PKD
ROOT
HETATM    1  C   UNL     1      -9.763   5.476  66.639  1.00  0.00    -0.159 C  
HETATM    2  O   UNL     1      -8.705   6.362  66.984  1.00  0.00    -0.114 OA 
ENDROOT
BRANCH   2   3
HETATM    3  C   UNL     1      -8.937   7.697  66.797  1.00  0.00    -0.144 A  
HETATM    4  C   UNL     1      -7.966   8.677  66.631  1.00  0.00    -0.096 A  
HETATM    5  C   UNL     1      -8.334  10.011  66.424  1.00  0.00    -0.126 A  
HETATM    6  C   UNL     1      -9.681  10.410  66.408  1.00  0.00    -0.250 A  
HETATM    7  C   UNL     1     -10.650   9.413  66.581  1.00  0.00    -0.170 A  
HETATM    8  C   UNL     1     -10.026  11.899  66.203  1.00  0.00    -0.254 C  
HETATM    9  C   UNL     1     -11.341  12.129  65.384  1.00  0.00    -0.338 C  
HETATM   10  C   UNL     1     -10.281   8.073  66.763  1.00  0.00    -0.367 A  
HETATM   11  C   UNL     1     -10.023  12.727  67.558  1.00  0.00    -0.210 C  
HETATM   12  O   UNL     1     -11.001  12.179  68.454  1.00  0.00    -0.209 OA 
HETATM   13  C   UNL     1      -8.652  12.730  68.279  1.00  0.00    -0.166 C  
HETATM   14  C   UNL     1     -10.405  14.217  67.374  1.00  0.00    -0.259 C  
HETATM   15  C   UNL     1      -9.380  14.992  66.548  1.00  0.00    -0.309 C  
HETATM   16  C   UNL     1      -7.986  14.910  67.164  1.00  0.00    -0.227 C  
HETATM   17  C   UNL     1      -7.570  13.478  67.494  1.00  0.00    -0.176 C  
HETATM   18  H   UNL     1     -11.000  12.674  69.264  1.00  0.00     0.000 HD 
BRANCH   9  19
HETATM   19  N   UNL     1     -11.385  11.510  64.040  1.00  0.00    -0.347 NA 
HETATM   20  C   UNL     1     -10.145  11.734  63.294  1.00  0.00    -0.420 C  
HETATM   21  C   UNL     1     -12.510  12.056  63.272  1.00  0.00    -0.425 C  
ENDBRANCH   9  19
ENDBRANCH   2   3
TORSDOF 2
ENDMDL
MODEL       71
REMARK 921   NORMALIZED FREE ENERGY PREDICTED BY IDOCK:   -4.11 KCAL/MOL
REMARK 922        TOTAL FREE ENERGY PREDICTED BY IDOCK:   -4.83 KCAL/MOL
REMARK 923 INTER-LIGAND FREE ENERGY PREDICTED BY IDOCK:   -4.58 KCAL/MOL
REMARK 924 INTRA-LIGAND FREE ENERGY PREDICTED BY IDOCK:   -0.25 KCAL/MOL
REMARK 927      BINDING AFFINITY PREDICTED BY RF-SCORE:    0.00 PKD
ROOT
HETATM    1  C   UNL     1     -13.872  13.470  72.118  1.00  0.00    -0.533 C  
HETATM    2  O   UNL     1     -13.209  14.035  70.993  1.00  0.00    -0.308 OA 
ENDROOT
BRANCH   2   3
HETATM    3  C   UNL     1     -12.344  13.219  70.318  1.00  0.00    -0.264 A  
HETATM    4  C   UNL     1     -11.453  13.617  69.329  1.00  0.00    -0.344 A  
HETATM    5  C   UNL     1     -10.601  12.685  68.726  1.00  0.00    -0.214 A  
HETATM    6  C   UNL     1     -10.637  11.322  69.070  1.00  0.00    -0.241 A  
HETATM    7  C   UNL     1     -11.543  10.934  70.065  1.00  0.00    -0.424 A  
HETATM    8  C   UNL     1      -9.693  10.337  68.352  1.00  0.00    -0.165 C  
HETATM    9  C   UNL     1      -9.181   9.178  69.274  1.00  0.00    -0.146 C  
HETATM   10  C   UNL     1     -12.379  11.873  70.686  1.00  0.00    -0.405 A  
HETATM   11  C   UNL     1     -10.295   9.784  66.991  1.00  0.00    -0.239 C  
HETATM   12  O   UNL     1     -11.521   9.088  67.259  1.00  0.00     0.183 OA 
HETATM   13  C   UNL     1     -10.585  10.892  65.947  1.00  0.00    -0.244 C  
HETATM   14  C   UNL     1      -9.375   8.763  66.275  1.00  0.00    -0.283 C  
HETATM   15  C   UNL     1      -8.065   9.384  65.794  1.00  0.00    -0.114 C  
HETATM   16  C   UNL     1      -8.316  10.564  64.860  1.00  0.00    -0.135 C  
HETATM   17  C   UNL     1      -9.311  11.570  65.432  1.00  0.00    -0.177 C  
HETATM   18  H   UNL     1     -11.881   8.757  66.445  1.00  0.00     0.000 HD 
BRANCH   9  19
HETATM   19  N   UNL     1      -8.477   9.594  70.508  1.00  0.00    -0.196 NA 
HETATM   20  C   UNL     1      -7.054   9.846  70.267  1.00  0.00    -0.151 C  
HETATM   21  C   UNL     1      -8.611   8.556  71.536  1.00  0.00    -0.181 C  
ENDBRANCH   9  19
ENDBRANCH   2   3
TORSDOF 2
ENDMDL
MODEL       72
REMARK 921   NORMALIZED FREE ENERGY PREDICTED BY IDOCK:   -4.09 KCAL/MOL
REMARK 922        TOTAL FREE ENERGY PREDICTED BY IDOCK:   -4.82 KCAL/MOL
REMARK 923 INTER-LIGAND FREE ENERGY PREDICTED BY IDOCK:   -4.58 KCAL/MOL
REMARK 924 INTRA-LIGAND FREE ENERGY PREDICTED BY IDOCK:   -0.24 KCAL/MOL
REMARK 927      BINDING AFFINITY PREDICTED BY RF-SCORE:    0.00 PKD
ROOT
HETATM    1  C   UNL     1     -12.190  11.200  70.207  1.00  0.00    -0.352 C  
HETATM    2  O   UNL     1     -12.244  10.505  71.447  1.00  0.00    -0.354 OA 
ENDROOT
BRANCH   2   3
HETATM    3  C   UNL     1     -11.726   9.240  71.463  1.00  0.00    -0.380 A  
HETATM    4  C   UNL     1     -12.443   8.068  71.673  1.00  0.00    -0.347 A  
HETATM    5  C   UNL     1     -11.798   6.827  71.644  1.00  0.00    -0.370 A  
HETATM    6  C   UNL     1     -10.411   6.722  71.436  1.00  0.00    -0.238 A  
HETATM    7  C   UNL     1      -9.699   7.910  71.231  1.00  0.00    -0.187 A  
HETATM    8  C   UNL     1      -9.750   5.329  71.442  1.00  0.00    -0.219 C  
HETATM    9  C   UNL     1      -8.556   5.200  70.436  1.00  0.00    -0.113 C  
HETATM   10  C   UNL     1     -10.352   9.152  71.236  1.00  0.00    -0.405 A  
HETATM   11  C   UNL     1      -9.349   4.840  72.898  1.00  0.00    -0.127 C  
HETATM   12  O   UNL     1      -8.411   5.764  73.470  1.00  0.00    -0.112 OA 
HETATM   13  C   UNL     1     -10.554   4.714  73.863  1.00  0.00    -0.337 C  
HETATM   14  C   UNL     1      -8.648   3.458  72.918  1.00  0.00    -0.083 C  
HETATM   15  C   UNL     1      -9.566   2.325  72.463  1.00  0.00    -0.165 C  
HETATM   16  C   UNL     1     -10.830   2.252  73.316  1.00  0.00    -0.282 C  
HETATM   17  C   UNL     1     -11.527   3.603  73.456  1.00  0.00    -0.159 C  
HETATM   18  H   UNL     1      -8.170   5.472  74.341  1.00  0.00     0.000 HD 
BRANCH   9  19
HETATM   19  N   UNL     1      -8.865   5.501  69.020  1.00  0.00    -0.105 NA 
HETATM   20  C   UNL     1      -9.268   4.301  68.281  1.00  0.00    -0.142 C  
HETATM   21  C   UNL     1      -7.693   6.093  68.365  1.00  0.00    -0.103 C  
ENDBRANCH   9  19
ENDBRANCH   2   3
TORSDOF 2
ENDMDL
MODEL       73
REMARK 921   NORMALIZED FREE ENERGY PREDICTED BY IDOCK:   -4.09 KCAL/MOL
REMARK 922        TOTAL FREE ENERGY PREDICTED BY IDOCK:   -4.82 KCAL/MOL
REMARK 923 INTER-LIGAND FREE ENERGY PREDICTED BY IDOCK:   -4.60 KCAL/MOL
REMARK 924 INTRA-LIGAND FREE ENERGY PREDICTED BY IDOCK:   -0.22 KCAL/MOL
REMARK 927      BINDING AFFINITY PREDICTED BY RF-SCORE:    0.00 PKD
ROOT
HETATM    1  C   UNL     1     -12.710  15.254  70.146  1.00  0.00    -0.242 C  
HETATM    2  O   UNL     1     -12.742  13.835  70.052  1.00  0.00    -0.213 OA 
ENDROOT
BRANCH   2   3
HETATM    3  C   UNL     1     -11.897  13.262  69.143  1.00  0.00    -0.329 A  
HETATM    4  C   UNL     1     -11.583  13.770  67.889  1.00  0.00    -0.376 A  
HETATM    5  C   UNL     1     -10.683  13.097  67.056  1.00  0.00    -0.270 A  
HETATM    6  C   UNL     1     -10.093  11.880  67.438  1.00  0.00    -0.211 A  
HETATM    7  C   UNL     1     -10.421  11.376  68.704  1.00  0.00    -0.224 A  
HETATM    8  C   UNL     1      -9.129  11.169  66.468  1.00  0.00    -0.193 C  
HETATM    9  C   UNL     1      -7.956  10.421  67.188  1.00  0.00    -0.115 C  
HETATM   10  C   UNL     1     -11.305  12.064  69.548  1.00  0.00    -0.298 A  
HETATM   11  C   UNL     1      -9.877  10.229  65.430  1.00  0.00    -0.296 C  
HETATM   12  O   UNL     1     -10.599   9.212  66.141  1.00  0.00    -0.109 OA 
HETATM   13  C   UNL     1     -10.877  10.985  64.518  1.00  0.00    -0.257 C  
HETATM   14  C   UNL     1      -8.920   9.478  64.471  1.00  0.00    -0.256 C  
HETATM   15  C   UNL     1      -8.164  10.418  63.534  1.00  0.00    -0.135 C  
HETATM   16  C   UNL     1      -9.122  11.273  62.708  1.00  0.00    -0.327 C  
HETATM   17  C   UNL     1     -10.185  11.961  63.561  1.00  0.00    -0.485 C  
HETATM   18  H   UNL     1     -11.047   8.650  65.520  1.00  0.00     0.000 HD 
BRANCH   9  19
HETATM   19  N   UNL     1      -7.107  11.248  68.076  1.00  0.00    -0.068 NA 
HETATM   20  C   UNL     1      -6.404  12.299  67.337  1.00  0.00    -0.152 C  
HETATM   21  C   UNL     1      -6.121  10.402  68.758  1.00  0.00    -0.040 C  
ENDBRANCH   9  19
ENDBRANCH   2   3
TORSDOF 2
ENDMDL
MODEL       74
REMARK 921   NORMALIZED FREE ENERGY PREDICTED BY IDOCK:   -4.07 KCAL/MOL
REMARK 922        TOTAL FREE ENERGY PREDICTED BY IDOCK:   -4.79 KCAL/MOL
REMARK 923 INTER-LIGAND FREE ENERGY PREDICTED BY IDOCK:   -4.64 KCAL/MOL
REMARK 924 INTRA-LIGAND FREE ENERGY PREDICTED BY IDOCK:   -0.15 KCAL/MOL
REMARK 927      BINDING AFFINITY PREDICTED BY RF-SCORE:    0.00 PKD
ROOT
HETATM    1  C   UNL     1     -11.554  12.738  68.052  1.00  0.00    -0.341 C  
HETATM    2  O   UNL     1     -10.441  12.927  67.186  1.00  0.00    -0.236 OA 
ENDROOT
BRANCH   2   3
HETATM    3  C   UNL     1      -9.865  14.166  67.192  1.00  0.00    -0.253 A  
HETATM    4  C   UNL     1      -9.413  14.859  66.075  1.00  0.00    -0.316 A  
HETATM    5  C   UNL     1      -8.859  16.137  66.209  1.00  0.00    -0.371 A  
HETATM    6  C   UNL     1      -8.710  16.747  67.467  1.00  0.00    -0.206 A  
HETATM    7  C   UNL     1      -9.165  16.036  68.585  1.00  0.00    -0.216 A  
HETATM    8  C   UNL     1      -8.067  18.145  67.557  1.00  0.00    -0.238 C  
HETATM    9  C   UNL     1      -8.678  19.042  68.687  1.00  0.00    -0.352 C  
HETATM   10  C   UNL     1      -9.743  14.766  68.446  1.00  0.00    -0.214 A  
HETATM   11  C   UNL     1      -6.482  18.094  67.637  1.00  0.00    -0.189 C  
HETATM   12  O   UNL     1      -6.088  17.363  68.808  1.00  0.00    -0.162 OA 
HETATM   13  C   UNL     1      -5.821  17.429  66.405  1.00  0.00    -0.244 C  
HETATM   14  C   UNL     1      -5.822  19.490  67.767  1.00  0.00    -0.209 C  
HETATM   15  C   UNL     1      -6.031  20.359  66.528  1.00  0.00    -0.215 C  
HETATM   16  C   UNL     1      -5.503  19.676  65.269  1.00  0.00    -0.194 C  
HETATM   17  C   UNL     1      -6.007  18.242  65.120  1.00  0.00    -0.170 C  
HETATM   18  H   UNL     1      -5.140  17.332  68.856  1.00  0.00     0.000 HD 
BRANCH   9  19
HETATM   19  N   UNL     1     -10.139  19.268  68.619  1.00  0.00    -0.426 NA 
HETATM   20  C   UNL     1     -10.569  19.661  67.274  1.00  0.00    -0.472 C  
HETATM   21  C   UNL     1     -10.531  20.313  69.570  1.00  0.00     0.386 C  
ENDBRANCH   9  19
ENDBRANCH   2   3
TORSDOF 2
ENDMDL
MODEL       75
REMARK 921   NORMALIZED FREE ENERGY PREDICTED BY IDOCK:   -4.07 KCAL/MOL
REMARK 922        TOTAL FREE ENERGY PREDICTED BY IDOCK:   -4.79 KCAL/MOL
REMARK 923 INTER-LIGAND FREE ENERGY PREDICTED BY IDOCK:   -4.64 KCAL/MOL
REMARK 924 INTRA-LIGAND FREE ENERGY PREDICTED BY IDOCK:   -0.14 KCAL/MOL
REMARK 927      BINDING AFFINITY PREDICTED BY RF-SCORE:    0.00 PKD
ROOT
HETATM    1  C   UNL     1     -11.886  14.213  69.613  1.00  0.00    -0.324 C  
HETATM    2  O   UNL     1     -12.586  12.986  69.787  1.00  0.00    -0.017 OA 
ENDROOT
BRANCH   2   3
HETATM    3  C   UNL     1     -11.841  11.842  69.717  1.00  0.00    -0.349 A  
HETATM    4  C   UNL     1     -10.893  11.545  68.745  1.00  0.00    -0.258 A  
HETATM    5  C   UNL     1     -10.178  10.343  68.796  1.00  0.00    -0.201 A  
HETATM    6  C   UNL     1     -10.412   9.388  69.801  1.00  0.00    -0.243 A  
HETATM    7  C   UNL     1     -11.373   9.698  70.772  1.00  0.00    -0.409 A  
HETATM    8  C   UNL     1      -9.614   8.069  69.791  1.00  0.00    -0.171 C  
HETATM    9  C   UNL     1      -9.281   7.530  71.224  1.00  0.00    -0.149 C  
HETATM   10  C   UNL     1     -12.071  10.914  70.734  1.00  0.00    -0.469 A  
HETATM   11  C   UNL     1     -10.276   6.952  68.880  1.00  0.00    -0.177 C  
HETATM   12  O   UNL     1     -11.592   6.654  69.371  1.00  0.00    -0.613 OA 
HETATM   13  C   UNL     1     -10.395   7.358  67.389  1.00  0.00    -0.340 C  
HETATM   14  C   UNL     1      -9.506   5.607  68.888  1.00  0.00    -0.157 C  
HETATM   15  C   UNL     1      -8.117   5.718  68.263  1.00  0.00    -0.108 C  
HETATM   16  C   UNL     1      -8.187   6.239  66.831  1.00  0.00    -0.109 C  
HETATM   17  C   UNL     1      -9.033   7.504  66.703  1.00  0.00    -0.177 C  
HETATM   18  H   UNL     1     -11.989   5.985  68.825  1.00  0.00     0.000 HD 
BRANCH   9  19
HETATM   19  N   UNL     1      -8.535   8.453  72.108  1.00  0.00    -0.186 NA 
HETATM   20  C   UNL     1      -7.370   9.033  71.435  1.00  0.00    -0.036 C  
HETATM   21  C   UNL     1      -8.087   7.743  73.311  1.00  0.00    -0.148 C  
ENDBRANCH   9  19
ENDBRANCH   2   3
TORSDOF 2
ENDMDL
MODEL       76
REMARK 921   NORMALIZED FREE ENERGY PREDICTED BY IDOCK:   -4.04 KCAL/MOL
REMARK 922        TOTAL FREE ENERGY PREDICTED BY IDOCK:   -4.75 KCAL/MOL
REMARK 923 INTER-LIGAND FREE ENERGY PREDICTED BY IDOCK:   -4.59 KCAL/MOL
REMARK 924 INTRA-LIGAND FREE ENERGY PREDICTED BY IDOCK:   -0.16 KCAL/MOL
REMARK 927      BINDING AFFINITY PREDICTED BY RF-SCORE:    0.00 PKD
ROOT
HETATM    1  C   UNL     1      -8.110   7.554  64.456  1.00  0.00    -0.086 C  
HETATM    2  O   UNL     1      -7.568   7.966  65.706  1.00  0.00    -0.078 OA 
ENDROOT
BRANCH   2   3
HETATM    3  C   UNL     1      -8.147   9.054  66.296  1.00  0.00    -0.110 A  
HETATM    4  C   UNL     1      -8.521   9.154  67.631  1.00  0.00    -0.116 A  
HETATM    5  C   UNL     1      -9.088  10.335  68.121  1.00  0.00    -0.136 A  
HETATM    6  C   UNL     1      -9.326  11.441  67.287  1.00  0.00    -0.173 A  
HETATM    7  C   UNL     1      -8.948  11.326  65.943  1.00  0.00    -0.206 A  
HETATM    8  C   UNL     1      -9.979  12.707  67.877  1.00  0.00    -0.228 C  
HETATM    9  C   UNL     1      -9.451  14.037  67.239  1.00  0.00    -0.231 C  
HETATM   10  C   UNL     1      -8.358  10.150  65.458  1.00  0.00    -0.160 A  
HETATM   11  C   UNL     1     -11.565  12.643  67.879  1.00  0.00    -0.349 C  
HETATM   12  O   UNL     1     -12.038  12.504  66.530  1.00  0.00    -0.572 OA 
HETATM   13  C   UNL     1     -12.137  11.471  68.716  1.00  0.00    -0.234 C  
HETATM   14  C   UNL     1     -12.237  13.923  68.434  1.00  0.00    -0.194 C  
HETATM   15  C   UNL     1     -11.945  14.148  69.916  1.00  0.00    -0.398 C  
HETATM   16  C   UNL     1     -12.381  12.954  70.760  1.00  0.00    -0.385 C  
HETATM   17  C   UNL     1     -11.864  11.625  70.216  1.00  0.00    -0.414 C  
HETATM   18  H   UNL     1     -12.987  12.465  66.531  1.00  0.00     0.000 HD 
BRANCH   9  19
HETATM   19  N   UNL     1      -7.989  14.257  67.313  1.00  0.00    -0.191 NA 
HETATM   20  C   UNL     1      -7.473  14.053  68.669  1.00  0.00    -0.125 C  
HETATM   21  C   UNL     1      -7.665  15.621  66.879  1.00  0.00    -0.203 C  
ENDBRANCH   9  19
ENDBRANCH   2   3
TORSDOF 2
ENDMDL
MODEL       77
REMARK 921   NORMALIZED FREE ENERGY PREDICTED BY IDOCK:   -4.03 KCAL/MOL
REMARK 922        TOTAL FREE ENERGY PREDICTED BY IDOCK:   -4.75 KCAL/MOL
REMARK 923 INTER-LIGAND FREE ENERGY PREDICTED BY IDOCK:   -4.62 KCAL/MOL
REMARK 924 INTRA-LIGAND FREE ENERGY PREDICTED BY IDOCK:   -0.13 KCAL/MOL
REMARK 927      BINDING AFFINITY PREDICTED BY RF-SCORE:    0.00 PKD
ROOT
HETATM    1  C   UNL     1     -10.755   5.483  71.488  1.00  0.00    -0.222 C  
HETATM    2  O   UNL     1     -11.714   6.180  70.702  1.00  0.00    -0.284 OA 
ENDROOT
BRANCH   2   3
HETATM    3  C   UNL     1     -11.228   6.928  69.665  1.00  0.00    -0.242 A  
HETATM    4  C   UNL     1     -11.110   6.511  68.345  1.00  0.00    -0.340 A  
HETATM    5  C   UNL     1     -10.615   7.382  67.368  1.00  0.00    -0.371 A  
HETATM    6  C   UNL     1     -10.194   8.685  67.687  1.00  0.00    -0.300 A  
HETATM    7  C   UNL     1     -10.315   9.091  69.022  1.00  0.00    -0.233 A  
HETATM    8  C   UNL     1      -9.632   9.591  66.573  1.00  0.00    -0.259 C  
HETATM    9  C   UNL     1      -9.994  11.104  66.757  1.00  0.00    -0.208 C  
HETATM   10  C   UNL     1     -10.834   8.226  69.996  1.00  0.00    -0.232 A  
HETATM   11  C   UNL     1      -8.077   9.383  66.332  1.00  0.00    -0.108 C  
HETATM   12  O   UNL     1      -7.362   9.689  67.538  1.00  0.00    -0.089 OA 
HETATM   13  C   UNL     1      -7.705   7.942  65.901  1.00  0.00    -0.093 C  
HETATM   14  C   UNL     1      -7.488  10.313  65.242  1.00  0.00    -0.141 C  
HETATM   15  C   UNL     1      -8.049  10.022  63.851  1.00  0.00    -0.152 C  
HETATM   16  C   UNL     1      -7.812   8.570  63.444  1.00  0.00    -0.150 C  
HETATM   17  C   UNL     1      -8.252   7.576  64.517  1.00  0.00    -0.036 C  
HETATM   18  H   UNL     1      -6.431   9.565  67.394  1.00  0.00     0.000 HD 
BRANCH   9  19
HETATM   19  N   UNL     1     -11.438  11.419  66.852  1.00  0.00    -0.466 NA 
HETATM   20  C   UNL     1     -11.892  12.242  65.728  1.00  0.00    -0.352 C  
HETATM   21  C   UNL     1     -11.715  12.128  68.105  1.00  0.00    -0.341 C  
ENDBRANCH   9  19
ENDBRANCH   2   3
TORSDOF 2
ENDMDL
MODEL       78
REMARK 921   NORMALIZED FREE ENERGY PREDICTED BY IDOCK:   -4.03 KCAL/MOL
REMARK 922        TOTAL FREE ENERGY PREDICTED BY IDOCK:   -4.74 KCAL/MOL
REMARK 923 INTER-LIGAND FREE ENERGY PREDICTED BY IDOCK:   -4.51 KCAL/MOL
REMARK 924 INTRA-LIGAND FREE ENERGY PREDICTED BY IDOCK:   -0.23 KCAL/MOL
REMARK 927      BINDING AFFINITY PREDICTED BY RF-SCORE:    0.00 PKD
ROOT
HETATM    1  C   UNL     1      -5.835   9.379  62.451  1.00  0.00    -0.089 C  
HETATM    2  O   UNL     1      -7.208   9.754  62.481  1.00  0.00    -0.107 OA 
ENDROOT
BRANCH   2   3
HETATM    3  C   UNL     1      -7.783   9.873  63.716  1.00  0.00    -0.143 A  
HETATM    4  C   UNL     1      -7.107   9.906  64.929  1.00  0.00    -0.132 A  
HETATM    5  C   UNL     1      -7.811  10.054  66.129  1.00  0.00    -0.114 A  
HETATM    6  C   UNL     1      -9.214  10.141  66.155  1.00  0.00    -0.196 A  
HETATM    7  C   UNL     1      -9.883  10.102  64.925  1.00  0.00    -0.390 A  
HETATM    8  C   UNL     1      -9.938  10.275  67.509  1.00  0.00    -0.226 C  
HETATM    9  C   UNL     1     -11.222  11.171  67.445  1.00  0.00    -0.294 C  
HETATM   10  C   UNL     1      -9.174   9.979  63.721  1.00  0.00    -0.314 A  
HETATM   11  C   UNL     1     -10.231   8.874  68.196  1.00  0.00    -0.201 C  
HETATM   12  O   UNL     1     -11.069   8.088  67.336  1.00  0.00    -0.486 OA 
HETATM   13  C   UNL     1      -8.952   8.057  68.506  1.00  0.00    -0.133 C  
HETATM   14  C   UNL     1     -10.993   8.990  69.540  1.00  0.00    -0.118 C  
HETATM   15  C   UNL     1     -10.175   9.690  70.624  1.00  0.00    -0.346 C  
HETATM   16  C   UNL     1      -8.845   8.981  70.867  1.00  0.00    -0.294 C  
HETATM   17  C   UNL     1      -8.074   8.713  69.577  1.00  0.00    -0.110 C  
HETATM   18  H   UNL     1     -11.245   7.249  67.747  1.00  0.00     0.000 HD 
BRANCH   9  19
HETATM   19  N   UNL     1     -11.027  12.551  66.946  1.00  0.00    -0.249 NA 
HETATM   20  C   UNL     1     -10.845  13.507  68.042  1.00  0.00    -0.250 C  
HETATM   21  C   UNL     1     -12.181  12.962  66.140  1.00  0.00    -0.317 C  
ENDBRANCH   9  19
ENDBRANCH   2   3
TORSDOF 2
ENDMDL
MODEL       79
REMARK 921   NORMALIZED FREE ENERGY PREDICTED BY IDOCK:   -4.01 KCAL/MOL
REMARK 922        TOTAL FREE ENERGY PREDICTED BY IDOCK:   -4.73 KCAL/MOL
REMARK 923 INTER-LIGAND FREE ENERGY PREDICTED BY IDOCK:   -4.51 KCAL/MOL
REMARK 924 INTRA-LIGAND FREE ENERGY PREDICTED BY IDOCK:   -0.22 KCAL/MOL
REMARK 927      BINDING AFFINITY PREDICTED BY RF-SCORE:    0.00 PKD
ROOT
HETATM    1  C   UNL     1     -11.719   5.943  72.456  1.00  0.00    -0.236 C  
HETATM    2  O   UNL     1     -12.449   6.874  71.665  1.00  0.00    -0.350 OA 
ENDROOT
BRANCH   2   3
HETATM    3  C   UNL     1     -11.718   7.685  70.843  1.00  0.00    -0.271 A  
HETATM    4  C   UNL     1     -11.116   7.306  69.650  1.00  0.00    -0.161 A  
HETATM    5  C   UNL     1     -10.409   8.240  68.884  1.00  0.00    -0.230 A  
HETATM    6  C   UNL     1     -10.256   9.573  69.304  1.00  0.00    -0.212 A  
HETATM    7  C   UNL     1     -10.865   9.941  70.511  1.00  0.00    -0.391 A  
HETATM    8  C   UNL     1      -9.443  10.550  68.432  1.00  0.00    -0.158 C  
HETATM    9  C   UNL     1      -9.998  12.016  68.454  1.00  0.00    -0.208 C  
HETATM   10  C   UNL     1     -11.594   9.010  71.265  1.00  0.00    -0.387 A  
HETATM   11  C   UNL     1      -7.887  10.505  68.738  1.00  0.00    -0.116 C  
HETATM   12  O   UNL     1      -7.660  10.861  70.110  1.00  0.00    -0.399 OA 
HETATM   13  C   UNL     1      -7.246   9.117  68.486  1.00  0.00    -0.073 C  
HETATM   14  C   UNL     1      -7.059  11.510  67.898  1.00  0.00    -0.076 C  
HETATM   15  C   UNL     1      -7.081  11.188  66.404  1.00  0.00    -0.091 C  
HETATM   16  C   UNL     1      -6.573   9.775  66.129  1.00  0.00    -0.080 C  
HETATM   17  C   UNL     1      -7.249   8.723  67.005  1.00  0.00    -0.079 C  
HETATM   18  H   UNL     1      -6.728  10.834  70.294  1.00  0.00     0.000 HD 
BRANCH   9  19
HETATM   19  N   UNL     1     -11.411  12.181  68.046  1.00  0.00    -0.296 NA 
HETATM   20  C   UNL     1     -11.574  12.098  66.593  1.00  0.00    -0.350 C  
HETATM   21  C   UNL     1     -11.919  13.477  68.510  1.00  0.00    -0.344 C  
ENDBRANCH   9  19
ENDBRANCH   2   3
TORSDOF 2
ENDMDL
MODEL       80
REMARK 921   NORMALIZED FREE ENERGY PREDICTED BY IDOCK:   -4.00 KCAL/MOL
REMARK 922        TOTAL FREE ENERGY PREDICTED BY IDOCK:   -4.71 KCAL/MOL
REMARK 923 INTER-LIGAND FREE ENERGY PREDICTED BY IDOCK:   -4.48 KCAL/MOL
REMARK 924 INTRA-LIGAND FREE ENERGY PREDICTED BY IDOCK:   -0.23 KCAL/MOL
REMARK 927      BINDING AFFINITY PREDICTED BY RF-SCORE:    0.00 PKD
ROOT
HETATM    1  C   UNL     1     -13.144  11.407  71.709  1.00  0.00    -0.418 C  
HETATM    2  O   UNL     1     -13.242  10.075  72.200  1.00  0.00    -0.442 OA 
ENDROOT
BRANCH   2   3
HETATM    3  C   UNL     1     -12.336   9.175  71.713  1.00  0.00    -0.372 A  
HETATM    4  C   UNL     1     -11.031   9.458  71.331  1.00  0.00    -0.443 A  
HETATM    5  C   UNL     1     -10.191   8.440  70.866  1.00  0.00    -0.234 A  
HETATM    6  C   UNL     1     -10.641   7.114  70.738  1.00  0.00    -0.240 A  
HETATM    7  C   UNL     1     -11.960   6.843  71.122  1.00  0.00    -0.413 A  
HETATM    8  C   UNL     1      -9.679   6.039  70.193  1.00  0.00    -0.204 C  
HETATM    9  C   UNL     1      -9.884   4.630  70.846  1.00  0.00    -0.202 C  
HETATM   10  C   UNL     1     -12.793   7.860  71.612  1.00  0.00    -0.357 A  
HETATM   11  C   UNL     1      -9.674   5.959  68.608  1.00  0.00    -0.127 C  
HETATM   12  O   UNL     1     -10.992   5.633  68.143  1.00  0.00    -0.172 OA 
HETATM   13  C   UNL     1      -9.230   7.276  67.923  1.00  0.00    -0.131 C  
HETATM   14  C   UNL     1      -8.741   4.857  68.046  1.00  0.00    -0.107 C  
HETATM   15  C   UNL     1      -7.266   5.127  68.337  1.00  0.00    -0.063 C  
HETATM   16  C   UNL     1      -6.825   6.480  67.785  1.00  0.00    -0.080 C  
HETATM   17  C   UNL     1      -7.760   7.617  68.189  1.00  0.00    -0.119 C  
HETATM   18  H   UNL     1     -10.989   5.585  67.194  1.00  0.00     0.000 HD 
BRANCH   9  19
HETATM   19  N   UNL     1      -9.768   4.574  72.321  1.00  0.00    -0.156 NA 
HETATM   20  C   UNL     1      -8.438   4.132  72.748  1.00  0.00    -0.100 C  
HETATM   21  C   UNL     1     -10.774   3.658  72.870  1.00  0.00    -0.101 C  
ENDBRANCH   9  19
ENDBRANCH   2   3
TORSDOF 2
ENDMDL
MODEL       81
REMARK 921   NORMALIZED FREE ENERGY PREDICTED BY IDOCK:   -3.99 KCAL/MOL
REMARK 922        TOTAL FREE ENERGY PREDICTED BY IDOCK:   -4.70 KCAL/MOL
REMARK 923 INTER-LIGAND FREE ENERGY PREDICTED BY IDOCK:   -4.48 KCAL/MOL
REMARK 924 INTRA-LIGAND FREE ENERGY PREDICTED BY IDOCK:   -0.22 KCAL/MOL
REMARK 927      BINDING AFFINITY PREDICTED BY RF-SCORE:    0.00 PKD
ROOT
HETATM    1  C   UNL     1     -12.520  15.053  64.197  1.00  0.00    -0.026 C  
HETATM    2  O   UNL     1     -12.803  13.849  64.902  1.00  0.00    -0.687 OA 
ENDROOT
BRANCH   2   3
HETATM    3  C   UNL     1     -11.803  13.351  65.689  1.00  0.00    -0.370 A  
HETATM    4  C   UNL     1     -11.211  14.004  66.764  1.00  0.00    -0.323 A  
HETATM    5  C   UNL     1     -10.207  13.376  67.509  1.00  0.00    -0.226 A  
HETATM    6  C   UNL     1      -9.741  12.090  67.182  1.00  0.00    -0.203 A  
HETATM    7  C   UNL     1     -10.343  11.445  66.094  1.00  0.00    -0.294 A  
HETATM    8  C   UNL     1      -8.613  11.459  68.022  1.00  0.00    -0.147 C  
HETATM    9  C   UNL     1      -8.750   9.907  68.187  1.00  0.00    -0.122 C  
HETATM   10  C   UNL     1     -11.367  12.066  65.364  1.00  0.00    -0.375 A  
HETATM   11  C   UNL     1      -7.164  11.872  67.522  1.00  0.00    -0.125 C  
HETATM   12  O   UNL     1      -6.985  11.438  66.166  1.00  0.00    -0.359 OA 
HETATM   13  C   UNL     1      -6.900  13.398  67.581  1.00  0.00    -0.172 C  
HETATM   14  C   UNL     1      -6.018  11.216  68.332  1.00  0.00    -0.045 C  
HETATM   15  C   UNL     1      -5.978  11.685  69.786  1.00  0.00    -0.123 C  
HETATM   16  C   UNL     1      -5.847  13.202  69.881  1.00  0.00    -0.133 C  
HETATM   17  C   UNL     1      -6.865  13.939  69.014  1.00  0.00    -0.111 C  
HETATM   18  H   UNL     1      -6.119  11.685  65.867  1.00  0.00     0.000 HD 
BRANCH   9  19
HETATM   19  N   UNL     1     -10.019   9.427  68.779  1.00  0.00    -0.173 NA 
HETATM   20  C   UNL     1     -10.035   9.582  70.236  1.00  0.00    -0.259 C  
HETATM   21  C   UNL     1     -10.224   8.012  68.448  1.00  0.00    -0.207 C  
ENDBRANCH   9  19
ENDBRANCH   2   3
TORSDOF 2
ENDMDL
MODEL       82
REMARK 921   NORMALIZED FREE ENERGY PREDICTED BY IDOCK:   -3.94 KCAL/MOL
REMARK 922        TOTAL FREE ENERGY PREDICTED BY IDOCK:   -4.65 KCAL/MOL
REMARK 923 INTER-LIGAND FREE ENERGY PREDICTED BY IDOCK:   -4.46 KCAL/MOL
REMARK 924 INTRA-LIGAND FREE ENERGY PREDICTED BY IDOCK:   -0.19 KCAL/MOL
REMARK 927      BINDING AFFINITY PREDICTED BY RF-SCORE:    0.00 PKD
ROOT
HETATM    1  C   UNL     1     -10.727  19.271  67.326  1.00  0.00    -0.488 C  
HETATM    2  O   UNL     1      -9.977  18.415  66.471  1.00  0.00    -0.337 OA 
ENDROOT
BRANCH   2   3
HETATM    3  C   UNL     1      -9.557  17.230  67.007  1.00  0.00    -0.261 A  
HETATM    4  C   UNL     1      -9.014  17.056  68.274  1.00  0.00    -0.242 A  
HETATM    5  C   UNL     1      -8.640  15.782  68.716  1.00  0.00    -0.203 A  
HETATM    6  C   UNL     1      -8.768  14.649  67.894  1.00  0.00    -0.169 A  
HETATM    7  C   UNL     1      -9.313  14.839  66.618  1.00  0.00    -0.291 A  
HETATM    8  C   UNL     1      -8.314  13.275  68.425  1.00  0.00    -0.131 C  
HETATM    9  C   UNL     1      -9.200  12.086  67.918  1.00  0.00    -0.190 C  
HETATM   10  C   UNL     1      -9.710  16.113  66.185  1.00  0.00    -0.352 A  
HETATM   11  C   UNL     1      -6.769  13.000  68.191  1.00  0.00    -0.103 C  
HETATM   12  O   UNL     1      -6.487  13.032  66.783  1.00  0.00    -0.367 OA 
HETATM   13  C   UNL     1      -5.844  14.025  68.893  1.00  0.00    -0.083 C  
HETATM   14  C   UNL     1      -6.304  11.607  68.684  1.00  0.00    -0.055 C  
HETATM   15  C   UNL     1      -6.409  11.453  70.201  1.00  0.00    -0.099 C  
HETATM   16  C   UNL     1      -5.609  12.529  70.929  1.00  0.00    -0.124 C  
HETATM   17  C   UNL     1      -5.912  13.937  70.421  1.00  0.00    -0.160 C  
HETATM   18  H   UNL     1      -5.562  12.868  66.643  1.00  0.00     0.000 HD 
BRANCH   9  19
HETATM   19  N   UNL     1     -10.647  12.182  68.214  1.00  0.00    -0.210 NA 
HETATM   20  C   UNL     1     -11.067  11.197  69.215  1.00  0.00    -0.259 C  
HETATM   21  C   UNL     1     -11.425  11.978  66.988  1.00  0.00    -0.338 C  
ENDBRANCH   9  19
ENDBRANCH   2   3
TORSDOF 2
ENDMDL
MODEL       83
REMARK 921   NORMALIZED FREE ENERGY PREDICTED BY IDOCK:   -3.94 KCAL/MOL
REMARK 922        TOTAL FREE ENERGY PREDICTED BY IDOCK:   -4.65 KCAL/MOL
REMARK 923 INTER-LIGAND FREE ENERGY PREDICTED BY IDOCK:   -4.72 KCAL/MOL
REMARK 924 INTRA-LIGAND FREE ENERGY PREDICTED BY IDOCK:    0.08 KCAL/MOL
REMARK 927      BINDING AFFINITY PREDICTED BY RF-SCORE:    0.00 PKD
ROOT
HETATM    1  C   UNL     1      -7.532  20.699  68.154  1.00  0.00     0.003 C  
HETATM    2  O   UNL     1      -8.254  20.208  67.032  1.00  0.00    -0.307 OA 
ENDROOT
BRANCH   2   3
HETATM    3  C   UNL     1      -8.832  18.976  67.167  1.00  0.00    -0.288 A  
HETATM    4  C   UNL     1      -8.157  17.762  67.219  1.00  0.00    -0.223 A  
HETATM    5  C   UNL     1      -8.863  16.565  67.382  1.00  0.00    -0.201 A  
HETATM    6  C   UNL     1     -10.267  16.542  67.465  1.00  0.00    -0.283 A  
HETATM    7  C   UNL     1     -10.934  17.772  67.406  1.00  0.00    -0.074 A  
HETATM    8  C   UNL     1     -10.993  15.191  67.616  1.00  0.00    -0.308 C  
HETATM    9  C   UNL     1     -12.280  15.269  68.506  1.00  0.00     0.059 C  
HETATM   10  C   UNL     1     -10.223  18.973  67.268  1.00  0.00    -0.476 A  
HETATM   11  C   UNL     1     -11.282  14.484  66.225  1.00  0.00    -0.342 C  
HETATM   12  O   UNL     1     -12.116  15.333  65.422  1.00  0.00     0.043 OA 
HETATM   13  C   UNL     1     -10.000  14.160  65.416  1.00  0.00    -0.321 C  
HETATM   14  C   UNL     1     -12.045  13.142  66.357  1.00  0.00    -0.447 C  
HETATM   15  C   UNL     1     -11.231  12.068  67.075  1.00  0.00    -0.377 C  
HETATM   16  C   UNL     1      -9.899  11.813  66.375  1.00  0.00    -0.237 C  
HETATM   17  C   UNL     1      -9.125  13.098  66.091  1.00  0.00     0.094 C  
HETATM   18  H   UNL     1     -12.289  14.911  64.590  1.00  0.00     0.000 HD 
BRANCH   9  19
HETATM   19  N   UNL     1     -12.088  15.788  69.880  1.00  0.00    -0.338 NA 
HETATM   20  C   UNL     1     -10.774  15.430  70.421  1.00  0.00    -0.286 C  
HETATM   21  C   UNL     1     -13.130  15.257  70.766  1.00  0.00    -0.414 C  
ENDBRANCH   9  19
ENDBRANCH   2   3
TORSDOF 2
ENDMDL
MODEL       84
REMARK 921   NORMALIZED FREE ENERGY PREDICTED BY IDOCK:   -3.94 KCAL/MOL
REMARK 922        TOTAL FREE ENERGY PREDICTED BY IDOCK:   -4.64 KCAL/MOL
REMARK 923 INTER-LIGAND FREE ENERGY PREDICTED BY IDOCK:   -4.69 KCAL/MOL
REMARK 924 INTRA-LIGAND FREE ENERGY PREDICTED BY IDOCK:    0.04 KCAL/MOL
REMARK 927      BINDING AFFINITY PREDICTED BY RF-SCORE:    0.00 PKD
ROOT
HETATM    1  C   UNL     1      -9.727   6.411  69.658  1.00  0.00    -0.152 C  
HETATM    2  O   UNL     1      -9.985   7.722  70.146  1.00  0.00    -0.184 OA 
ENDROOT
BRANCH   2   3
HETATM    3  C   UNL     1      -9.934   8.737  69.231  1.00  0.00    -0.194 A  
HETATM    4  C   UNL     1      -9.211   9.917  69.364  1.00  0.00    -0.225 A  
HETATM    5  C   UNL     1      -9.223  10.873  68.343  1.00  0.00    -0.168 A  
HETATM    6  C   UNL     1      -9.982  10.695  67.173  1.00  0.00    -0.234 A  
HETATM    7  C   UNL     1     -10.709   9.503  67.054  1.00  0.00    -0.220 A  
HETATM    8  C   UNL     1      -9.978  11.796  66.094  1.00  0.00    -0.254 C  
HETATM    9  C   UNL     1     -10.068  11.238  64.632  1.00  0.00    -0.290 C  
HETATM   10  C   UNL     1     -10.677   8.534  68.067  1.00  0.00    -0.122 A  
HETATM   11  C   UNL     1     -11.058  12.927  66.360  1.00  0.00    -0.285 C  
HETATM   12  O   UNL     1     -12.369  12.342  66.373  1.00  0.00    -0.539 OA 
HETATM   13  C   UNL     1     -10.851  13.679  67.699  1.00  0.00    -0.268 C  
HETATM   14  C   UNL     1     -11.094  14.022  65.264  1.00  0.00    -0.325 C  
HETATM   15  C   UNL     1      -9.807  14.843  65.209  1.00  0.00    -0.242 C  
HETATM   16  C   UNL     1      -9.502  15.498  66.553  1.00  0.00    -0.299 C  
HETATM   17  C   UNL     1      -9.565  14.513  67.718  1.00  0.00    -0.215 C  
HETATM   18  H   UNL     1     -13.016  13.019  66.532  1.00  0.00     0.000 HD 
BRANCH   9  19
HETATM   19  N   UNL     1      -9.015  10.275  64.239  1.00  0.00    -0.213 NA 
HETATM   20  C   UNL     1      -7.731  10.578  64.877  1.00  0.00    -0.021 C  
HETATM   21  C   UNL     1      -8.840  10.290  62.782  1.00  0.00    -0.236 C  
ENDBRANCH   9  19
ENDBRANCH   2   3
TORSDOF 2
ENDMDL
MODEL       85
REMARK 921   NORMALIZED FREE ENERGY PREDICTED BY IDOCK:   -3.94 KCAL/MOL
REMARK 922        TOTAL FREE ENERGY PREDICTED BY IDOCK:   -4.64 KCAL/MOL
REMARK 923 INTER-LIGAND FREE ENERGY PREDICTED BY IDOCK:   -4.47 KCAL/MOL
REMARK 924 INTRA-LIGAND FREE ENERGY PREDICTED BY IDOCK:   -0.17 KCAL/MOL
REMARK 927      BINDING AFFINITY PREDICTED BY RF-SCORE:    0.00 PKD
ROOT
HETATM    1  C   UNL     1      -6.923   8.975  63.065  1.00  0.00    -0.088 C  
HETATM    2  O   UNL     1      -7.888   9.906  63.541  1.00  0.00    -0.138 OA 
ENDROOT
BRANCH   2   3
HETATM    3  C   UNL     1      -8.443   9.642  64.762  1.00  0.00    -0.159 A  
HETATM    4  C   UNL     1      -9.754   9.910  65.135  1.00  0.00    -0.376 A  
HETATM    5  C   UNL     1     -10.211   9.572  66.414  1.00  0.00    -0.302 A  
HETATM    6  C   UNL     1      -9.362   8.985  67.369  1.00  0.00    -0.167 A  
HETATM    7  C   UNL     1      -8.041   8.725  66.981  1.00  0.00    -0.099 A  
HETATM    8  C   UNL     1      -9.912   8.660  68.771  1.00  0.00    -0.194 C  
HETATM    9  C   UNL     1      -9.301   7.359  69.396  1.00  0.00    -0.155 C  
HETATM   10  C   UNL     1      -7.592   9.042  65.691  1.00  0.00    -0.086 A  
HETATM   11  C   UNL     1      -9.827   9.889  69.771  1.00  0.00    -0.236 C  
HETATM   12  O   UNL     1      -8.455  10.282  69.928  1.00  0.00    -0.348 OA 
HETATM   13  C   UNL     1     -10.634  11.126  69.302  1.00  0.00    -0.212 C  
HETATM   14  C   UNL     1     -10.341   9.567  71.197  1.00  0.00    -0.330 C  
HETATM   15  C   UNL     1     -11.837   9.258  71.229  1.00  0.00    -0.415 C  
HETATM   16  C   UNL     1     -12.658  10.409  70.654  1.00  0.00    -0.435 C  
HETATM   17  C   UNL     1     -12.146  10.879  69.295  1.00  0.00    -0.332 C  
HETATM   18  H   UNL     1      -8.403  11.018  70.526  1.00  0.00     0.000 HD 
BRANCH   9  19
HETATM   19  N   UNL     1      -9.455   6.121  68.598  1.00  0.00    -0.124 NA 
HETATM   20  C   UNL     1     -10.337   5.153  69.255  1.00  0.00    -0.178 C  
HETATM   21  C   UNL     1      -8.144   5.501  68.377  1.00  0.00    -0.099 C  
ENDBRANCH   9  19
ENDBRANCH   2   3
TORSDOF 2
ENDMDL
MODEL       86
REMARK 921   NORMALIZED FREE ENERGY PREDICTED BY IDOCK:   -3.92 KCAL/MOL
REMARK 922        TOTAL FREE ENERGY PREDICTED BY IDOCK:   -4.62 KCAL/MOL
REMARK 923 INTER-LIGAND FREE ENERGY PREDICTED BY IDOCK:   -4.40 KCAL/MOL
REMARK 924 INTRA-LIGAND FREE ENERGY PREDICTED BY IDOCK:   -0.23 KCAL/MOL
REMARK 927      BINDING AFFINITY PREDICTED BY RF-SCORE:    0.00 PKD
ROOT
HETATM    1  C   UNL     1     -10.242  13.484  65.372  1.00  0.00    -0.302 C  
HETATM    2  O   UNL     1     -10.914  13.314  66.615  1.00  0.00    -0.279 OA 
ENDROOT
BRANCH   2   3
HETATM    3  C   UNL     1     -10.717  12.124  67.259  1.00  0.00    -0.229 A  
HETATM    4  C   UNL     1     -11.663  11.440  68.013  1.00  0.00    -0.324 A  
HETATM    5  C   UNL     1     -11.344  10.215  68.608  1.00  0.00    -0.172 A  
HETATM    6  C   UNL     1     -10.060   9.652  68.495  1.00  0.00    -0.195 A  
HETATM    7  C   UNL     1      -9.115  10.355  67.737  1.00  0.00    -0.134 A  
HETATM    8  C   UNL     1      -9.757   8.313  69.196  1.00  0.00    -0.171 C  
HETATM    9  C   UNL     1      -8.764   7.401  68.398  1.00  0.00    -0.123 C  
HETATM   10  C   UNL     1      -9.444  11.570  67.120  1.00  0.00    -0.186 A  
HETATM   11  C   UNL     1      -9.307   8.493  70.707  1.00  0.00    -0.172 C  
HETATM   12  O   UNL     1      -8.111   9.284  70.757  1.00  0.00    -0.158 OA 
HETATM   13  C   UNL     1     -10.378   9.175  71.595  1.00  0.00    -0.388 C  
HETATM   14  C   UNL     1      -8.962   7.158  71.415  1.00  0.00    -0.135 C  
HETATM   15  C   UNL     1     -10.175   6.242  71.570  1.00  0.00    -0.233 C  
HETATM   16  C   UNL     1     -11.303   6.930  72.334  1.00  0.00    -0.308 C  
HETATM   17  C   UNL     1     -11.632   8.315  71.780  1.00  0.00    -0.356 C  
HETATM   18  H   UNL     1      -7.841   9.392  71.662  1.00  0.00     0.000 HD 
BRANCH   9  19
HETATM   19  N   UNL     1      -9.166   7.058  67.015  1.00  0.00    -0.141 NA 
HETATM   20  C   UNL     1     -10.428   6.316  66.980  1.00  0.00    -0.278 C  
HETATM   21  C   UNL     1      -8.121   6.253  66.374  1.00  0.00    -0.112 C  
ENDBRANCH   9  19
ENDBRANCH   2   3
TORSDOF 2
ENDMDL
MODEL       87
REMARK 921   NORMALIZED FREE ENERGY PREDICTED BY IDOCK:   -3.82 KCAL/MOL
REMARK 922        TOTAL FREE ENERGY PREDICTED BY IDOCK:   -4.51 KCAL/MOL
REMARK 923 INTER-LIGAND FREE ENERGY PREDICTED BY IDOCK:   -4.29 KCAL/MOL
REMARK 924 INTRA-LIGAND FREE ENERGY PREDICTED BY IDOCK:   -0.22 KCAL/MOL
REMARK 927      BINDING AFFINITY PREDICTED BY RF-SCORE:    0.00 PKD
ROOT
HETATM    1  C   UNL     1     -10.451   8.804  68.235  1.00  0.00    -0.187 C  
HETATM    2  O   UNL     1     -11.301   9.931  68.058  1.00  0.00    -0.158 OA 
ENDROOT
BRANCH   2   3
HETATM    3  C   UNL     1     -10.712  11.162  68.136  1.00  0.00    -0.204 A  
HETATM    4  C   UNL     1     -11.223  12.269  68.802  1.00  0.00    -0.312 A  
HETATM    5  C   UNL     1     -10.511  13.473  68.827  1.00  0.00    -0.212 A  
HETATM    6  C   UNL     1      -9.281  13.616  68.160  1.00  0.00    -0.204 A  
HETATM    7  C   UNL     1      -8.780  12.494  67.488  1.00  0.00    -0.182 A  
HETATM    8  C   UNL     1      -8.554  14.975  68.199  1.00  0.00    -0.156 C  
HETATM    9  C   UNL     1      -6.993  14.847  68.234  1.00  0.00    -0.117 C  
HETATM   10  C   UNL     1      -9.483  11.281  67.485  1.00  0.00    -0.177 A  
HETATM   11  C   UNL     1      -9.039  15.969  67.061  1.00  0.00    -0.214 C  
HETATM   12  O   UNL     1      -8.786  15.382  65.776  1.00  0.00    -0.295 OA 
HETATM   13  C   UNL     1     -10.546  16.320  67.145  1.00  0.00    -0.291 C  
HETATM   14  C   UNL     1      -8.291  17.326  67.062  1.00  0.00    -0.231 C  
HETATM   15  C   UNL     1      -8.567  18.151  68.318  1.00  0.00    -0.298 C  
HETATM   16  C   UNL     1     -10.060  18.408  68.502  1.00  0.00    -0.413 C  
HETATM   17  C   UNL     1     -10.897  17.135  68.394  1.00  0.00    -0.309 C  
HETATM   18  H   UNL     1      -9.076  15.977  65.094  1.00  0.00     0.000 HD 
BRANCH   9  19
HETATM   19  N   UNL     1      -6.431  14.050  69.348  1.00  0.00    -0.114 NA 
HETATM   20  C   UNL     1      -5.785  14.896  70.354  1.00  0.00    -0.145 C  
HETATM   21  C   UNL     1      -5.451  13.088  68.832  1.00  0.00    -0.071 C  
ENDBRANCH   9  19
ENDBRANCH   2   3
TORSDOF 2
ENDMDL
MODEL       88
REMARK 921   NORMALIZED FREE ENERGY PREDICTED BY IDOCK:   -3.82 KCAL/MOL
REMARK 922        TOTAL FREE ENERGY PREDICTED BY IDOCK:   -4.51 KCAL/MOL
REMARK 923 INTER-LIGAND FREE ENERGY PREDICTED BY IDOCK:   -4.29 KCAL/MOL
REMARK 924 INTRA-LIGAND FREE ENERGY PREDICTED BY IDOCK:   -0.22 KCAL/MOL
REMARK 927      BINDING AFFINITY PREDICTED BY RF-SCORE:    0.00 PKD
ROOT
HETATM    1  C   UNL     1      -8.126   6.528  65.349  1.00  0.00    -0.129 C  
HETATM    2  O   UNL     1      -9.385   6.138  65.885  1.00  0.00    -0.116 OA 
ENDROOT
BRANCH   2   3
HETATM    3  C   UNL     1      -9.556   6.302  67.231  1.00  0.00    -0.123 A  
HETATM    4  C   UNL     1      -8.626   6.846  68.109  1.00  0.00    -0.123 A  
HETATM    5  C   UNL     1      -8.930   6.981  69.468  1.00  0.00    -0.143 A  
HETATM    6  C   UNL     1     -10.158   6.547  69.996  1.00  0.00    -0.203 A  
HETATM    7  C   UNL     1     -11.084   5.996  69.101  1.00  0.00    -0.405 A  
HETATM    8  C   UNL     1     -10.426   6.695  71.507  1.00  0.00    -0.242 C  
HETATM    9  C   UNL     1     -11.922   7.016  71.847  1.00  0.00    -0.320 C  
HETATM   10  C   UNL     1     -10.788   5.885  67.735  1.00  0.00    -0.326 A  
HETATM   11  C   UNL     1      -9.878   5.472  72.356  1.00  0.00    -0.162 C  
HETATM   12  O   UNL     1     -10.521   4.264  71.922  1.00  0.00    -0.117 OA 
HETATM   13  C   UNL     1      -8.346   5.274  72.240  1.00  0.00    -0.122 C  
HETATM   14  C   UNL     1     -10.173   5.587  73.873  1.00  0.00    -0.259 C  
HETATM   15  C   UNL     1      -9.444   6.758  74.529  1.00  0.00    -0.258 C  
HETATM   16  C   UNL     1      -7.934   6.662  74.324  1.00  0.00    -0.119 C  
HETATM   17  C   UNL     1      -7.550   6.424  72.866  1.00  0.00    -0.095 C  
HETATM   18  H   UNL     1     -10.193   3.531  72.430  1.00  0.00     0.000 HD 
BRANCH   9  19
HETATM   19  N   UNL     1     -12.488   8.227  71.210  1.00  0.00    -0.282 NA 
HETATM   20  C   UNL     1     -11.804   9.446  71.649  1.00  0.00    -0.394 C  
HETATM   21  C   UNL     1     -13.916   8.339  71.526  1.00  0.00    -0.349 C  
ENDBRANCH   9  19
ENDBRANCH   2   3
TORSDOF 2
ENDMDL
MODEL       89
REMARK 921   NORMALIZED FREE ENERGY PREDICTED BY IDOCK:   -3.81 KCAL/MOL
REMARK 922        TOTAL FREE ENERGY PREDICTED BY IDOCK:   -4.50 KCAL/MOL
REMARK 923 INTER-LIGAND FREE ENERGY PREDICTED BY IDOCK:   -4.27 KCAL/MOL
REMARK 924 INTRA-LIGAND FREE ENERGY PREDICTED BY IDOCK:   -0.23 KCAL/MOL
REMARK 927      BINDING AFFINITY PREDICTED BY RF-SCORE:    0.00 PKD
ROOT
HETATM    1  C   UNL     1      -9.288  10.192  63.690  1.00  0.00    -0.290 C  
HETATM    2  O   UNL     1     -10.237  10.504  64.704  1.00  0.00    -0.345 OA 
ENDROOT
BRANCH   2   3
HETATM    3  C   UNL     1      -9.986  10.005  65.952  1.00  0.00    -0.269 A  
HETATM    4  C   UNL     1     -10.168   8.688  66.354  1.00  0.00    -0.224 A  
HETATM    5  C   UNL     1      -9.852   8.295  67.659  1.00  0.00    -0.218 A  
HETATM    6  C   UNL     1      -9.375   9.213  68.611  1.00  0.00    -0.135 A  
HETATM    7  C   UNL     1      -9.201  10.539  68.194  1.00  0.00    -0.148 A  
HETATM    8  C   UNL     1      -9.071   8.729  70.042  1.00  0.00    -0.164 C  
HETATM    9  C   UNL     1      -7.850   9.457  70.701  1.00  0.00    -0.151 C  
HETATM   10  C   UNL     1      -9.494  10.926  66.878  1.00  0.00    -0.198 A  
HETATM   11  C   UNL     1     -10.346   8.746  70.987  1.00  0.00    -0.233 C  
HETATM   12  O   UNL     1     -10.849  10.087  71.084  1.00  0.00    -0.280 OA 
HETATM   13  C   UNL     1     -11.495   7.832  70.492  1.00  0.00    -0.219 C  
HETATM   14  C   UNL     1     -10.049   8.298  72.440  1.00  0.00    -0.383 C  
HETATM   15  C   UNL     1      -9.628   6.832  72.531  1.00  0.00    -0.165 C  
HETATM   16  C   UNL     1     -10.685   5.908  71.934  1.00  0.00    -0.290 C  
HETATM   17  C   UNL     1     -11.133   6.344  70.541  1.00  0.00    -0.388 C  
HETATM   18  H   UNL     1     -11.613  10.097  71.649  1.00  0.00     0.000 HD 
BRANCH   9  19
HETATM   19  N   UNL     1      -6.570   9.378  69.961  1.00  0.00    -0.053 NA 
HETATM   20  C   UNL     1      -5.729   8.277  70.438  1.00  0.00    -0.028 C  
HETATM   21  C   UNL     1      -5.831  10.638  70.100  1.00  0.00    -0.087 C  
ENDBRANCH   9  19
ENDBRANCH   2   3
TORSDOF 2
ENDMDL
MODEL       90
REMARK 921   NORMALIZED FREE ENERGY PREDICTED BY IDOCK:   -3.77 KCAL/MOL
REMARK 922        TOTAL FREE ENERGY PREDICTED BY IDOCK:   -4.46 KCAL/MOL
REMARK 923 INTER-LIGAND FREE ENERGY PREDICTED BY IDOCK:   -4.25 KCAL/MOL
REMARK 924 INTRA-LIGAND FREE ENERGY PREDICTED BY IDOCK:   -0.20 KCAL/MOL
REMARK 927      BINDING AFFINITY PREDICTED BY RF-SCORE:    0.00 PKD
ROOT
HETATM    1  C   UNL     1      -6.497  10.105  62.652  1.00  0.00    -0.128 C  
HETATM    2  O   UNL     1      -7.754   9.441  62.713  1.00  0.00    -0.113 OA 
ENDROOT
BRANCH   2   3
HETATM    3  C   UNL     1      -8.122   8.935  63.928  1.00  0.00    -0.163 A  
HETATM    4  C   UNL     1      -7.551   7.836  64.559  1.00  0.00    -0.108 A  
HETATM    5  C   UNL     1      -8.004   7.428  65.819  1.00  0.00    -0.118 A  
HETATM    6  C   UNL     1      -9.062   8.085  66.471  1.00  0.00    -0.213 A  
HETATM    7  C   UNL     1      -9.631   9.188  65.821  1.00  0.00    -0.323 A  
HETATM    8  C   UNL     1      -9.537   7.573  67.845  1.00  0.00    -0.161 C  
HETATM    9  C   UNL     1     -10.008   8.716  68.808  1.00  0.00    -0.183 C  
HETATM   10  C   UNL     1      -9.160   9.611  64.571  1.00  0.00    -0.287 A  
HETATM   11  C   UNL     1     -10.614   6.413  67.735  1.00  0.00    -0.266 C  
HETATM   12  O   UNL     1     -11.769   6.900  67.035  1.00  0.00    -0.453 OA 
HETATM   13  C   UNL     1     -10.095   5.153  66.998  1.00  0.00    -0.252 C  
HETATM   14  C   UNL     1     -11.131   5.914  69.108  1.00  0.00    -0.328 C  
HETATM   15  C   UNL     1     -10.042   5.234  69.936  1.00  0.00    -0.333 C  
HETATM   16  C   UNL     1      -9.417   4.061  69.185  1.00  0.00    -0.249 C  
HETATM   17  C   UNL     1      -8.986   4.430  67.768  1.00  0.00    -0.136 C  
HETATM   18  H   UNL     1     -12.414   6.206  66.969  1.00  0.00     0.000 HD 
BRANCH   9  19
HETATM   19  N   UNL     1      -9.017   9.780  69.087  1.00  0.00    -0.151 NA 
HETATM   20  C   UNL     1      -8.473   9.677  70.444  1.00  0.00    -0.146 C  
HETATM   21  C   UNL     1      -9.637  11.099  68.920  1.00  0.00    -0.142 C  
ENDBRANCH   9  19
ENDBRANCH   2   3
TORSDOF 2
ENDMDL
MODEL       91
REMARK 921   NORMALIZED FREE ENERGY PREDICTED BY IDOCK:   -3.76 KCAL/MOL
REMARK 922        TOTAL FREE ENERGY PREDICTED BY IDOCK:   -4.44 KCAL/MOL
REMARK 923 INTER-LIGAND FREE ENERGY PREDICTED BY IDOCK:   -4.25 KCAL/MOL
REMARK 924 INTRA-LIGAND FREE ENERGY PREDICTED BY IDOCK:   -0.19 KCAL/MOL
REMARK 927      BINDING AFFINITY PREDICTED BY RF-SCORE:    0.00 PKD
ROOT
HETATM    1  C   UNL     1     -11.179  15.850  68.355  1.00  0.00    -0.368 C  
HETATM    2  O   UNL     1     -11.935  14.646  68.284  1.00  0.00    -0.310 OA 
ENDROOT
BRANCH   2   3
HETATM    3  C   UNL     1     -11.225  13.484  68.154  1.00  0.00    -0.272 A  
HETATM    4  C   UNL     1      -9.843  13.363  68.219  1.00  0.00    -0.235 A  
HETATM    5  C   UNL     1      -9.235  12.110  68.092  1.00  0.00    -0.197 A  
HETATM    6  C   UNL     1      -9.987  10.944  67.864  1.00  0.00    -0.195 A  
HETATM    7  C   UNL     1     -11.380  11.081  67.797  1.00  0.00    -0.365 A  
HETATM    8  C   UNL     1      -9.261   9.594  67.705  1.00  0.00    -0.144 C  
HETATM    9  C   UNL     1     -10.057   8.382  68.297  1.00  0.00    -0.199 C  
HETATM   10  C   UNL     1     -11.990  12.335  67.950  1.00  0.00    -0.240 A  
HETATM   11  C   UNL     1      -8.789   9.317  66.215  1.00  0.00    -0.146 C  
HETATM   12  O   UNL     1      -9.934   9.295  65.349  1.00  0.00    -0.438 OA 
HETATM   13  C   UNL     1      -7.793  10.373  65.674  1.00  0.00    -0.154 C  
HETATM   14  C   UNL     1      -8.090   7.947  66.029  1.00  0.00    -0.112 C  
HETATM   15  C   UNL     1      -6.766   7.852  66.785  1.00  0.00    -0.063 C  
HETATM   16  C   UNL     1      -5.803   8.960  66.367  1.00  0.00    -0.054 C  
HETATM   17  C   UNL     1      -6.445  10.345  66.401  1.00  0.00    -0.097 C  
HETATM   18  H   UNL     1      -9.652   9.129  64.457  1.00  0.00     0.000 HD 
BRANCH   9  19
HETATM   19  N   UNL     1     -10.424   8.483  69.728  1.00  0.00    -0.218 NA 
HETATM   20  C   UNL     1      -9.256   8.740  70.575  1.00  0.00    -0.188 C  
HETATM   21  C   UNL     1     -11.070   7.242  70.169  1.00  0.00    -0.258 C  
ENDBRANCH   9  19
ENDBRANCH   2   3
TORSDOF 2
ENDMDL
MODEL       92
REMARK 921   NORMALIZED FREE ENERGY PREDICTED BY IDOCK:   -3.75 KCAL/MOL
REMARK 922        TOTAL FREE ENERGY PREDICTED BY IDOCK:   -4.43 KCAL/MOL
REMARK 923 INTER-LIGAND FREE ENERGY PREDICTED BY IDOCK:   -4.40 KCAL/MOL
REMARK 924 INTRA-LIGAND FREE ENERGY PREDICTED BY IDOCK:   -0.03 KCAL/MOL
REMARK 927      BINDING AFFINITY PREDICTED BY RF-SCORE:    0.00 PKD
ROOT
HETATM    1  C   UNL     1      -9.695  14.464  68.192  1.00  0.00    -0.223 C  
HETATM    2  O   UNL     1     -10.433  13.446  67.526  1.00  0.00    -0.234 OA 
ENDROOT
BRANCH   2   3
HETATM    3  C   UNL     1     -10.447  12.214  68.117  1.00  0.00    -0.211 A  
HETATM    4  C   UNL     1     -11.582  11.486  68.456  1.00  0.00    -0.377 A  
HETATM    5  C   UNL     1     -11.464  10.220  69.039  1.00  0.00    -0.200 A  
HETATM    6  C   UNL     1     -10.209   9.656  69.330  1.00  0.00    -0.220 A  
HETATM    7  C   UNL     1      -9.074  10.402  68.987  1.00  0.00    -0.193 A  
HETATM    8  C   UNL     1     -10.141   8.269  69.999  1.00  0.00    -0.196 C  
HETATM    9  C   UNL     1      -8.921   7.406  69.524  1.00  0.00    -0.144 C  
HETATM   10  C   UNL     1      -9.194  11.660  68.380  1.00  0.00    -0.182 A  
HETATM   11  C   UNL     1     -10.232   8.339  71.581  1.00  0.00    -0.221 C  
HETATM   12  O   UNL     1      -9.136   9.115  72.089  1.00  0.00    -0.312 OA 
HETATM   13  C   UNL     1     -11.551   8.967  72.099  1.00  0.00    -0.400 C  
HETATM   14  C   UNL     1     -10.126   6.955  72.271  1.00  0.00    -0.194 C  
HETATM   15  C   UNL     1     -11.305   6.041  71.943  1.00  0.00    -0.335 C  
HETATM   16  C   UNL     1     -12.636   6.684  72.324  1.00  0.00    -0.058 C  
HETATM   17  C   UNL     1     -12.780   8.106  71.787  1.00  0.00    -0.356 C  
HETATM   18  H   UNL     1      -9.191   9.157  73.036  1.00  0.00     0.000 HD 
BRANCH   9  19
HETATM   19  N   UNL     1      -8.825   7.164  68.067  1.00  0.00    -0.129 NA 
HETATM   20  C   UNL     1      -8.811   5.733  67.750  1.00  0.00    -0.105 C  
HETATM   21  C   UNL     1      -7.606   7.782  67.535  1.00  0.00    -0.109 C  
ENDBRANCH   9  19
ENDBRANCH   2   3
TORSDOF 2
ENDMDL
MODEL       93
REMARK 921   NORMALIZED FREE ENERGY PREDICTED BY IDOCK:   -3.74 KCAL/MOL
REMARK 922        TOTAL FREE ENERGY PREDICTED BY IDOCK:   -4.42 KCAL/MOL
REMARK 923 INTER-LIGAND FREE ENERGY PREDICTED BY IDOCK:   -5.40 KCAL/MOL
REMARK 924 INTRA-LIGAND FREE ENERGY PREDICTED BY IDOCK:    0.98 KCAL/MOL
REMARK 927      BINDING AFFINITY PREDICTED BY RF-SCORE:    0.00 PKD
ROOT
HETATM    1  C   UNL     1     -12.645  13.091  71.239  1.00  0.00    -0.279 C  
HETATM    2  O   UNL     1     -12.702  14.512  71.252  1.00  0.00    -0.303 OA 
ENDROOT
BRANCH   2   3
HETATM    3  C   UNL     1     -11.878  15.166  70.379  1.00  0.00    -0.307 A  
HETATM    4  C   UNL     1     -10.598  15.629  70.658  1.00  0.00    -0.143 A  
HETATM    5  C   UNL     1      -9.843  16.266  69.668  1.00  0.00    -0.086 A  
HETATM    6  C   UNL     1     -10.357  16.490  68.378  1.00  0.00    -0.294 A  
HETATM    7  C   UNL     1     -11.650  16.023  68.111  1.00  0.00    -0.183 A  
HETATM    8  C   UNL     1      -9.490  17.224  67.336  1.00  0.00    -0.245 C  
HETATM    9  C   UNL     1      -9.699  16.704  65.872  1.00  0.00    -0.237 C  
HETATM   10  C   UNL     1     -12.396  15.362  69.098  1.00  0.00    -0.087 A  
HETATM   11  C   UNL     1      -9.619  18.803  67.424  1.00  0.00    -0.306 C  
HETATM   12  O   UNL     1     -10.983  19.184  67.192  1.00  0.00    -0.453 OA 
HETATM   13  C   UNL     1      -9.178  19.385  68.790  1.00  0.00    -0.422 C  
HETATM   14  C   UNL     1      -8.782  19.555  66.358  1.00  0.00    -0.389 C  
HETATM   15  C   UNL     1      -7.278  19.366  66.546  1.00  0.00    -0.240 C  
HETATM   16  C   UNL     1      -6.828  19.813  67.935  1.00  0.00    -0.284 C  
HETATM   17  C   UNL     1      -7.679  19.214  69.053  1.00  0.00    -0.316 C  
HETATM   18  H   UNL     1     -11.061  20.129  67.245  1.00  0.00     0.000 HD 
BRANCH   9  19
HETATM   19  N   UNL     1      -9.463  15.258  65.657  1.00  0.00    -0.281 NA 
HETATM   20  C   UNL     1     -10.718  14.508  65.560  1.00  0.00    -0.341 C  
HETATM   21  C   UNL     1      -8.664  14.710  66.759  1.00  0.00    -0.203 C  
ENDBRANCH   9  19
ENDBRANCH   2   3
TORSDOF 2
ENDMDL
MODEL       94
REMARK 921   NORMALIZED FREE ENERGY PREDICTED BY IDOCK:   -3.70 KCAL/MOL
REMARK 922        TOTAL FREE ENERGY PREDICTED BY IDOCK:   -4.38 KCAL/MOL
REMARK 923 INTER-LIGAND FREE ENERGY PREDICTED BY IDOCK:   -4.15 KCAL/MOL
REMARK 924 INTRA-LIGAND FREE ENERGY PREDICTED BY IDOCK:   -0.23 KCAL/MOL
REMARK 927      BINDING AFFINITY PREDICTED BY RF-SCORE:    0.00 PKD
ROOT
HETATM    1  C   UNL     1     -12.285  14.558  64.330  1.00  0.00    -0.458 C  
HETATM    2  O   UNL     1     -12.352  13.152  64.120  1.00  0.00    -0.517 OA 
ENDROOT
BRANCH   2   3
HETATM    3  C   UNL     1     -11.370  12.398  64.698  1.00  0.00    -0.315 A  
HETATM    4  C   UNL     1     -11.372  11.920  66.003  1.00  0.00    -0.375 A  
HETATM    5  C   UNL     1     -10.312  11.137  66.472  1.00  0.00    -0.290 A  
HETATM    6  C   UNL     1      -9.203  10.835  65.663  1.00  0.00    -0.226 A  
HETATM    7  C   UNL     1      -9.211  11.327  64.352  1.00  0.00    -0.065 A  
HETATM    8  C   UNL     1      -8.051   9.990  66.244  1.00  0.00    -0.117 C  
HETATM    9  C   UNL     1      -7.384   9.038  65.193  1.00  0.00    -0.096 C  
HETATM   10  C   UNL     1     -10.286  12.091  63.874  1.00  0.00    -0.433 A  
HETATM   11  C   UNL     1      -6.974  10.862  67.017  1.00  0.00    -0.105 C  
HETATM   12  O   UNL     1      -6.395  11.816  66.114  1.00  0.00    -0.434 OA 
HETATM   13  C   UNL     1      -7.554  11.632  68.230  1.00  0.00    -0.120 C  
HETATM   14  C   UNL     1      -5.789  10.033  67.574  1.00  0.00    -0.049 C  
HETATM   15  C   UNL     1      -6.217   9.049  68.662  1.00  0.00    -0.045 C  
HETATM   16  C   UNL     1      -6.910   9.763  69.820  1.00  0.00    -0.074 C  
HETATM   17  C   UNL     1      -8.020  10.703  69.355  1.00  0.00    -0.118 C  
HETATM   18  H   UNL     1      -5.750  12.337  66.577  1.00  0.00     0.000 HD 
BRANCH   9  19
HETATM   19  N   UNL     1      -8.290   8.084  64.514  1.00  0.00    -0.095 NA 
HETATM   20  C   UNL     1      -8.334   6.790  65.200  1.00  0.00    -0.080 C  
HETATM   21  C   UNL     1      -7.852   7.876  63.129  1.00  0.00    -0.142 C  
ENDBRANCH   9  19
ENDBRANCH   2   3
TORSDOF 2
ENDMDL
MODEL       95
REMARK 921   NORMALIZED FREE ENERGY PREDICTED BY IDOCK:   -3.69 KCAL/MOL
REMARK 922        TOTAL FREE ENERGY PREDICTED BY IDOCK:   -4.37 KCAL/MOL
REMARK 923 INTER-LIGAND FREE ENERGY PREDICTED BY IDOCK:   -4.59 KCAL/MOL
REMARK 924 INTRA-LIGAND FREE ENERGY PREDICTED BY IDOCK:    0.22 KCAL/MOL
REMARK 927      BINDING AFFINITY PREDICTED BY RF-SCORE:    0.00 PKD
ROOT
HETATM    1  C   UNL     1      -8.090   7.374  70.911  1.00  0.00    -0.105 C  
HETATM    2  O   UNL     1      -7.446   8.615  70.647  1.00  0.00    -0.059 OA 
ENDROOT
BRANCH   2   3
HETATM    3  C   UNL     1      -7.938   9.351  69.606  1.00  0.00    -0.109 A  
HETATM    4  C   UNL     1      -7.583  10.657  69.292  1.00  0.00    -0.138 A  
HETATM    5  C   UNL     1      -8.144  11.297  68.182  1.00  0.00    -0.134 A  
HETATM    6  C   UNL     1      -9.100  10.662  67.370  1.00  0.00    -0.146 A  
HETATM    7  C   UNL     1      -9.453   9.347  67.700  1.00  0.00    -0.154 A  
HETATM    8  C   UNL     1      -9.705  11.427  66.175  1.00  0.00    -0.248 C  
HETATM    9  C   UNL     1     -10.013  10.513  64.941  1.00  0.00    -0.334 C  
HETATM   10  C   UNL     1      -8.871   8.698  68.798  1.00  0.00    -0.139 A  
HETATM   11  C   UNL     1     -10.957  12.315  66.578  1.00  0.00    -0.279 C  
HETATM   12  O   UNL     1     -11.987  11.472  67.115  1.00  0.00    -0.581 OA 
HETATM   13  C   UNL     1     -10.629  13.408  67.627  1.00  0.00    -0.249 C  
HETATM   14  C   UNL     1     -11.600  13.061  65.382  1.00  0.00    -0.374 C  
HETATM   15  C   UNL     1     -10.671  14.110  64.772  1.00  0.00    -0.436 C  
HETATM   16  C   UNL     1     -10.225  15.134  65.812  1.00  0.00    -0.365 C  
HETATM   17  C   UNL     1      -9.686  14.487  67.086  1.00  0.00    -0.240 C  
HETATM   18  H   UNL     1     -12.736  12.003  67.356  1.00  0.00     0.000 HD 
BRANCH   9  19
HETATM   19  N   UNL     1      -8.869   9.745  64.399  1.00  0.00    -0.211 NA 
HETATM   20  C   UNL     1      -7.588  10.389  64.698  1.00  0.00    -0.047 C  
HETATM   21  C   UNL     1      -9.004   9.603  62.945  1.00  0.00    -0.245 C  
ENDBRANCH   9  19
ENDBRANCH   2   3
TORSDOF 2
ENDMDL
MODEL       96
REMARK 921   NORMALIZED FREE ENERGY PREDICTED BY IDOCK:   -3.66 KCAL/MOL
REMARK 922        TOTAL FREE ENERGY PREDICTED BY IDOCK:   -4.33 KCAL/MOL
REMARK 923 INTER-LIGAND FREE ENERGY PREDICTED BY IDOCK:   -4.24 KCAL/MOL
REMARK 924 INTRA-LIGAND FREE ENERGY PREDICTED BY IDOCK:   -0.09 KCAL/MOL
REMARK 927      BINDING AFFINITY PREDICTED BY RF-SCORE:    0.00 PKD
ROOT
HETATM    1  C   UNL     1     -11.623  14.206  67.280  1.00  0.00    -0.373 C  
HETATM    2  O   UNL     1     -10.471  14.232  66.445  1.00  0.00    -0.274 OA 
ENDROOT
BRANCH   2   3
HETATM    3  C   UNL     1      -9.623  15.293  66.606  1.00  0.00    -0.257 A  
HETATM    4  C   UNL     1      -8.581  15.370  67.522  1.00  0.00    -0.187 A  
HETATM    5  C   UNL     1      -7.766  16.506  67.574  1.00  0.00    -0.171 A  
HETATM    6  C   UNL     1      -7.988  17.612  66.735  1.00  0.00    -0.268 A  
HETATM    7  C   UNL     1      -9.044  17.522  65.819  1.00  0.00     0.236 A  
HETATM    8  C   UNL     1      -7.075  18.848  66.856  1.00  0.00    -0.215 C  
HETATM    9  C   UNL     1      -6.804  19.561  65.488  1.00  0.00    -0.285 C  
HETATM   10  C   UNL     1      -9.844  16.373  65.751  1.00  0.00    -0.303 A  
HETATM   11  C   UNL     1      -7.563  19.871  67.967  1.00  0.00    -0.297 C  
HETATM   12  O   UNL     1      -8.879  20.340  67.639  1.00  0.00    -0.324 OA 
HETATM   13  C   UNL     1      -7.605  19.265  69.392  1.00  0.00    -0.127 C  
HETATM   14  C   UNL     1      -6.677  21.138  68.076  1.00  0.00    -0.122 C  
HETATM   15  C   UNL     1      -5.260  20.828  68.555  1.00  0.00    -0.331 C  
HETATM   16  C   UNL     1      -5.268  20.113  69.903  1.00  0.00    -0.258 C  
HETATM   17  C   UNL     1      -6.213  18.914  69.929  1.00  0.00    -0.206 C  
HETATM   18  H   UNL     1      -9.171  20.952  68.304  1.00  0.00     0.000 HD 
BRANCH   9  19
HETATM   19  N   UNL     1      -6.214  18.719  64.422  1.00  0.00    -0.352 NA 
HETATM   20  C   UNL     1      -5.138  17.867  64.933  1.00  0.00     0.138 C  
HETATM   21  C   UNL     1      -5.684  19.567  63.349  1.00  0.00    -0.263 C  
ENDBRANCH   9  19
ENDBRANCH   2   3
TORSDOF 2
ENDMDL
MODEL       97
REMARK 921   NORMALIZED FREE ENERGY PREDICTED BY IDOCK:   -3.65 KCAL/MOL
REMARK 922        TOTAL FREE ENERGY PREDICTED BY IDOCK:   -4.32 KCAL/MOL
REMARK 923 INTER-LIGAND FREE ENERGY PREDICTED BY IDOCK:   -4.07 KCAL/MOL
REMARK 924 INTRA-LIGAND FREE ENERGY PREDICTED BY IDOCK:   -0.25 KCAL/MOL
REMARK 927      BINDING AFFINITY PREDICTED BY RF-SCORE:    0.00 PKD
ROOT
HETATM    1  C   UNL     1     -12.494  10.679  71.562  1.00  0.00    -0.366 C  
HETATM    2  O   UNL     1     -12.955   9.379  71.912  1.00  0.00    -0.354 OA 
ENDROOT
BRANCH   2   3
HETATM    3  C   UNL     1     -12.199   8.325  71.480  1.00  0.00    -0.301 A  
HETATM    4  C   UNL     1     -12.468   6.981  71.712  1.00  0.00    -0.393 A  
HETATM    5  C   UNL     1     -11.626   5.991  71.195  1.00  0.00    -0.167 A  
HETATM    6  C   UNL     1     -10.473   6.313  70.459  1.00  0.00    -0.274 A  
HETATM    7  C   UNL     1     -10.211   7.671  70.236  1.00  0.00    -0.205 A  
HETATM    8  C   UNL     1      -9.567   5.180  69.938  1.00  0.00    -0.241 C  
HETATM    9  C   UNL     1      -8.914   5.491  68.548  1.00  0.00    -0.110 C  
HETATM   10  C   UNL     1     -11.070   8.662  70.733  1.00  0.00    -0.295 A  
HETATM   11  C   UNL     1      -8.489   4.710  71.003  1.00  0.00    -0.106 C  
HETATM   12  O   UNL     1      -7.640   5.816  71.343  1.00  0.00    -0.099 OA 
HETATM   13  C   UNL     1      -9.110   4.156  72.310  1.00  0.00    -0.148 C  
HETATM   14  C   UNL     1      -7.545   3.597  70.482  1.00  0.00    -0.041 C  
HETATM   15  C   UNL     1      -8.278   2.287  70.198  1.00  0.00    -0.063 C  
HETATM   16  C   UNL     1      -9.010   1.775  71.436  1.00  0.00    -0.124 C  
HETATM   17  C   UNL     1      -9.877   2.846  72.094  1.00  0.00    -0.239 C  
HETATM   18  H   UNL     1      -6.995   5.535  71.981  1.00  0.00     0.000 HD 
BRANCH   9  19
HETATM   19  N   UNL     1      -9.851   5.806  67.446  1.00  0.00    -0.129 NA 
HETATM   20  C   UNL     1     -10.083   4.648  66.578  1.00  0.00    -0.250 C  
HETATM   21  C   UNL     1      -9.322   6.910  66.638  1.00  0.00    -0.163 C  
ENDBRANCH   9  19
ENDBRANCH   2   3
TORSDOF 2
ENDMDL
MODEL       98
REMARK 921   NORMALIZED FREE ENERGY PREDICTED BY IDOCK:   -3.64 KCAL/MOL
REMARK 922        TOTAL FREE ENERGY PREDICTED BY IDOCK:   -4.31 KCAL/MOL
REMARK 923 INTER-LIGAND FREE ENERGY PREDICTED BY IDOCK:   -4.10 KCAL/MOL
REMARK 924 INTRA-LIGAND FREE ENERGY PREDICTED BY IDOCK:   -0.21 KCAL/MOL
REMARK 927      BINDING AFFINITY PREDICTED BY RF-SCORE:    0.00 PKD
ROOT
HETATM    1  C   UNL     1     -10.541  18.365  66.339  1.00  0.00    -0.309 C  
HETATM    2  O   UNL     1     -10.638  17.350  65.347  1.00  0.00    -0.638 OA 
ENDROOT
BRANCH   2   3
HETATM    3  C   UNL     1     -10.545  16.057  65.782  1.00  0.00    -0.353 A  
HETATM    4  C   UNL     1     -11.596  15.277  66.248  1.00  0.00     0.008 A  
HETATM    5  C   UNL     1     -11.375  13.954  66.646  1.00  0.00    -0.342 A  
HETATM    6  C   UNL     1     -10.091  13.382  66.622  1.00  0.00    -0.275 A  
HETATM    7  C   UNL     1      -9.040  14.180  66.155  1.00  0.00     0.016 A  
HETATM    8  C   UNL     1      -9.903  11.928  67.099  1.00  0.00    -0.206 C  
HETATM    9  C   UNL     1      -8.805  11.146  66.301  1.00  0.00    -0.185 C  
HETATM   10  C   UNL     1      -9.268  15.498  65.732  1.00  0.00    -0.216 A  
HETATM   11  C   UNL     1      -9.685  11.814  68.667  1.00  0.00    -0.128 C  
HETATM   12  O   UNL     1      -8.507  12.545  69.039  1.00  0.00    -0.335 OA 
HETATM   13  C   UNL     1     -10.874  12.357  69.499  1.00  0.00     0.110 C  
HETATM   14  C   UNL     1      -9.456  10.363  69.158  1.00  0.00    -0.220 C  
HETATM   15  C   UNL     1     -10.682   9.472  68.961  1.00  0.00    -0.224 C  
HETATM   16  C   UNL     1     -11.909  10.045  69.664  1.00  0.00    -0.037 C  
HETATM   17  C   UNL     1     -12.146  11.517  69.334  1.00  0.00    -0.345 C  
HETATM   18  H   UNL     1      -8.376  12.477  69.977  1.00  0.00     0.000 HD 
BRANCH   9  19
HETATM   19  N   UNL     1      -8.995  11.074  64.834  1.00  0.00    -0.149 NA 
HETATM   20  C   UNL     1     -10.224  10.361  64.477  1.00  0.00    -0.210 C  
HETATM   21  C   UNL     1      -7.852  10.397  64.213  1.00  0.00    -0.058 C  
ENDBRANCH   9  19
ENDBRANCH   2   3
TORSDOF 2
ENDMDL
MODEL       99
REMARK 921   NORMALIZED FREE ENERGY PREDICTED BY IDOCK:   -3.62 KCAL/MOL
REMARK 922        TOTAL FREE ENERGY PREDICTED BY IDOCK:   -4.29 KCAL/MOL
REMARK 923 INTER-LIGAND FREE ENERGY PREDICTED BY IDOCK:   -4.05 KCAL/MOL
REMARK 924 INTRA-LIGAND FREE ENERGY PREDICTED BY IDOCK:   -0.24 KCAL/MOL
REMARK 927      BINDING AFFINITY PREDICTED BY RF-SCORE:    0.00 PKD
ROOT
HETATM    1  C   UNL     1     -10.698  12.764  66.441  1.00  0.00    -0.262 C  
HETATM    2  O   UNL     1      -9.461  12.231  66.900  1.00  0.00    -0.204 OA 
ENDROOT
BRANCH   2   3
HETATM    3  C   UNL     1      -9.449  10.903  67.224  1.00  0.00    -0.159 A  
HETATM    4  C   UNL     1      -8.317  10.110  67.368  1.00  0.00    -0.118 A  
HETATM    5  C   UNL     1      -8.436   8.763  67.726  1.00  0.00    -0.125 A  
HETATM    6  C   UNL     1      -9.691   8.159  67.919  1.00  0.00    -0.191 A  
HETATM    7  C   UNL     1     -10.824   8.968  67.766  1.00  0.00    -0.125 A  
HETATM    8  C   UNL     1      -9.761   6.663  68.284  1.00  0.00    -0.132 C  
HETATM    9  C   UNL     1     -10.940   6.313  69.256  1.00  0.00    -0.369 C  
HETATM   10  C   UNL     1     -10.702  10.325  67.432  1.00  0.00    -0.339 A  
HETATM   11  C   UNL     1      -9.744   5.713  67.013  1.00  0.00    -0.143 C  
HETATM   12  O   UNL     1     -10.878   6.007  66.183  1.00  0.00    -0.529 OA 
HETATM   13  C   UNL     1      -8.463   5.854  66.152  1.00  0.00    -0.132 C  
HETATM   14  C   UNL     1      -9.853   4.207  67.361  1.00  0.00    -0.152 C  
HETATM   15  C   UNL     1      -8.642   3.692  68.137  1.00  0.00    -0.117 C  
HETATM   16  C   UNL     1      -7.344   3.931  67.371  1.00  0.00    -0.068 C  
HETATM   17  C   UNL     1      -7.204   5.369  66.878  1.00  0.00    -0.078 C  
HETATM   18  H   UNL     1     -10.867   5.439  65.422  1.00  0.00     0.000 HD 
BRANCH   9  19
HETATM   19  N   UNL     1     -10.964   7.050  70.540  1.00  0.00    -0.254 NA 
HETATM   20  C   UNL     1      -9.939   6.565  71.468  1.00  0.00    -0.175 C  
HETATM   21  C   UNL     1     -12.282   6.916  71.170  1.00  0.00    -0.379 C  
ENDBRANCH   9  19
ENDBRANCH   2   3
TORSDOF 2
ENDMDL
MODEL      100
REMARK 921   NORMALIZED FREE ENERGY PREDICTED BY IDOCK:   -3.62 KCAL/MOL
REMARK 922        TOTAL FREE ENERGY PREDICTED BY IDOCK:   -4.29 KCAL/MOL
REMARK 923 INTER-LIGAND FREE ENERGY PREDICTED BY IDOCK:   -4.19 KCAL/MOL
REMARK 924 INTRA-LIGAND FREE ENERGY PREDICTED BY IDOCK:   -0.10 KCAL/MOL
REMARK 927      BINDING AFFINITY PREDICTED BY RF-SCORE:    0.00 PKD
ROOT
HETATM    1  C   UNL     1     -10.105   5.178  67.269  1.00  0.00    -0.194 C  
HETATM    2  O   UNL     1      -9.043   6.124  67.223  1.00  0.00    -0.116 OA 
ENDROOT
BRANCH   2   3
HETATM    3  C   UNL     1      -9.326   7.384  67.669  1.00  0.00    -0.133 A  
HETATM    4  C   UNL     1      -9.801   7.714  68.933  1.00  0.00    -0.164 A  
HETATM    5  C   UNL     1     -10.032   9.050  69.278  1.00  0.00    -0.188 A  
HETATM    6  C   UNL     1      -9.827  10.094  68.359  1.00  0.00    -0.164 A  
HETATM    7  C   UNL     1      -9.353   9.748  67.088  1.00  0.00    -0.169 A  
HETATM    8  C   UNL     1     -10.125  11.545  68.786  1.00  0.00    -0.191 C  
HETATM    9  C   UNL     1      -9.149  12.595  68.154  1.00  0.00    -0.204 C  
HETATM   10  C   UNL     1      -9.097   8.411  66.752  1.00  0.00    -0.192 A  
HETATM   11  C   UNL     1     -11.644  11.952  68.576  1.00  0.00    -0.318 C  
HETATM   12  O   UNL     1     -11.982  11.835  67.186  1.00  0.00    -0.617 OA 
HETATM   13  C   UNL     1     -12.637  11.084  69.391  1.00  0.00     0.096 C  
HETATM   14  C   UNL     1     -11.953  13.420  68.965  1.00  0.00    -0.357 C  
HETATM   15  C   UNL     1     -11.776  13.685  70.459  1.00  0.00    -0.175 C  
HETATM   16  C   UNL     1     -12.647  12.756  71.300  1.00  0.00    -0.347 C  
HETATM   17  C   UNL     1     -12.501  11.289  70.903  1.00  0.00    -0.493 C  
HETATM   18  H   UNL     1     -12.891  12.079  67.060  1.00  0.00     0.000 HD 
BRANCH   9  19
HETATM   19  N   UNL     1      -7.707  12.380  68.414  1.00  0.00    -0.140 NA 
HETATM   20  C   UNL     1      -7.115  13.492  69.162  1.00  0.00    -0.021 C  
HETATM   21  C   UNL     1      -6.988  12.221  67.145  1.00  0.00    -0.102 C  
ENDBRANCH   9  19
ENDBRANCH   2   3
TORSDOF 2
ENDMDL
MODEL      101
REMARK 921   NORMALIZED FREE ENERGY PREDICTED BY IDOCK:   -3.57 KCAL/MOL
REMARK 922        TOTAL FREE ENERGY PREDICTED BY IDOCK:   -4.23 KCAL/MOL
REMARK 923 INTER-LIGAND FREE ENERGY PREDICTED BY IDOCK:   -4.14 KCAL/MOL
REMARK 924 INTRA-LIGAND FREE ENERGY PREDICTED BY IDOCK:   -0.09 KCAL/MOL
REMARK 927      BINDING AFFINITY PREDICTED BY RF-SCORE:    0.00 PKD
ROOT
HETATM    1  C   UNL     1     -14.400   8.188  71.765  1.00  0.00    -0.484 C  
HETATM    2  O   UNL     1     -13.110   7.716  72.137  1.00  0.00    -0.211 OA 
ENDROOT
BRANCH   2   3
HETATM    3  C   UNL     1     -12.067   8.087  71.335  1.00  0.00    -0.305 A  
HETATM    4  C   UNL     1     -11.398   9.304  71.380  1.00  0.00    -0.434 A  
HETATM    5  C   UNL     1     -10.327   9.557  70.516  1.00  0.00    -0.350 A  
HETATM    6  C   UNL     1      -9.913   8.614  69.559  1.00  0.00    -0.196 A  
HETATM    7  C   UNL     1     -10.599   7.393  69.521  1.00  0.00    -0.244 A  
HETATM    8  C   UNL     1      -8.744   8.959  68.615  1.00  0.00    -0.134 C  
HETATM    9  C   UNL     1      -7.847   7.725  68.256  1.00  0.00    -0.121 C  
HETATM   10  C   UNL     1     -11.656   7.132  70.405  1.00  0.00    -0.300 A  
HETATM   11  C   UNL     1      -9.208   9.746  67.317  1.00  0.00    -0.134 C  
HETATM   12  O   UNL     1     -10.137   8.940  66.576  1.00  0.00    -0.277 OA 
HETATM   13  C   UNL     1      -9.886  11.105  67.627  1.00  0.00    -0.191 C  
HETATM   14  C   UNL     1      -8.051  10.067  66.339  1.00  0.00    -0.120 C  
HETATM   15  C   UNL     1      -7.030  11.038  66.930  1.00  0.00    -0.125 C  
HETATM   16  C   UNL     1      -7.687  12.345  67.365  1.00  0.00    -0.170 C  
HETATM   17  C   UNL     1      -8.919  12.124  68.240  1.00  0.00    -0.186 C  
HETATM   18  H   UNL     1     -10.415   9.412  65.800  1.00  0.00     0.000 HD 
BRANCH   9  19
HETATM   19  N   UNL     1      -7.248   7.003  69.402  1.00  0.00    -0.082 NA 
HETATM   20  C   UNL     1      -6.703   7.922  70.404  1.00  0.00    -0.038 C  
HETATM   21  C   UNL     1      -6.177   6.118  68.932  1.00  0.00    -0.036 C  
ENDBRANCH   9  19
ENDBRANCH   2   3
TORSDOF 2
ENDMDL
MODEL      102
REMARK 921   NORMALIZED FREE ENERGY PREDICTED BY IDOCK:   -3.54 KCAL/MOL
REMARK 922        TOTAL FREE ENERGY PREDICTED BY IDOCK:   -4.20 KCAL/MOL
REMARK 923 INTER-LIGAND FREE ENERGY PREDICTED BY IDOCK:   -3.96 KCAL/MOL
REMARK 924 INTRA-LIGAND FREE ENERGY PREDICTED BY IDOCK:   -0.24 KCAL/MOL
REMARK 927      BINDING AFFINITY PREDICTED BY RF-SCORE:    0.00 PKD
ROOT
HETATM    1  C   UNL     1      -8.810   4.606  63.922  1.00  0.00    -0.135 C  
HETATM    2  O   UNL     1      -8.766   3.925  65.170  1.00  0.00    -0.112 OA 
ENDROOT
BRANCH   2   3
HETATM    3  C   UNL     1      -8.868   4.698  66.293  1.00  0.00    -0.113 A  
HETATM    4  C   UNL     1      -9.125   4.236  67.579  1.00  0.00    -0.153 A  
HETATM    5  C   UNL     1      -9.184   5.130  68.654  1.00  0.00    -0.150 A  
HETATM    6  C   UNL     1      -9.020   6.514  68.472  1.00  0.00    -0.126 A  
HETATM    7  C   UNL     1      -8.766   6.966  67.171  1.00  0.00    -0.120 A  
HETATM    8  C   UNL     1      -9.123   7.453  69.690  1.00  0.00    -0.140 C  
HETATM    9  C   UNL     1      -8.157   8.685  69.612  1.00  0.00    -0.112 C  
HETATM   10  C   UNL     1      -8.682   6.067  66.098  1.00  0.00    -0.146 A  
HETATM   11  C   UNL     1     -10.614   7.894  70.008  1.00  0.00    -0.242 C  
HETATM   12  O   UNL     1     -11.156   8.594  68.878  1.00  0.00    -0.435 OA 
HETATM   13  C   UNL     1     -11.553   6.707  70.339  1.00  0.00    -0.457 C  
HETATM   14  C   UNL     1     -10.731   8.869  71.207  1.00  0.00    -0.357 C  
HETATM   15  C   UNL     1     -10.318   8.229  72.531  1.00  0.00    -0.401 C  
HETATM   16  C   UNL     1     -11.140   6.978  72.828  1.00  0.00    -0.320 C  
HETATM   17  C   UNL     1     -11.184   6.006  71.651  1.00  0.00    -0.328 C  
HETATM   18  H   UNL     1     -12.049   8.857  69.068  1.00  0.00     0.000 HD 
BRANCH   9  19
HETATM   19  N   UNL     1      -6.718   8.373  69.456  1.00  0.00    -0.040 NA 
HETATM   20  C   UNL     1      -6.163   7.738  70.654  1.00  0.00    -0.037 C  
HETATM   21  C   UNL     1      -5.966   9.600  69.174  1.00  0.00    -0.034 C  
ENDBRANCH   9  19
ENDBRANCH   2   3
TORSDOF 2
ENDMDL
MODEL      103
REMARK 921   NORMALIZED FREE ENERGY PREDICTED BY IDOCK:   -3.54 KCAL/MOL
REMARK 922        TOTAL FREE ENERGY PREDICTED BY IDOCK:   -4.19 KCAL/MOL
REMARK 923 INTER-LIGAND FREE ENERGY PREDICTED BY IDOCK:   -4.08 KCAL/MOL
REMARK 924 INTRA-LIGAND FREE ENERGY PREDICTED BY IDOCK:   -0.11 KCAL/MOL
REMARK 927      BINDING AFFINITY PREDICTED BY RF-SCORE:    0.00 PKD
ROOT
HETATM    1  C   UNL     1      -7.405  11.763  67.241  1.00  0.00    -0.141 C  
HETATM    2  O   UNL     1      -8.722  11.726  67.778  1.00  0.00    -0.144 OA 
ENDROOT
BRANCH   2   3
HETATM    3  C   UNL     1      -9.057  10.616  68.503  1.00  0.00    -0.159 A  
HETATM    4  C   UNL     1      -8.375  10.132  69.613  1.00  0.00    -0.174 A  
HETATM    5  C   UNL     1      -8.832   8.994  70.285  1.00  0.00    -0.210 A  
HETATM    6  C   UNL     1      -9.966   8.286  69.850  1.00  0.00    -0.190 A  
HETATM    7  C   UNL     1     -10.641   8.781  68.727  1.00  0.00    -0.174 A  
HETATM    8  C   UNL     1     -10.407   7.022  70.614  1.00  0.00    -0.223 C  
HETATM    9  C   UNL     1     -11.961   6.830  70.660  1.00  0.00    -0.362 C  
HETATM   10  C   UNL     1     -10.197   9.937  68.069  1.00  0.00    -0.219 A  
HETATM   11  C   UNL     1      -9.666   5.708  70.118  1.00  0.00    -0.174 C  
HETATM   12  O   UNL     1      -9.956   5.494  68.728  1.00  0.00    -0.148 OA 
HETATM   13  C   UNL     1      -8.127   5.762  70.290  1.00  0.00    -0.105 C  
HETATM   14  C   UNL     1     -10.126   4.422  70.850  1.00  0.00    -0.199 C  
HETATM   15  C   UNL     1      -9.765   4.427  72.334  1.00  0.00    -0.210 C  
HETATM   16  C   UNL     1      -8.265   4.608  72.545  1.00  0.00    -0.114 C  
HETATM   17  C   UNL     1      -7.695   5.786  71.759  1.00  0.00    -0.101 C  
HETATM   18  H   UNL     1      -9.512   4.708  68.431  1.00  0.00     0.000 HD 
BRANCH   9  19
HETATM   19  N   UNL     1     -12.736   7.951  71.240  1.00  0.00    -0.272 NA 
HETATM   20  C   UNL     1     -12.138   8.444  72.483  1.00  0.00    -0.337 C  
HETATM   21  C   UNL     1     -14.113   7.522  71.510  1.00  0.00    -0.427 C  
ENDBRANCH   9  19
ENDBRANCH   2   3
TORSDOF 2
ENDMDL
MODEL      104
REMARK 921   NORMALIZED FREE ENERGY PREDICTED BY IDOCK:   -3.52 KCAL/MOL
REMARK 922        TOTAL FREE ENERGY PREDICTED BY IDOCK:   -4.17 KCAL/MOL
REMARK 923 INTER-LIGAND FREE ENERGY PREDICTED BY IDOCK:   -4.00 KCAL/MOL
REMARK 924 INTRA-LIGAND FREE ENERGY PREDICTED BY IDOCK:   -0.18 KCAL/MOL
REMARK 927      BINDING AFFINITY PREDICTED BY RF-SCORE:    0.00 PKD
ROOT
HETATM    1  C   UNL     1      -9.950   4.113  64.900  1.00  0.00    -0.199 C  
HETATM    2  O   UNL     1     -10.360   4.490  66.210  1.00  0.00    -0.261 OA 
ENDROOT
BRANCH   2   3
HETATM    3  C   UNL     1     -10.099   5.779  66.586  1.00  0.00    -0.193 A  
HETATM    4  C   UNL     1     -11.039   6.706  67.019  1.00  0.00    -0.395 A  
HETATM    5  C   UNL     1     -10.642   7.993  67.399  1.00  0.00    -0.337 A  
HETATM    6  C   UNL     1      -9.298   8.402  67.326  1.00  0.00    -0.181 A  
HETATM    7  C   UNL     1      -8.362   7.458  66.883  1.00  0.00    -0.122 A  
HETATM    8  C   UNL     1      -8.923   9.841  67.732  1.00  0.00    -0.132 C  
HETATM    9  C   UNL     1      -7.521   9.950  68.423  1.00  0.00    -0.082 C  
HETATM   10  C   UNL     1      -8.758   6.161  66.527  1.00  0.00    -0.133 A  
HETATM   11  C   UNL     1      -9.075  10.879  66.541  1.00  0.00    -0.169 C  
HETATM   12  O   UNL     1      -8.210  10.497  65.461  1.00  0.00    -0.159 OA 
HETATM   13  C   UNL     1     -10.520  10.983  65.990  1.00  0.00    -0.304 C  
HETATM   14  C   UNL     1      -8.666  12.324  66.921  1.00  0.00    -0.197 C  
HETATM   15  C   UNL     1      -9.585  12.940  67.974  1.00  0.00    -0.221 C  
HETATM   16  C   UNL     1     -11.040  12.942  67.516  1.00  0.00    -0.302 C  
HETATM   17  C   UNL     1     -11.501  11.579  67.005  1.00  0.00    -0.290 C  
HETATM   18  H   UNL     1      -8.300  11.118  64.748  1.00  0.00     0.000 HD 
BRANCH   9  19
HETATM   19  N   UNL     1      -7.328   9.120  69.633  1.00  0.00    -0.062 NA 
HETATM   20  C   UNL     1      -8.395   9.328  70.615  1.00  0.00    -0.207 C  
HETATM   21  C   UNL     1      -6.038   9.435  70.256  1.00  0.00    -0.049 C  
ENDBRANCH   9  19
ENDBRANCH   2   3
TORSDOF 2
ENDMDL
MODEL      105
REMARK 921   NORMALIZED FREE ENERGY PREDICTED BY IDOCK:   -3.52 KCAL/MOL
REMARK 922        TOTAL FREE ENERGY PREDICTED BY IDOCK:   -4.17 KCAL/MOL
REMARK 923 INTER-LIGAND FREE ENERGY PREDICTED BY IDOCK:   -3.95 KCAL/MOL
REMARK 924 INTRA-LIGAND FREE ENERGY PREDICTED BY IDOCK:   -0.22 KCAL/MOL
REMARK 927      BINDING AFFINITY PREDICTED BY RF-SCORE:    0.00 PKD
ROOT
HETATM    1  C   UNL     1      -7.613   7.955  63.201  1.00  0.00    -0.126 C  
HETATM    2  O   UNL     1      -8.485   8.825  63.914  1.00  0.00    -0.168 OA 
ENDROOT
BRANCH   2   3
HETATM    3  C   UNL     1      -8.617   8.595  65.255  1.00  0.00    -0.180 A  
HETATM    4  C   UNL     1      -8.592   7.352  65.875  1.00  0.00    -0.165 A  
HETATM    5  C   UNL     1      -8.716   7.249  67.264  1.00  0.00    -0.121 A  
HETATM    6  C   UNL     1      -8.901   8.384  68.074  1.00  0.00    -0.142 A  
HETATM    7  C   UNL     1      -8.929   9.631  67.436  1.00  0.00    -0.141 A  
HETATM    8  C   UNL     1      -9.061   8.208  69.597  1.00  0.00    -0.151 C  
HETATM    9  C   UNL     1      -8.425   9.372  70.430  1.00  0.00    -0.214 C  
HETATM   10  C   UNL     1      -8.779   9.734  66.046  1.00  0.00    -0.156 A  
HETATM   11  C   UNL     1     -10.559   7.921  70.034  1.00  0.00    -0.242 C  
HETATM   12  O   UNL     1     -11.390   9.023  69.639  1.00  0.00    -0.439 OA 
HETATM   13  C   UNL     1     -11.147   6.626  69.418  1.00  0.00    -0.365 C  
HETATM   14  C   UNL     1     -10.743   7.779  71.566  1.00  0.00    -0.255 C  
HETATM   15  C   UNL     1     -10.025   6.557  72.136  1.00  0.00    -0.173 C  
HETATM   16  C   UNL     1     -10.490   5.270  71.460  1.00  0.00    -0.279 C  
HETATM   17  C   UNL     1     -10.460   5.358  69.936  1.00  0.00    -0.378 C  
HETATM   18  H   UNL     1     -12.287   8.852  69.900  1.00  0.00     0.000 HD 
BRANCH   9  19
HETATM   19  N   UNL     1      -6.985   9.628  70.195  1.00  0.00    -0.088 NA 
HETATM   20  C   UNL     1      -6.155   9.125  71.293  1.00  0.00    -0.070 C  
HETATM   21  C   UNL     1      -6.750  11.067  70.040  1.00  0.00    -0.094 C  
ENDBRANCH   9  19
ENDBRANCH   2   3
TORSDOF 2
ENDMDL
MODEL      106
REMARK 921   NORMALIZED FREE ENERGY PREDICTED BY IDOCK:   -3.46 KCAL/MOL
REMARK 922        TOTAL FREE ENERGY PREDICTED BY IDOCK:   -4.11 KCAL/MOL
REMARK 923 INTER-LIGAND FREE ENERGY PREDICTED BY IDOCK:   -3.97 KCAL/MOL
REMARK 924 INTRA-LIGAND FREE ENERGY PREDICTED BY IDOCK:   -0.14 KCAL/MOL
REMARK 927      BINDING AFFINITY PREDICTED BY RF-SCORE:    0.00 PKD
ROOT
HETATM    1  C   UNL     1     -14.207   8.689  72.061  1.00  0.00    -0.443 C  
HETATM    2  O   UNL     1     -13.001   8.842  71.321  1.00  0.00    -0.299 OA 
ENDROOT
BRANCH   2   3
HETATM    3  C   UNL     1     -12.011   7.932  71.568  1.00  0.00    -0.301 A  
HETATM    4  C   UNL     1     -11.596   6.926  70.705  1.00  0.00    -0.402 A  
HETATM    5  C   UNL     1     -10.552   6.068  71.066  1.00  0.00    -0.305 A  
HETATM    6  C   UNL     1      -9.913   6.169  72.314  1.00  0.00    -0.186 A  
HETATM    7  C   UNL     1     -10.344   7.185  73.177  1.00  0.00    -0.336 A  
HETATM    8  C   UNL     1      -8.787   5.178  72.669  1.00  0.00    -0.123 C  
HETATM    9  C   UNL     1      -7.648   5.811  73.539  1.00  0.00    -0.101 C  
HETATM   10  C   UNL     1     -11.374   8.060  72.803  1.00  0.00    -0.439 A  
HETATM   11  C   UNL     1      -9.328   3.826  73.302  1.00  0.00    -0.105 C  
HETATM   12  O   UNL     1     -10.041   4.119  74.513  1.00  0.00    -0.158 OA 
HETATM   13  C   UNL     1     -10.273   3.037  72.361  1.00  0.00    -0.200 C  
HETATM   14  C   UNL     1      -8.206   2.834  73.700  1.00  0.00    -0.071 C  
HETATM   15  C   UNL     1      -7.427   2.310  72.495  1.00  0.00    -0.043 C  
HETATM   16  C   UNL     1      -8.349   1.636  71.482  1.00  0.00    -0.056 C  
HETATM   17  C   UNL     1      -9.557   2.495  71.119  1.00  0.00    -0.218 C  
HETATM   18  H   UNL     1     -10.366   3.310  74.891  1.00  0.00     0.000 HD 
BRANCH   9  19
HETATM   19  N   UNL     1      -6.980   7.002  72.967  1.00  0.00    -0.073 NA 
HETATM   20  C   UNL     1      -6.578   6.787  71.574  1.00  0.00    -0.053 C  
HETATM   21  C   UNL     1      -5.794   7.342  73.760  1.00  0.00    -0.057 C  
ENDBRANCH   9  19
ENDBRANCH   2   3
TORSDOF 2
ENDMDL
MODEL      107
REMARK 921   NORMALIZED FREE ENERGY PREDICTED BY IDOCK:   -3.44 KCAL/MOL
REMARK 922        TOTAL FREE ENERGY PREDICTED BY IDOCK:   -4.09 KCAL/MOL
REMARK 923 INTER-LIGAND FREE ENERGY PREDICTED BY IDOCK:   -3.87 KCAL/MOL
REMARK 924 INTRA-LIGAND FREE ENERGY PREDICTED BY IDOCK:   -0.22 KCAL/MOL
REMARK 927      BINDING AFFINITY PREDICTED BY RF-SCORE:    0.00 PKD
ROOT
HETATM    1  C   UNL     1      -6.675   4.929  64.701  1.00  0.00    -0.048 C  
HETATM    2  O   UNL     1      -6.733   6.350  64.715  1.00  0.00    -0.037 OA 
ENDROOT
BRANCH   2   3
HETATM    3  C   UNL     1      -7.432   6.924  65.740  1.00  0.00    -0.084 A  
HETATM    4  C   UNL     1      -6.960   7.136  67.030  1.00  0.00    -0.077 A  
HETATM    5  C   UNL     1      -7.769   7.756  67.988  1.00  0.00    -0.126 A  
HETATM    6  C   UNL     1      -9.085   8.155  67.695  1.00  0.00    -0.142 A  
HETATM    7  C   UNL     1      -9.550   7.931  66.393  1.00  0.00    -0.251 A  
HETATM    8  C   UNL     1      -9.940   8.809  68.799  1.00  0.00    -0.197 C  
HETATM    9  C   UNL     1     -10.913   9.914  68.264  1.00  0.00    -0.196 C  
HETATM   10  C   UNL     1      -8.730   7.332  65.427  1.00  0.00     0.009 A  
HETATM   11  C   UNL     1     -10.695   7.748  69.707  1.00  0.00    -0.236 C  
HETATM   12  O   UNL     1     -11.576   6.962  68.890  1.00  0.00    -0.532 OA 
HETATM   13  C   UNL     1      -9.742   6.785  70.458  1.00  0.00    -0.184 C  
HETATM   14  C   UNL     1     -11.589   8.390  70.798  1.00  0.00    -0.252 C  
HETATM   15  C   UNL     1     -10.784   9.160  71.843  1.00  0.00    -0.334 C  
HETATM   16  C   UNL     1      -9.743   8.269  72.516  1.00  0.00    -0.368 C  
HETATM   17  C   UNL     1      -8.889   7.497  71.514  1.00  0.00    -0.133 C  
HETATM   18  H   UNL     1     -12.028   6.328  69.433  1.00  0.00     0.000 HD 
BRANCH   9  19
HETATM   19  N   UNL     1     -10.284  11.028  67.519  1.00  0.00    -0.183 NA 
HETATM   20  C   UNL     1      -9.753  12.055  68.419  1.00  0.00    -0.199 C  
HETATM   21  C   UNL     1     -11.262  11.643  66.615  1.00  0.00    -0.299 C  
ENDBRANCH   9  19
ENDBRANCH   2   3
TORSDOF 2
ENDMDL
MODEL      108
REMARK 921   NORMALIZED FREE ENERGY PREDICTED BY IDOCK:   -3.41 KCAL/MOL
REMARK 922        TOTAL FREE ENERGY PREDICTED BY IDOCK:   -4.05 KCAL/MOL
REMARK 923 INTER-LIGAND FREE ENERGY PREDICTED BY IDOCK:   -3.84 KCAL/MOL
REMARK 924 INTRA-LIGAND FREE ENERGY PREDICTED BY IDOCK:   -0.21 KCAL/MOL
REMARK 927      BINDING AFFINITY PREDICTED BY RF-SCORE:    0.00 PKD
ROOT
HETATM    1  C   UNL     1     -10.757   3.692  63.716  1.00  0.00    -0.261 C  
HETATM    2  O   UNL     1      -9.823   3.371  64.740  1.00  0.00    -0.164 OA 
ENDROOT
BRANCH   2   3
HETATM    3  C   UNL     1      -9.834   4.169  65.850  1.00  0.00    -0.199 A  
HETATM    4  C   UNL     1     -10.723   5.207  66.098  1.00  0.00    -0.247 A  
HETATM    5  C   UNL     1     -10.644   5.939  67.288  1.00  0.00    -0.365 A  
HETATM    6  C   UNL     1      -9.654   5.676  68.251  1.00  0.00    -0.145 A  
HETATM    7  C   UNL     1      -8.761   4.630  67.987  1.00  0.00    -0.112 A  
HETATM    8  C   UNL     1      -9.598   6.534  69.531  1.00  0.00    -0.152 C  
HETATM    9  C   UNL     1      -9.149   5.733  70.800  1.00  0.00    -0.148 C  
HETATM   10  C   UNL     1      -8.857   3.881  66.805  1.00  0.00    -0.130 A  
HETATM   11  C   UNL     1      -8.756   7.867  69.347  1.00  0.00    -0.138 C  
HETATM   12  O   UNL     1      -7.406   7.533  68.994  1.00  0.00    -0.082 OA 
HETATM   13  C   UNL     1      -9.322   8.812  68.257  1.00  0.00    -0.143 C  
HETATM   14  C   UNL     1      -8.658   8.722  70.635  1.00  0.00    -0.203 C  
HETATM   15  C   UNL     1     -10.010   9.280  71.077  1.00  0.00    -0.364 C  
HETATM   16  C   UNL     1     -10.658  10.115  69.977  1.00  0.00    -0.338 C  
HETATM   17  C   UNL     1     -10.689   9.396  68.630  1.00  0.00    -0.196 C  
HETATM   18  H   UNL     1      -6.902   8.330  68.884  1.00  0.00     0.000 HD 
BRANCH   9  19
HETATM   19  N   UNL     1      -9.963   4.544  71.140  1.00  0.00    -0.197 NA 
HETATM   20  C   UNL     1     -10.785   4.766  72.332  1.00  0.00    -0.149 C  
HETATM   21  C   UNL     1      -9.090   3.388  71.370  1.00  0.00    -0.111 C  
ENDBRANCH   9  19
ENDBRANCH   2   3
TORSDOF 2
ENDMDL
MODEL      109
REMARK 921   NORMALIZED FREE ENERGY PREDICTED BY IDOCK:   -3.39 KCAL/MOL
REMARK 922        TOTAL FREE ENERGY PREDICTED BY IDOCK:   -4.03 KCAL/MOL
REMARK 923 INTER-LIGAND FREE ENERGY PREDICTED BY IDOCK:   -3.79 KCAL/MOL
REMARK 924 INTRA-LIGAND FREE ENERGY PREDICTED BY IDOCK:   -0.23 KCAL/MOL
REMARK 927      BINDING AFFINITY PREDICTED BY RF-SCORE:    0.00 PKD
ROOT
HETATM    1  C   UNL     1      -5.845  13.538  68.625  1.00  0.00    -0.085 C  
HETATM    2  O   UNL     1      -6.730  12.989  67.656  1.00  0.00    -0.130 OA 
ENDROOT
BRANCH   2   3
HETATM    3  C   UNL     1      -7.378  11.835  68.002  1.00  0.00    -0.091 A  
HETATM    4  C   UNL     1      -6.773  10.626  68.321  1.00  0.00    -0.063 A  
HETATM    5  C   UNL     1      -7.548   9.519  68.682  1.00  0.00    -0.080 A  
HETATM    6  C   UNL     1      -8.953   9.577  68.703  1.00  0.00    -0.132 A  
HETATM    7  C   UNL     1      -9.550  10.801  68.374  1.00  0.00    -0.177 A  
HETATM    8  C   UNL     1      -9.756   8.317  69.081  1.00  0.00    -0.171 C  
HETATM    9  C   UNL     1     -11.068   8.629  69.879  1.00  0.00    -0.116 C  
HETATM   10  C   UNL     1      -8.771  11.917  68.037  1.00  0.00    -0.173 A  
HETATM   11  C   UNL     1     -10.032   7.364  67.842  1.00  0.00    -0.165 C  
HETATM   12  O   UNL     1     -10.790   8.076  66.852  1.00  0.00    -0.386 OA 
HETATM   13  C   UNL     1      -8.742   6.829  67.172  1.00  0.00    -0.119 C  
HETATM   14  C   UNL     1     -10.872   6.111  68.198  1.00  0.00    -0.389 C  
HETATM   15  C   UNL     1     -10.144   5.163  69.149  1.00  0.00    -0.274 C  
HETATM   16  C   UNL     1      -8.803   4.714  68.574  1.00  0.00    -0.123 C  
HETATM   17  C   UNL     1      -7.951   5.881  68.080  1.00  0.00    -0.109 C  
HETATM   18  H   UNL     1     -10.956   7.506  66.111  1.00  0.00     0.000 HD 
BRANCH   9  19
HETATM   19  N   UNL     1     -10.898   9.399  71.132  1.00  0.00    -0.331 NA 
HETATM   20  C   UNL     1     -10.875   8.527  72.310  1.00  0.00    -0.348 C  
HETATM   21  C   UNL     1     -11.989  10.368  71.278  1.00  0.00    -0.330 C  
ENDBRANCH   9  19
ENDBRANCH   2   3
TORSDOF 2
ENDMDL
MODEL      110
REMARK 921   NORMALIZED FREE ENERGY PREDICTED BY IDOCK:   -3.38 KCAL/MOL
REMARK 922        TOTAL FREE ENERGY PREDICTED BY IDOCK:   -4.02 KCAL/MOL
REMARK 923 INTER-LIGAND FREE ENERGY PREDICTED BY IDOCK:   -3.80 KCAL/MOL
REMARK 924 INTRA-LIGAND FREE ENERGY PREDICTED BY IDOCK:   -0.22 KCAL/MOL
REMARK 927      BINDING AFFINITY PREDICTED BY RF-SCORE:    0.00 PKD
ROOT
HETATM    1  C   UNL     1     -12.065  14.234  66.945  1.00  0.00    -0.409 C  
HETATM    2  O   UNL     1     -12.031  13.035  66.181  1.00  0.00    -0.395 OA 
ENDROOT
BRANCH   2   3
HETATM    3  C   UNL     1     -11.283  12.008  66.686  1.00  0.00    -0.327 A  
HETATM    4  C   UNL     1     -10.898  11.856  68.012  1.00  0.00    -0.256 A  
HETATM    5  C   UNL     1     -10.148  10.745  68.410  1.00  0.00    -0.183 A  
HETATM    6  C   UNL     1      -9.731   9.768  67.489  1.00  0.00    -0.192 A  
HETATM    7  C   UNL     1     -10.122   9.935  66.154  1.00  0.00    -0.315 A  
HETATM    8  C   UNL     1      -8.882   8.579  67.980  1.00  0.00    -0.142 C  
HETATM    9  C   UNL     1      -9.186   7.240  67.224  1.00  0.00    -0.131 C  
HETATM   10  C   UNL     1     -10.896  11.037  65.761  1.00  0.00    -0.167 A  
HETATM   11  C   UNL     1      -7.328   8.898  68.010  1.00  0.00    -0.084 C  
HETATM   12  O   UNL     1      -6.883   9.227  66.686  1.00  0.00    -0.078 OA 
HETATM   13  C   UNL     1      -6.955  10.071  68.952  1.00  0.00    -0.062 C  
HETATM   14  C   UNL     1      -6.456   7.701  68.465  1.00  0.00    -0.048 C  
HETATM   15  C   UNL     1      -6.710   7.305  69.919  1.00  0.00    -0.051 C  
HETATM   16  C   UNL     1      -6.474   8.478  70.867  1.00  0.00    -0.042 C  
HETATM   17  C   UNL     1      -7.201   9.747  70.429  1.00  0.00    -0.149 C  
HETATM   18  H   UNL     1      -5.952   9.419  66.704  1.00  0.00     0.000 HD 
BRANCH   9  19
HETATM   19  N   UNL     1     -10.593   6.780  67.257  1.00  0.00    -0.277 NA 
HETATM   20  C   UNL     1     -11.005   6.380  68.605  1.00  0.00    -0.330 C  
HETATM   21  C   UNL     1     -10.771   5.644  66.347  1.00  0.00    -0.161 C  
ENDBRANCH   9  19
ENDBRANCH   2   3
TORSDOF 2
ENDMDL
MODEL      111
REMARK 921   NORMALIZED FREE ENERGY PREDICTED BY IDOCK:   -3.36 KCAL/MOL
REMARK 922        TOTAL FREE ENERGY PREDICTED BY IDOCK:   -3.99 KCAL/MOL
REMARK 923 INTER-LIGAND FREE ENERGY PREDICTED BY IDOCK:   -3.77 KCAL/MOL
REMARK 924 INTRA-LIGAND FREE ENERGY PREDICTED BY IDOCK:   -0.22 KCAL/MOL
REMARK 927      BINDING AFFINITY PREDICTED BY RF-SCORE:    0.00 PKD
ROOT
HETATM    1  C   UNL     1      -6.589   6.932  68.172  1.00  0.00    -0.059 C  
HETATM    2  O   UNL     1      -5.932   8.074  67.635  1.00  0.00    -0.043 OA 
ENDROOT
BRANCH   2   3
HETATM    3  C   UNL     1      -6.608   9.260  67.707  1.00  0.00    -0.063 A  
HETATM    4  C   UNL     1      -7.642   9.556  68.586  1.00  0.00    -0.080 A  
HETATM    5  C   UNL     1      -8.242  10.820  68.575  1.00  0.00    -0.136 A  
HETATM    6  C   UNL     1      -7.847  11.816  67.664  1.00  0.00    -0.138 A  
HETATM    7  C   UNL     1      -6.806  11.503  66.781  1.00  0.00    -0.114 A  
HETATM    8  C   UNL     1      -8.563  13.181  67.680  1.00  0.00    -0.193 C  
HETATM    9  C   UNL     1      -7.619  14.385  67.344  1.00  0.00    -0.172 C  
HETATM   10  C   UNL     1      -6.189  10.244  66.810  1.00  0.00    -0.070 A  
HETATM   11  C   UNL     1      -9.880  13.200  66.794  1.00  0.00    -0.251 C  
HETATM   12  O   UNL     1      -9.541  12.908  65.430  1.00  0.00    -0.470 OA 
HETATM   13  C   UNL     1     -10.952  12.182  67.256  1.00  0.00    -0.308 C  
HETATM   14  C   UNL     1     -10.591  14.577  66.769  1.00  0.00    -0.276 C  
HETATM   15  C   UNL     1     -11.142  14.982  68.135  1.00  0.00    -0.296 C  
HETATM   16  C   UNL     1     -12.109  13.935  68.681  1.00  0.00    -0.337 C  
HETATM   17  C   UNL     1     -11.538  12.520  68.632  1.00  0.00    -0.357 C  
HETATM   18  H   UNL     1     -10.329  12.919  64.900  1.00  0.00     0.000 HD 
BRANCH   9  19
HETATM   19  N   UNL     1      -6.427  14.537  68.210  1.00  0.00    -0.106 NA 
HETATM   20  C   UNL     1      -6.794  14.779  69.607  1.00  0.00    -0.173 C  
HETATM   21  C   UNL     1      -5.600  15.651  67.734  1.00  0.00    -0.130 C  
ENDBRANCH   9  19
ENDBRANCH   2   3
TORSDOF 2
ENDMDL
MODEL      112
REMARK 921   NORMALIZED FREE ENERGY PREDICTED BY IDOCK:   -3.34 KCAL/MOL
REMARK 922        TOTAL FREE ENERGY PREDICTED BY IDOCK:   -3.97 KCAL/MOL
REMARK 923 INTER-LIGAND FREE ENERGY PREDICTED BY IDOCK:   -3.74 KCAL/MOL
REMARK 924 INTRA-LIGAND FREE ENERGY PREDICTED BY IDOCK:   -0.23 KCAL/MOL
REMARK 927      BINDING AFFINITY PREDICTED BY RF-SCORE:    0.00 PKD
ROOT
HETATM    1  C   UNL     1     -10.389   5.613  71.907  1.00  0.00    -0.215 C  
HETATM    2  O   UNL     1      -9.667   6.811  72.163  1.00  0.00    -0.151 OA 
ENDROOT
BRANCH   2   3
HETATM    3  C   UNL     1      -9.550   7.691  71.124  1.00  0.00    -0.158 A  
HETATM    4  C   UNL     1     -10.015   9.000  71.109  1.00  0.00    -0.365 A  
HETATM    5  C   UNL     1      -9.813   9.811  69.986  1.00  0.00    -0.295 A  
HETATM    6  C   UNL     1      -9.170   9.328  68.833  1.00  0.00    -0.143 A  
HETATM    7  C   UNL     1      -8.711   8.005  68.860  1.00  0.00    -0.131 A  
HETATM    8  C   UNL     1      -9.001  10.259  67.616  1.00  0.00    -0.137 C  
HETATM    9  C   UNL     1      -7.666  10.024  66.831  1.00  0.00    -0.096 C  
HETATM   10  C   UNL     1      -8.891   7.202  69.995  1.00  0.00    -0.142 A  
HETATM   11  C   UNL     1     -10.261  10.251  66.651  1.00  0.00    -0.233 C  
HETATM   12  O   UNL     1     -10.470   8.922  66.150  1.00  0.00    -0.260 OA 
HETATM   13  C   UNL     1     -11.569  10.722  67.335  1.00  0.00     0.070 C  
HETATM   14  C   UNL     1     -10.092  11.153  65.402  1.00  0.00    -0.317 C  
HETATM   15  C   UNL     1      -9.993  12.636  65.754  1.00  0.00    -0.266 C  
HETATM   16  C   UNL     1     -11.212  13.106  66.543  1.00  0.00    -0.339 C  
HETATM   17  C   UNL     1     -11.532  12.202  67.731  1.00  0.00    -0.398 C  
HETATM   18  H   UNL     1     -11.224   8.917  65.573  1.00  0.00     0.000 HD 
BRANCH   9  19
HETATM   19  N   UNL     1      -6.418  10.150  67.619  1.00  0.00    -0.062 NA 
HETATM   20  C   UNL     1      -5.951  11.537  67.685  1.00  0.00    -0.058 C  
HETATM   21  C   UNL     1      -5.365   9.318  67.027  1.00  0.00    -0.040 C  
ENDBRANCH   9  19
ENDBRANCH   2   3
TORSDOF 2
ENDMDL
MODEL      113
REMARK 921   NORMALIZED FREE ENERGY PREDICTED BY IDOCK:   -3.33 KCAL/MOL
REMARK 922        TOTAL FREE ENERGY PREDICTED BY IDOCK:   -3.96 KCAL/MOL
REMARK 923 INTER-LIGAND FREE ENERGY PREDICTED BY IDOCK:   -3.73 KCAL/MOL
REMARK 924 INTRA-LIGAND FREE ENERGY PREDICTED BY IDOCK:   -0.24 KCAL/MOL
REMARK 927      BINDING AFFINITY PREDICTED BY RF-SCORE:    0.00 PKD
ROOT
HETATM    1  C   UNL     1     -10.207   3.817  72.645  1.00  0.00    -0.167 C  
HETATM    2  O   UNL     1     -10.670   5.158  72.551  1.00  0.00    -0.215 OA 
ENDROOT
BRANCH   2   3
HETATM    3  C   UNL     1     -10.213   5.891  71.492  1.00  0.00    -0.205 A  
HETATM    4  C   UNL     1      -9.888   7.242  71.516  1.00  0.00    -0.182 A  
HETATM    5  C   UNL     1      -9.408   7.876  70.365  1.00  0.00    -0.159 A  
HETATM    6  C   UNL     1      -9.268   7.187  69.147  1.00  0.00    -0.139 A  
HETATM    7  C   UNL     1      -9.603   5.827  69.136  1.00  0.00    -0.171 A  
HETATM    8  C   UNL     1      -8.760   7.945  67.904  1.00  0.00    -0.124 C  
HETATM    9  C   UNL     1      -7.868   7.068  66.960  1.00  0.00    -0.108 C  
HETATM   10  C   UNL     1     -10.061   5.187  70.297  1.00  0.00    -0.338 A  
HETATM   11  C   UNL     1      -9.922   8.675  67.106  1.00  0.00    -0.231 C  
HETATM   12  O   UNL     1     -10.876   7.701  66.657  1.00  0.00    -0.410 OA 
HETATM   13  C   UNL     1     -10.674   9.740  67.943  1.00  0.00    -0.312 C  
HETATM   14  C   UNL     1      -9.433   9.409  65.833  1.00  0.00    -0.315 C  
HETATM   15  C   UNL     1      -8.503  10.580  66.146  1.00  0.00    -0.154 C  
HETATM   16  C   UNL     1      -9.170  11.590  67.076  1.00  0.00    -0.180 C  
HETATM   17  C   UNL     1      -9.792  10.939  68.309  1.00  0.00    -0.179 C  
HETATM   18  H   UNL     1     -11.571   8.138  66.179  1.00  0.00     0.000 HD 
BRANCH   9  19
HETATM   19  N   UNL     1      -6.673   6.454  67.582  1.00  0.00    -0.061 NA 
HETATM   20  C   UNL     1      -5.442   7.160  67.217  1.00  0.00    -0.021 C  
HETATM   21  C   UNL     1      -6.559   5.051  67.170  1.00  0.00    -0.053 C  
ENDBRANCH   9  19
ENDBRANCH   2   3
TORSDOF 2
ENDMDL
MODEL      114
REMARK 921   NORMALIZED FREE ENERGY PREDICTED BY IDOCK:   -3.31 KCAL/MOL
REMARK 922        TOTAL FREE ENERGY PREDICTED BY IDOCK:   -3.94 KCAL/MOL
REMARK 923 INTER-LIGAND FREE ENERGY PREDICTED BY IDOCK:   -3.72 KCAL/MOL
REMARK 924 INTRA-LIGAND FREE ENERGY PREDICTED BY IDOCK:   -0.22 KCAL/MOL
REMARK 927      BINDING AFFINITY PREDICTED BY RF-SCORE:    0.00 PKD
ROOT
HETATM    1  C   UNL     1     -10.718   7.461  73.116  1.00  0.00    -0.387 C  
HETATM    2  O   UNL     1     -11.166   6.660  72.029  1.00  0.00    -0.244 OA 
ENDROOT
BRANCH   2   3
HETATM    3  C   UNL     1     -10.491   6.797  70.848  1.00  0.00    -0.213 A  
HETATM    4  C   UNL     1      -9.235   7.368  70.690  1.00  0.00    -0.157 A  
HETATM    5  C   UNL     1      -8.638   7.430  69.426  1.00  0.00    -0.134 A  
HETATM    6  C   UNL     1      -9.292   6.952  68.277  1.00  0.00    -0.125 A  
HETATM    7  C   UNL     1     -10.560   6.382  68.450  1.00  0.00    -0.311 A  
HETATM    8  C   UNL     1      -8.597   7.072  66.907  1.00  0.00    -0.120 C  
HETATM    9  C   UNL     1      -8.902   5.873  65.945  1.00  0.00    -0.149 C  
HETATM   10  C   UNL     1     -11.146   6.298  69.721  1.00  0.00    -0.473 A  
HETATM   11  C   UNL     1      -8.853   8.471  66.203  1.00  0.00    -0.167 C  
HETATM   12  O   UNL     1     -10.262   8.647  65.988  1.00  0.00    -0.422 OA 
HETATM   13  C   UNL     1      -8.334   9.680  67.021  1.00  0.00    -0.117 C  
HETATM   14  C   UNL     1      -8.193   8.594  64.807  1.00  0.00    -0.161 C  
HETATM   15  C   UNL     1      -6.667   8.566  64.871  1.00  0.00    -0.068 C  
HETATM   16  C   UNL     1      -6.124   9.669  65.774  1.00  0.00    -0.062 C  
HETATM   17  C   UNL     1      -6.807   9.704  67.140  1.00  0.00    -0.084 C  
HETATM   18  H   UNL     1     -10.415   9.484  65.567  1.00  0.00     0.000 HD 
BRANCH   9  19
HETATM   19  N   UNL     1      -8.565   4.526  66.459  1.00  0.00    -0.112 NA 
HETATM   20  C   UNL     1      -7.119   4.350  66.621  1.00  0.00    -0.067 C  
HETATM   21  C   UNL     1      -9.072   3.498  65.543  1.00  0.00    -0.147 C  
ENDBRANCH   9  19
ENDBRANCH   2   3
TORSDOF 2
ENDMDL
MODEL      115
REMARK 921   NORMALIZED FREE ENERGY PREDICTED BY IDOCK:   -3.30 KCAL/MOL
REMARK 922        TOTAL FREE ENERGY PREDICTED BY IDOCK:   -3.93 KCAL/MOL
REMARK 923 INTER-LIGAND FREE ENERGY PREDICTED BY IDOCK:   -3.76 KCAL/MOL
REMARK 924 INTRA-LIGAND FREE ENERGY PREDICTED BY IDOCK:   -0.17 KCAL/MOL
REMARK 927      BINDING AFFINITY PREDICTED BY RF-SCORE:    0.00 PKD
ROOT
HETATM    1  C   UNL     1      -7.722  12.508  67.228  1.00  0.00    -0.146 C  
HETATM    2  O   UNL     1      -9.025  11.997  67.487  1.00  0.00    -0.163 OA 
ENDROOT
BRANCH   2   3
HETATM    3  C   UNL     1      -9.094  10.814  68.167  1.00  0.00    -0.151 A  
HETATM    4  C   UNL     1      -8.507   9.616  67.779  1.00  0.00    -0.125 A  
HETATM    5  C   UNL     1      -8.633   8.473  68.576  1.00  0.00    -0.138 A  
HETATM    6  C   UNL     1      -9.377   8.485  69.769  1.00  0.00    -0.161 A  
HETATM    7  C   UNL     1      -9.967   9.698  70.147  1.00  0.00    -0.309 A  
HETATM    8  C   UNL     1      -9.504   7.188  70.593  1.00  0.00    -0.161 C  
HETATM    9  C   UNL     1      -9.543   7.433  72.141  1.00  0.00    -0.146 C  
HETATM   10  C   UNL     1      -9.819  10.849  69.359  1.00  0.00    -0.055 A  
HETATM   11  C   UNL     1     -10.703   6.265  70.113  1.00  0.00    -0.286 C  
HETATM   12  O   UNL     1     -11.939   6.982  70.245  1.00  0.00    -0.557 OA 
HETATM   13  C   UNL     1     -10.570   5.793  68.643  1.00  0.00    -0.305 C  
HETATM   14  C   UNL     1     -10.869   4.975  70.955  1.00  0.00     0.047 C  
HETATM   15  C   UNL     1      -9.682   4.023  70.817  1.00  0.00    -0.263 C  
HETATM   16  C   UNL     1      -9.442   3.636  69.360  1.00  0.00    -0.249 C  
HETATM   17  C   UNL     1      -9.386   4.845  68.429  1.00  0.00    -0.172 C  
HETATM   18  H   UNL     1     -12.657   6.429  69.957  1.00  0.00     0.000 HD 
BRANCH   9  19
HETATM   19  N   UNL     1      -8.391   8.169  72.711  1.00  0.00    -0.167 NA 
HETATM   20  C   UNL     1      -7.113   7.567  72.323  1.00  0.00    -0.068 C  
HETATM   21  C   UNL     1      -8.485   8.191  74.174  1.00  0.00    -0.186 C  
ENDBRANCH   9  19
ENDBRANCH   2   3
TORSDOF 2
ENDMDL
MODEL      116
REMARK 921   NORMALIZED FREE ENERGY PREDICTED BY IDOCK:   -3.30 KCAL/MOL
REMARK 922        TOTAL FREE ENERGY PREDICTED BY IDOCK:   -3.93 KCAL/MOL
REMARK 923 INTER-LIGAND FREE ENERGY PREDICTED BY IDOCK:   -3.79 KCAL/MOL
REMARK 924 INTRA-LIGAND FREE ENERGY PREDICTED BY IDOCK:   -0.14 KCAL/MOL
REMARK 927      BINDING AFFINITY PREDICTED BY RF-SCORE:    0.00 PKD
ROOT
HETATM    1  C   UNL     1     -12.452  11.992  70.851  1.00  0.00    -0.288 C  
HETATM    2  O   UNL     1     -12.649  10.588  70.971  1.00  0.00    -0.333 OA 
ENDROOT
BRANCH   2   3
HETATM    3  C   UNL     1     -11.525   9.822  71.109  1.00  0.00    -0.398 A  
HETATM    4  C   UNL     1     -11.365   8.764  71.995  1.00  0.00    -0.441 A  
HETATM    5  C   UNL     1     -10.169   8.039  72.026  1.00  0.00    -0.288 A  
HETATM    6  C   UNL     1      -9.085   8.371  71.194  1.00  0.00    -0.217 A  
HETATM    7  C   UNL     1      -9.258   9.442  70.309  1.00  0.00    -0.285 A  
HETATM    8  C   UNL     1      -7.781   7.554  71.291  1.00  0.00    -0.085 C  
HETATM    9  C   UNL     1      -7.050   7.379  69.916  1.00  0.00    -0.065 C  
HETATM   10  C   UNL     1     -10.467  10.151  70.262  1.00  0.00    -0.284 A  
HETATM   11  C   UNL     1      -6.798   8.089  72.417  1.00  0.00    -0.079 C  
HETATM   12  O   UNL     1      -6.434   9.447  72.127  1.00  0.00    -0.299 OA 
HETATM   13  C   UNL     1      -7.405   8.043  73.842  1.00  0.00    -0.196 C  
HETATM   14  C   UNL     1      -5.465   7.302  72.502  1.00  0.00    -0.037 C  
HETATM   15  C   UNL     1      -5.663   5.852  72.940  1.00  0.00    -0.036 C  
HETATM   16  C   UNL     1      -6.375   5.767  74.287  1.00  0.00    -0.070 C  
HETATM   17  C   UNL     1      -7.645   6.613  74.339  1.00  0.00    -0.101 C  
HETATM   18  H   UNL     1      -5.846   9.767  72.800  1.00  0.00     0.000 HD 
BRANCH   9  19
HETATM   19  N   UNL     1      -7.844   6.755  68.833  1.00  0.00    -0.110 NA 
HETATM   20  C   UNL     1      -8.534   5.546  69.289  1.00  0.00    -0.101 C  
HETATM   21  C   UNL     1      -6.972   6.412  67.705  1.00  0.00    -0.075 C  
ENDBRANCH   9  19
ENDBRANCH   2   3
TORSDOF 2
ENDMDL
MODEL      117
REMARK 921   NORMALIZED FREE ENERGY PREDICTED BY IDOCK:   -3.28 KCAL/MOL
REMARK 922        TOTAL FREE ENERGY PREDICTED BY IDOCK:   -3.90 KCAL/MOL
REMARK 923 INTER-LIGAND FREE ENERGY PREDICTED BY IDOCK:   -3.74 KCAL/MOL
REMARK 924 INTRA-LIGAND FREE ENERGY PREDICTED BY IDOCK:   -0.17 KCAL/MOL
REMARK 927      BINDING AFFINITY PREDICTED BY RF-SCORE:    0.00 PKD
ROOT
HETATM    1  C   UNL     1      -8.623   8.684  65.973  1.00  0.00    -0.155 C  
HETATM    2  O   UNL     1      -8.686   9.540  67.108  1.00  0.00    -0.130 OA 
ENDROOT
BRANCH   2   3
HETATM    3  C   UNL     1      -8.712   8.932  68.333  1.00  0.00    -0.134 A  
HETATM    4  C   UNL     1      -8.679   7.562  68.563  1.00  0.00    -0.128 A  
HETATM    5  C   UNL     1      -8.689   7.063  69.870  1.00  0.00    -0.142 A  
HETATM    6  C   UNL     1      -8.765   7.915  70.985  1.00  0.00    -0.138 A  
HETATM    7  C   UNL     1      -8.802   9.294  70.739  1.00  0.00    -0.282 A  
HETATM    8  C   UNL     1      -8.801   7.307  72.401  1.00  0.00    -0.143 C  
HETATM    9  C   UNL     1      -8.056   8.174  73.472  1.00  0.00    -0.202 C  
HETATM   10  C   UNL     1      -8.767   9.794  69.429  1.00  0.00    -0.178 A  
HETATM   11  C   UNL     1     -10.266   6.920  72.871  1.00  0.00    -0.203 C  
HETATM   12  O   UNL     1     -11.088   8.097  72.888  1.00  0.00    -0.373 OA 
HETATM   13  C   UNL     1     -10.950   5.865  71.966  1.00  0.00    -0.319 C  
HETATM   14  C   UNL     1     -10.325   6.342  74.308  1.00  0.00    -0.304 C  
HETATM   15  C   UNL     1      -9.606   5.000  74.434  1.00  0.00    -0.151 C  
HETATM   16  C   UNL     1     -10.171   3.969  73.461  1.00  0.00    -0.210 C  
HETATM   17  C   UNL     1     -10.267   4.495  72.031  1.00  0.00    -0.251 C  
HETATM   18  H   UNL     1     -11.965   7.866  73.170  1.00  0.00     0.000 HD 
BRANCH   9  19
HETATM   19  N   UNL     1      -6.633   8.472  73.191  1.00  0.00    -0.205 NA 
HETATM   20  C   UNL     1      -5.872   7.261  72.874  1.00  0.00    -0.044 C  
HETATM   21  C   UNL     1      -6.020   9.132  74.349  1.00  0.00    -0.044 C  
ENDBRANCH   9  19
ENDBRANCH   2   3
TORSDOF 2
ENDMDL
MODEL      118
REMARK 921   NORMALIZED FREE ENERGY PREDICTED BY IDOCK:   -3.27 KCAL/MOL
REMARK 922        TOTAL FREE ENERGY PREDICTED BY IDOCK:   -3.90 KCAL/MOL
REMARK 923 INTER-LIGAND FREE ENERGY PREDICTED BY IDOCK:   -3.70 KCAL/MOL
REMARK 924 INTRA-LIGAND FREE ENERGY PREDICTED BY IDOCK:   -0.19 KCAL/MOL
REMARK 927      BINDING AFFINITY PREDICTED BY RF-SCORE:    0.00 PKD
ROOT
HETATM    1  C   UNL     1     -12.658  11.572  70.831  1.00  0.00    -0.341 C  
HETATM    2  O   UNL     1     -12.956  10.287  71.364  1.00  0.00    -0.373 OA 
ENDROOT
BRANCH   2   3
HETATM    3  C   UNL     1     -11.962   9.351  71.300  1.00  0.00    -0.353 A  
HETATM    4  C   UNL     1     -11.186   9.063  70.184  1.00  0.00    -0.191 A  
HETATM    5  C   UNL     1     -10.179   8.094  70.252  1.00  0.00    -0.200 A  
HETATM    6  C   UNL     1      -9.939   7.361  71.427  1.00  0.00    -0.195 A  
HETATM    7  C   UNL     1     -10.732   7.658  72.543  1.00  0.00    -0.350 A  
HETATM    8  C   UNL     1      -8.835   6.285  71.435  1.00  0.00    -0.139 C  
HETATM    9  C   UNL     1      -8.087   6.167  72.807  1.00  0.00    -0.106 C  
HETATM   10  C   UNL     1     -11.724   8.647  72.481  1.00  0.00    -0.330 A  
HETATM   11  C   UNL     1      -9.343   4.873  70.918  1.00  0.00    -0.152 C  
HETATM   12  O   UNL     1     -10.403   4.407  71.767  1.00  0.00    -0.161 OA 
HETATM   13  C   UNL     1      -9.865   4.898  69.459  1.00  0.00    -0.287 C  
HETATM   14  C   UNL     1      -8.255   3.770  70.955  1.00  0.00    -0.077 C  
HETATM   15  C   UNL     1      -7.102   4.046  69.991  1.00  0.00    -0.042 C  
HETATM   16  C   UNL     1      -7.598   4.204  68.556  1.00  0.00    -0.063 C  
HETATM   17  C   UNL     1      -8.760   5.187  68.438  1.00  0.00    -0.104 C  
HETATM   18  H   UNL     1     -10.707   3.562  71.457  1.00  0.00     0.000 HD 
BRANCH   9  19
HETATM   19  N   UNL     1      -7.454   7.408  73.309  1.00  0.00    -0.081 NA 
HETATM   20  C   UNL     1      -6.516   7.975  72.338  1.00  0.00    -0.068 C  
HETATM   21  C   UNL     1      -6.739   7.135  74.561  1.00  0.00    -0.090 C  
ENDBRANCH   9  19
ENDBRANCH   2   3
TORSDOF 2
ENDMDL
MODEL      119
REMARK 921   NORMALIZED FREE ENERGY PREDICTED BY IDOCK:   -3.26 KCAL/MOL
REMARK 922        TOTAL FREE ENERGY PREDICTED BY IDOCK:   -3.88 KCAL/MOL
REMARK 923 INTER-LIGAND FREE ENERGY PREDICTED BY IDOCK:   -3.66 KCAL/MOL
REMARK 924 INTRA-LIGAND FREE ENERGY PREDICTED BY IDOCK:   -0.22 KCAL/MOL
REMARK 927      BINDING AFFINITY PREDICTED BY RF-SCORE:    0.00 PKD
ROOT
HETATM    1  C   UNL     1      -8.674   2.975  63.663  1.00  0.00    -0.089 C  
HETATM    2  O   UNL     1      -9.426   2.696  64.839  1.00  0.00    -0.150 OA 
ENDROOT
BRANCH   2   3
HETATM    3  C   UNL     1      -9.373   3.630  65.836  1.00  0.00    -0.166 A  
HETATM    4  C   UNL     1      -9.504   3.377  67.196  1.00  0.00    -0.199 A  
HETATM    5  C   UNL     1      -9.409   4.420  68.123  1.00  0.00    -0.195 A  
HETATM    6  C   UNL     1      -9.213   5.752  67.718  1.00  0.00    -0.105 A  
HETATM    7  C   UNL     1      -9.087   5.993  66.344  1.00  0.00    -0.159 A  
HETATM    8  C   UNL     1      -9.144   6.864  68.783  1.00  0.00    -0.133 C  
HETATM    9  C   UNL     1      -8.146   8.016  68.419  1.00  0.00    -0.122 C  
HETATM   10  C   UNL     1      -9.157   4.943  65.417  1.00  0.00    -0.155 A  
HETATM   11  C   UNL     1     -10.573   7.426  69.184  1.00  0.00    -0.204 C  
HETATM   12  O   UNL     1     -11.209   7.981  68.023  1.00  0.00    -0.333 OA 
HETATM   13  C   UNL     1     -11.514   6.354  69.786  1.00  0.00    -0.468 C  
HETATM   14  C   UNL     1     -10.519   8.572  70.226  1.00  0.00    -0.233 C  
HETATM   15  C   UNL     1      -9.987   8.112  71.582  1.00  0.00    -0.252 C  
HETATM   16  C   UNL     1     -10.819   6.964  72.149  1.00  0.00    -0.256 C  
HETATM   17  C   UNL     1     -11.030   5.834  71.144  1.00  0.00    -0.295 C  
HETATM   18  H   UNL     1     -12.065   8.318  68.262  1.00  0.00     0.000 HD 
BRANCH   9  19
HETATM   19  N   UNL     1      -6.747   7.606  68.164  1.00  0.00    -0.057 NA 
HETATM   20  C   UNL     1      -5.857   7.985  69.264  1.00  0.00    -0.034 C  
HETATM   21  C   UNL     1      -6.262   8.223  66.924  1.00  0.00    -0.055 C  
ENDBRANCH   9  19
ENDBRANCH   2   3
TORSDOF 2
ENDMDL
MODEL      120
REMARK 921   NORMALIZED FREE ENERGY PREDICTED BY IDOCK:   -3.25 KCAL/MOL
REMARK 922        TOTAL FREE ENERGY PREDICTED BY IDOCK:   -3.88 KCAL/MOL
REMARK 923 INTER-LIGAND FREE ENERGY PREDICTED BY IDOCK:   -3.66 KCAL/MOL
REMARK 924 INTRA-LIGAND FREE ENERGY PREDICTED BY IDOCK:   -0.22 KCAL/MOL
REMARK 927      BINDING AFFINITY PREDICTED BY RF-SCORE:    0.00 PKD
ROOT
HETATM    1  C   UNL     1     -12.753  14.202  65.992  1.00  0.00    -0.289 C  
HETATM    2  O   UNL     1     -12.784  12.826  65.631  1.00  0.00    -0.549 OA 
ENDROOT
BRANCH   2   3
HETATM    3  C   UNL     1     -11.592  12.157  65.662  1.00  0.00    -0.351 A  
HETATM    4  C   UNL     1     -10.711  12.012  64.597  1.00  0.00    -0.355 A  
HETATM    5  C   UNL     1      -9.507  11.320  64.762  1.00  0.00    -0.221 A  
HETATM    6  C   UNL     1      -9.160  10.725  65.988  1.00  0.00    -0.204 A  
HETATM    7  C   UNL     1     -10.058  10.875  67.052  1.00  0.00    -0.244 A  
HETATM    8  C   UNL     1      -7.832   9.951  66.103  1.00  0.00    -0.110 C  
HETATM    9  C   UNL     1      -7.151  10.086  67.508  1.00  0.00    -0.087 C  
HETATM   10  C   UNL     1     -11.254  11.591  66.892  1.00  0.00    -0.363 A  
HETATM   11  C   UNL     1      -7.958   8.435  65.652  1.00  0.00    -0.115 C  
HETATM   12  O   UNL     1      -8.918   7.768  66.485  1.00  0.00    -0.145 OA 
HETATM   13  C   UNL     1      -8.394   8.262  64.175  1.00  0.00    -0.050 C  
HETATM   14  C   UNL     1      -6.640   7.632  65.798  1.00  0.00    -0.045 C  
HETATM   15  C   UNL     1      -5.538   8.132  64.865  1.00  0.00    -0.044 C  
HETATM   16  C   UNL     1      -5.982   8.095  63.405  1.00  0.00    -0.071 C  
HETATM   17  C   UNL     1      -7.338   8.760  63.183  1.00  0.00    -0.099 C  
HETATM   18  H   UNL     1      -8.994   6.860  66.215  1.00  0.00     0.000 HD 
BRANCH   9  19
HETATM   19  N   UNL     1      -6.861  11.466  67.960  1.00  0.00    -0.065 NA 
HETATM   20  C   UNL     1      -5.833  12.106  67.135  1.00  0.00    -0.139 C  
HETATM   21  C   UNL     1      -6.414  11.453  69.357  1.00  0.00    -0.108 C  
ENDBRANCH   9  19
ENDBRANCH   2   3
TORSDOF 2
ENDMDL
MODEL      121
REMARK 921   NORMALIZED FREE ENERGY PREDICTED BY IDOCK:   -3.25 KCAL/MOL
REMARK 922        TOTAL FREE ENERGY PREDICTED BY IDOCK:   -3.87 KCAL/MOL
REMARK 923 INTER-LIGAND FREE ENERGY PREDICTED BY IDOCK:   -3.84 KCAL/MOL
REMARK 924 INTRA-LIGAND FREE ENERGY PREDICTED BY IDOCK:   -0.03 KCAL/MOL
REMARK 927      BINDING AFFINITY PREDICTED BY RF-SCORE:    0.00 PKD
ROOT
HETATM    1  C   UNL     1     -14.381   8.821  72.103  1.00  0.00    -0.393 C  
HETATM    2  O   UNL     1     -13.157   9.071  71.423  1.00  0.00    -0.324 OA 
ENDROOT
BRANCH   2   3
HETATM    3  C   UNL     1     -12.140   8.185  71.647  1.00  0.00    -0.304 A  
HETATM    4  C   UNL     1     -11.030   8.407  72.452  1.00  0.00    -0.425 A  
HETATM    5  C   UNL     1     -10.064   7.409  72.619  1.00  0.00    -0.255 A  
HETATM    6  C   UNL     1     -10.162   6.170  71.961  1.00  0.00    -0.223 A  
HETATM    7  C   UNL     1     -11.284   5.961  71.149  1.00  0.00    -0.281 A  
HETATM    8  C   UNL     1      -9.053   5.118  72.161  1.00  0.00    -0.150 C  
HETATM    9  C   UNL     1      -9.584   3.644  72.161  1.00  0.00    -0.146 C  
HETATM   10  C   UNL     1     -12.264   6.954  71.002  1.00  0.00    -0.427 A  
HETATM   11  C   UNL     1      -7.835   5.306  71.161  1.00  0.00    -0.103 C  
HETATM   12  O   UNL     1      -8.304   5.185  69.810  1.00  0.00    -0.090 OA 
HETATM   13  C   UNL     1      -7.119   6.672  71.306  1.00  0.00    -0.076 C  
HETATM   14  C   UNL     1      -6.729   4.233  71.323  1.00  0.00    -0.031 C  
HETATM   15  C   UNL     1      -6.022   4.313  72.676  1.00  0.00    -0.016 C  
HETATM   16  C   UNL     1      -5.412   5.693  72.907  1.00  0.00    -0.023 C  
HETATM   17  C   UNL     1      -6.401   6.827  72.651  1.00  0.00    -0.054 C  
HETATM   18  H   UNL     1      -7.575   5.297  69.211  1.00  0.00     0.000 HD 
BRANCH   9  19
HETATM   19  N   UNL     1     -10.631   3.331  73.161  1.00  0.00    -0.164 NA 
HETATM   20  C   UNL     1     -10.382   4.000  74.440  1.00  0.00    -0.222 C  
HETATM   21  C   UNL     1     -10.695   1.883  73.383  1.00  0.00    -0.137 C  
ENDBRANCH   9  19
ENDBRANCH   2   3
TORSDOF 2
ENDMDL
MODEL      122
REMARK 921   NORMALIZED FREE ENERGY PREDICTED BY IDOCK:   -3.23 KCAL/MOL
REMARK 922        TOTAL FREE ENERGY PREDICTED BY IDOCK:   -3.85 KCAL/MOL
REMARK 923 INTER-LIGAND FREE ENERGY PREDICTED BY IDOCK:   -3.67 KCAL/MOL
REMARK 924 INTRA-LIGAND FREE ENERGY PREDICTED BY IDOCK:   -0.19 KCAL/MOL
REMARK 927      BINDING AFFINITY PREDICTED BY RF-SCORE:    0.00 PKD
ROOT
HETATM    1  C   UNL     1     -10.257   9.213  66.598  1.00  0.00    -0.258 C  
HETATM    2  O   UNL     1     -10.737   7.899  66.856  1.00  0.00    -0.333 OA 
ENDROOT
BRANCH   2   3
HETATM    3  C   UNL     1     -10.295   7.300  68.003  1.00  0.00    -0.197 A  
HETATM    4  C   UNL     1     -10.914   6.244  68.661  1.00  0.00    -0.423 A  
HETATM    5  C   UNL     1     -10.348   5.702  69.820  1.00  0.00    -0.352 A  
HETATM    6  C   UNL     1      -9.164   6.220  70.375  1.00  0.00    -0.160 A  
HETATM    7  C   UNL     1      -8.553   7.287  69.704  1.00  0.00    -0.137 A  
HETATM    8  C   UNL     1      -8.602   5.600  71.669  1.00  0.00    -0.132 C  
HETATM    9  C   UNL     1      -7.036   5.585  71.726  1.00  0.00    -0.077 C  
HETATM   10  C   UNL     1      -9.108   7.813  68.528  1.00  0.00    -0.132 A  
HETATM   11  C   UNL     1      -9.233   6.229  72.982  1.00  0.00    -0.132 C  
HETATM   12  O   UNL     1      -8.950   7.636  73.021  1.00  0.00    -0.142 OA 
HETATM   13  C   UNL     1     -10.768   6.042  73.083  1.00  0.00    -0.285 C  
HETATM   14  C   UNL     1      -8.651   5.644  74.294  1.00  0.00    -0.112 C  
HETATM   15  C   UNL     1      -8.986   4.165  74.479  1.00  0.00    -0.106 C  
HETATM   16  C   UNL     1     -10.493   3.925  74.456  1.00  0.00    -0.254 C  
HETATM   17  C   UNL     1     -11.176   4.575  73.255  1.00  0.00    -0.388 C  
HETATM   18  H   UNL     1      -9.327   8.013  73.806  1.00  0.00     0.000 HD 
BRANCH   9  19
HETATM   19  N   UNL     1      -6.352   4.894  70.610  1.00  0.00    -0.025 NA 
HETATM   20  C   UNL     1      -5.690   3.664  71.054  1.00  0.00    -0.013 C  
HETATM   21  C   UNL     1      -5.354   5.782  70.005  1.00  0.00    -0.008 C  
ENDBRANCH   9  19
ENDBRANCH   2   3
TORSDOF 2
ENDMDL
MODEL      123
REMARK 921   NORMALIZED FREE ENERGY PREDICTED BY IDOCK:   -3.22 KCAL/MOL
REMARK 922        TOTAL FREE ENERGY PREDICTED BY IDOCK:   -3.84 KCAL/MOL
REMARK 923 INTER-LIGAND FREE ENERGY PREDICTED BY IDOCK:   -3.66 KCAL/MOL
REMARK 924 INTRA-LIGAND FREE ENERGY PREDICTED BY IDOCK:   -0.18 KCAL/MOL
REMARK 927      BINDING AFFINITY PREDICTED BY RF-SCORE:    0.00 PKD
ROOT
HETATM    1  C   UNL     1      -5.243  14.570  70.400  1.00  0.00    -0.106 C  
HETATM    2  O   UNL     1      -5.562  14.120  69.088  1.00  0.00    -0.083 OA 
ENDROOT
BRANCH   2   3
HETATM    3  C   UNL     1      -6.481  13.113  68.993  1.00  0.00    -0.103 A  
HETATM    4  C   UNL     1      -6.340  11.830  69.508  1.00  0.00    -0.123 A  
HETATM    5  C   UNL     1      -7.367  10.891  69.362  1.00  0.00    -0.116 A  
HETATM    6  C   UNL     1      -8.553  11.196  68.670  1.00  0.00    -0.151 A  
HETATM    7  C   UNL     1      -8.680  12.491  68.153  1.00  0.00    -0.190 A  
HETATM    8  C   UNL     1      -9.638  10.112  68.518  1.00  0.00    -0.158 C  
HETATM    9  C   UNL     1     -11.098  10.681  68.555  1.00  0.00    -0.263 C  
HETATM   10  C   UNL     1      -7.660  13.439  68.321  1.00  0.00    -0.135 A  
HETATM   11  C   UNL     1      -9.403   9.173  67.260  1.00  0.00    -0.135 C  
HETATM   12  O   UNL     1      -9.417   9.967  66.064  1.00  0.00    -0.173 OA 
HETATM   13  C   UNL     1      -8.065   8.394  67.309  1.00  0.00    -0.105 C  
HETATM   14  C   UNL     1     -10.507   8.102  67.070  1.00  0.00    -0.396 C  
HETATM   15  C   UNL     1     -10.539   7.080  68.205  1.00  0.00    -0.250 C  
HETATM   16  C   UNL     1      -9.192   6.381  68.366  1.00  0.00    -0.120 C  
HETATM   17  C   UNL     1      -8.023   7.360  68.439  1.00  0.00    -0.124 C  
HETATM   18  H   UNL     1      -9.276   9.405  65.310  1.00  0.00     0.000 HD 
BRANCH   9  19
HETATM   19  N   UNL     1     -11.462  11.458  69.761  1.00  0.00    -0.298 NA 
HETATM   20  C   UNL     1     -12.431  10.746  70.598  1.00  0.00    -0.370 C  
HETATM   21  C   UNL     1     -12.027  12.754  69.372  1.00  0.00    -0.263 C  
ENDBRANCH   9  19
ENDBRANCH   2   3
TORSDOF 2
ENDMDL
MODEL      124
REMARK 921   NORMALIZED FREE ENERGY PREDICTED BY IDOCK:   -3.20 KCAL/MOL
REMARK 922        TOTAL FREE ENERGY PREDICTED BY IDOCK:   -3.82 KCAL/MOL
REMARK 923 INTER-LIGAND FREE ENERGY PREDICTED BY IDOCK:   -3.91 KCAL/MOL
REMARK 924 INTRA-LIGAND FREE ENERGY PREDICTED BY IDOCK:    0.10 KCAL/MOL
REMARK 927      BINDING AFFINITY PREDICTED BY RF-SCORE:    0.00 PKD
ROOT
HETATM    1  C   UNL     1      -9.629  20.637  66.274  1.00  0.00     0.088 C  
HETATM    2  O   UNL     1      -9.778  20.206  67.621  1.00  0.00    -0.376 OA 
ENDROOT
BRANCH   2   3
HETATM    3  C   UNL     1      -9.600  18.872  67.861  1.00  0.00    -0.316 A  
HETATM    4  C   UNL     1      -8.526  18.301  68.533  1.00  0.00    -0.325 A  
HETATM    5  C   UNL     1      -8.470  16.917  68.734  1.00  0.00    -0.244 A  
HETATM    6  C   UNL     1      -9.469  16.059  68.241  1.00  0.00    -0.206 A  
HETATM    7  C   UNL     1     -10.543  16.647  67.560  1.00  0.00    -0.311 A  
HETATM    8  C   UNL     1      -9.340  14.540  68.468  1.00  0.00    -0.203 C  
HETATM    9  C   UNL     1     -10.715  13.823  68.692  1.00  0.00    -0.256 C  
HETATM   10  C   UNL     1     -10.611  18.037  67.382  1.00  0.00    -0.378 A  
HETATM   11  C   UNL     1      -8.474  13.818  67.350  1.00  0.00    -0.202 C  
HETATM   12  O   UNL     1      -9.093  14.010  66.069  1.00  0.00    -0.490 OA 
HETATM   13  C   UNL     1      -7.016  14.335  67.266  1.00  0.00     0.099 C  
HETATM   14  C   UNL     1      -8.367  12.285  67.543  1.00  0.00    -0.170 C  
HETATM   15  C   UNL     1      -7.602  11.901  68.809  1.00  0.00    -0.090 C  
HETATM   16  C   UNL     1      -6.199  12.501  68.819  1.00  0.00    -0.074 C  
HETATM   17  C   UNL     1      -6.194  13.997  68.515  1.00  0.00    -0.093 C  
HETATM   18  H   UNL     1      -8.575  13.579  65.400  1.00  0.00     0.000 HD 
BRANCH   9  19
HETATM   19  N   UNL     1     -11.540  14.336  69.809  1.00  0.00    -0.280 NA 
HETATM   20  C   UNL     1     -10.716  14.860  70.901  1.00  0.00     0.181 C  
HETATM   21  C   UNL     1     -12.399  13.267  70.330  1.00  0.00    -0.264 C  
ENDBRANCH   9  19
ENDBRANCH   2   3
TORSDOF 2
ENDMDL
MODEL      125
REMARK 921   NORMALIZED FREE ENERGY PREDICTED BY IDOCK:   -3.20 KCAL/MOL
REMARK 922        TOTAL FREE ENERGY PREDICTED BY IDOCK:   -3.82 KCAL/MOL
REMARK 923 INTER-LIGAND FREE ENERGY PREDICTED BY IDOCK:   -3.89 KCAL/MOL
REMARK 924 INTRA-LIGAND FREE ENERGY PREDICTED BY IDOCK:    0.08 KCAL/MOL
REMARK 927      BINDING AFFINITY PREDICTED BY RF-SCORE:    0.00 PKD
ROOT
HETATM    1  C   UNL     1      -6.645   6.160  67.818  1.00  0.00    -0.059 C  
HETATM    2  O   UNL     1      -6.311   7.543  67.851  1.00  0.00    -0.049 OA 
ENDROOT
BRANCH   2   3
HETATM    3  C   UNL     1      -7.354   8.425  67.897  1.00  0.00    -0.096 A  
HETATM    4  C   UNL     1      -8.247   8.685  66.865  1.00  0.00    -0.105 A  
HETATM    5  C   UNL     1      -9.292   9.598  67.044  1.00  0.00    -0.180 A  
HETATM    6  C   UNL     1      -9.457  10.302  68.250  1.00  0.00    -0.147 A  
HETATM    7  C   UNL     1      -8.547  10.033  69.281  1.00  0.00    -0.172 A  
HETATM    8  C   UNL     1     -10.610  11.317  68.381  1.00  0.00    -0.226 C  
HETATM    9  C   UNL     1     -11.230  11.376  69.819  1.00  0.00    -0.192 C  
HETATM   10  C   UNL     1      -7.516   9.099  69.108  1.00  0.00    -0.072 A  
HETATM   11  C   UNL     1     -10.228  12.761  67.844  1.00  0.00    -0.229 C  
HETATM   12  O   UNL     1      -9.118  13.272  68.598  1.00  0.00    -0.360 OA 
HETATM   13  C   UNL     1      -9.845  12.783  66.343  1.00  0.00    -0.269 C  
HETATM   14  C   UNL     1     -11.364  13.803  68.004  1.00  0.00    -0.318 C  
HETATM   15  C   UNL     1     -12.587  13.479  67.148  1.00  0.00     0.191 C  
HETATM   16  C   UNL     1     -12.221  13.366  65.670  1.00  0.00    -0.510 C  
HETATM   17  C   UNL     1     -11.026  12.449  65.425  1.00  0.00    -0.335 C  
HETATM   18  H   UNL     1      -8.889  14.136  68.277  1.00  0.00     0.000 HD 
BRANCH   9  19
HETATM   19  N   UNL     1     -11.746  10.097  70.356  1.00  0.00    -0.289 NA 
HETATM   20  C   UNL     1     -13.134  10.216  70.811  1.00  0.00    -0.280 C  
HETATM   21  C   UNL     1     -10.913   9.651  71.478  1.00  0.00    -0.196 C  
ENDBRANCH   9  19
ENDBRANCH   2   3
TORSDOF 2
ENDMDL
MODEL      126
REMARK 921   NORMALIZED FREE ENERGY PREDICTED BY IDOCK:   -3.19 KCAL/MOL
REMARK 922        TOTAL FREE ENERGY PREDICTED BY IDOCK:   -3.81 KCAL/MOL
REMARK 923 INTER-LIGAND FREE ENERGY PREDICTED BY IDOCK:   -3.57 KCAL/MOL
REMARK 924 INTRA-LIGAND FREE ENERGY PREDICTED BY IDOCK:   -0.24 KCAL/MOL
REMARK 927      BINDING AFFINITY PREDICTED BY RF-SCORE:    0.00 PKD
ROOT
HETATM    1  C   UNL     1      -5.161  11.648  70.450  1.00  0.00    -0.104 C  
HETATM    2  O   UNL     1      -5.290  12.035  69.087  1.00  0.00    -0.054 OA 
ENDROOT
BRANCH   2   3
HETATM    3  C   UNL     1      -6.040  13.150  68.835  1.00  0.00    -0.083 A  
HETATM    4  C   UNL     1      -6.180  13.776  67.602  1.00  0.00    -0.119 A  
HETATM    5  C   UNL     1      -6.997  14.903  67.468  1.00  0.00    -0.203 A  
HETATM    6  C   UNL     1      -7.673  15.459  68.569  1.00  0.00    -0.132 A  
HETATM    7  C   UNL     1      -7.519  14.822  69.806  1.00  0.00    -0.024 A  
HETATM    8  C   UNL     1      -8.537  16.720  68.367  1.00  0.00    -0.235 C  
HETATM    9  C   UNL     1      -9.816  16.751  69.272  1.00  0.00    -0.168 C  
HETATM   10  C   UNL     1      -6.720  13.676  69.934  1.00  0.00     0.113 A  
HETATM   11  C   UNL     1      -7.704  18.066  68.477  1.00  0.00    -0.302 C  
HETATM   12  O   UNL     1      -7.112  18.155  69.781  1.00  0.00     0.110 OA 
HETATM   13  C   UNL     1      -6.575  18.183  67.423  1.00  0.00    -0.196 C  
HETATM   14  C   UNL     1      -8.566  19.344  68.314  1.00  0.00    -0.376 C  
HETATM   15  C   UNL     1      -9.167  19.476  66.916  1.00  0.00    -0.408 C  
HETATM   16  C   UNL     1      -8.085  19.467  65.839  1.00  0.00    -0.204 C  
HETATM   17  C   UNL     1      -7.109  18.304  65.992  1.00  0.00    -0.307 C  
HETATM   18  H   UNL     1      -6.614  18.961  69.848  1.00  0.00     0.000 HD 
BRANCH   9  19
HETATM   19  N   UNL     1     -10.735  15.598  69.138  1.00  0.00    -0.228 NA 
HETATM   20  C   UNL     1     -11.365  15.552  67.816  1.00  0.00    -0.286 C  
HETATM   21  C   UNL     1     -11.782  15.669  70.163  1.00  0.00    -0.360 C  
ENDBRANCH   9  19
ENDBRANCH   2   3
TORSDOF 2
ENDMDL
MODEL      127
REMARK 921   NORMALIZED FREE ENERGY PREDICTED BY IDOCK:   -3.16 KCAL/MOL
REMARK 922        TOTAL FREE ENERGY PREDICTED BY IDOCK:   -3.78 KCAL/MOL
REMARK 923 INTER-LIGAND FREE ENERGY PREDICTED BY IDOCK:   -3.53 KCAL/MOL
REMARK 924 INTRA-LIGAND FREE ENERGY PREDICTED BY IDOCK:   -0.25 KCAL/MOL
REMARK 927      BINDING AFFINITY PREDICTED BY RF-SCORE:    0.00 PKD
ROOT
HETATM    1  C   UNL     1      -8.076  17.394  68.092  1.00  0.00    -0.232 C  
HETATM    2  O   UNL     1      -7.081  16.393  68.272  1.00  0.00    -0.135 OA 
ENDROOT
BRANCH   2   3
HETATM    3  C   UNL     1      -7.475  15.097  68.085  1.00  0.00    -0.114 A  
HETATM    4  C   UNL     1      -6.643  13.985  68.086  1.00  0.00    -0.124 A  
HETATM    5  C   UNL     1      -7.172  12.703  67.904  1.00  0.00    -0.116 A  
HETATM    6  C   UNL     1      -8.546  12.497  67.685  1.00  0.00    -0.178 A  
HETATM    7  C   UNL     1      -9.373  13.627  67.683  1.00  0.00    -0.215 A  
HETATM    8  C   UNL     1      -9.069  11.064  67.463  1.00  0.00    -0.138 C  
HETATM    9  C   UNL     1     -10.495  10.820  68.064  1.00  0.00    -0.194 C  
HETATM   10  C   UNL     1      -8.844  14.909  67.890  1.00  0.00    -0.165 A  
HETATM   11  C   UNL     1      -8.980  10.600  65.948  1.00  0.00    -0.175 C  
HETATM   12  O   UNL     1      -9.772  11.477  65.134  1.00  0.00    -0.236 OA 
HETATM   13  C   UNL     1      -7.536  10.589  65.387  1.00  0.00    -0.097 C  
HETATM   14  C   UNL     1      -9.538   9.175  65.702  1.00  0.00    -0.287 C  
HETATM   15  C   UNL     1      -8.715   8.091  66.396  1.00  0.00    -0.169 C  
HETATM   16  C   UNL     1      -7.253   8.133  65.960  1.00  0.00    -0.069 C  
HETATM   17  C   UNL     1      -6.649   9.532  66.053  1.00  0.00    -0.077 C  
HETATM   18  H   UNL     1      -9.719  11.200  64.227  1.00  0.00     0.000 HD 
BRANCH   9  19
HETATM   19  N   UNL     1     -10.646  11.091  69.512  1.00  0.00    -0.186 NA 
HETATM   20  C   UNL     1     -10.421   9.890  70.319  1.00  0.00    -0.291 C  
HETATM   21  C   UNL     1     -11.991  11.608  69.788  1.00  0.00    -0.332 C  
ENDBRANCH   9  19
ENDBRANCH   2   3
TORSDOF 2
ENDMDL
MODEL      128
REMARK 921   NORMALIZED FREE ENERGY PREDICTED BY IDOCK:   -3.14 KCAL/MOL
REMARK 922        TOTAL FREE ENERGY PREDICTED BY IDOCK:   -3.75 KCAL/MOL
REMARK 923 INTER-LIGAND FREE ENERGY PREDICTED BY IDOCK:   -4.71 KCAL/MOL
REMARK 924 INTRA-LIGAND FREE ENERGY PREDICTED BY IDOCK:    0.96 KCAL/MOL
REMARK 927      BINDING AFFINITY PREDICTED BY RF-SCORE:    0.00 PKD
ROOT
HETATM    1  C   UNL     1      -9.471  18.909  66.570  1.00  0.00    -0.340 C  
HETATM    2  O   UNL     1      -8.713  17.896  65.919  1.00  0.00    -0.508 OA 
ENDROOT
BRANCH   2   3
HETATM    3  C   UNL     1      -8.867  16.621  66.387  1.00  0.00    -0.302 A  
HETATM    4  C   UNL     1      -8.411  16.141  67.609  1.00  0.00    -0.163 A  
HETATM    5  C   UNL     1      -8.651  14.815  67.984  1.00  0.00    -0.166 A  
HETATM    6  C   UNL     1      -9.326  13.919  67.136  1.00  0.00    -0.244 A  
HETATM    7  C   UNL     1      -9.776  14.415  65.905  1.00  0.00    -0.305 A  
HETATM    8  C   UNL     1      -9.537  12.462  67.590  1.00  0.00    -0.193 C  
HETATM    9  C   UNL     1     -10.894  11.847  67.105  1.00  0.00    -0.255 C  
HETATM   10  C   UNL     1      -9.556  15.751  65.541  1.00  0.00    -0.202 A  
HETATM   11  C   UNL     1      -8.307  11.521  67.244  1.00  0.00    -0.154 C  
HETATM   12  O   UNL     1      -8.105  11.503  65.823  1.00  0.00    -0.369 OA 
HETATM   13  C   UNL     1      -6.982  11.960  67.917  1.00  0.00    -0.085 C  
HETATM   14  C   UNL     1      -8.519  10.043  67.661  1.00  0.00    -0.114 C  
HETATM   15  C   UNL     1      -8.617   9.865  69.175  1.00  0.00    -0.157 C  
HETATM   16  C   UNL     1      -7.378  10.406  69.883  1.00  0.00    -0.149 C  
HETATM   17  C   UNL     1      -7.017  11.823  69.443  1.00  0.00    -0.026 C  
HETATM   18  H   UNL     1      -7.368  10.939  65.616  1.00  0.00     0.000 HD 
BRANCH   9  19
HETATM   19  N   UNL     1     -12.118  12.581  67.500  1.00  0.00    -0.444 NA 
HETATM   20  C   UNL     1     -12.588  13.471  66.436  1.00  0.00    -0.186 C  
HETATM   21  C   UNL     1     -11.860  13.374  68.707  1.00  0.00    -0.351 C  
ENDBRANCH   9  19
ENDBRANCH   2   3
TORSDOF 2
ENDMDL
MODEL      129
REMARK 921   NORMALIZED FREE ENERGY PREDICTED BY IDOCK:   -3.13 KCAL/MOL
REMARK 922        TOTAL FREE ENERGY PREDICTED BY IDOCK:   -3.74 KCAL/MOL
REMARK 923 INTER-LIGAND FREE ENERGY PREDICTED BY IDOCK:   -3.60 KCAL/MOL
REMARK 924 INTRA-LIGAND FREE ENERGY PREDICTED BY IDOCK:   -0.15 KCAL/MOL
REMARK 927      BINDING AFFINITY PREDICTED BY RF-SCORE:    0.00 PKD
ROOT
HETATM    1  C   UNL     1     -10.308  11.374  63.253  1.00  0.00    -0.367 C  
HETATM    2  O   UNL     1      -9.093  11.043  63.914  1.00  0.00    -0.187 OA 
ENDROOT
BRANCH   2   3
HETATM    3  C   UNL     1      -9.181  10.154  64.948  1.00  0.00    -0.232 A  
HETATM    4  C   UNL     1     -10.198  10.103  65.894  1.00  0.00    -0.281 A  
HETATM    5  C   UNL     1     -10.185   9.127  66.897  1.00  0.00    -0.336 A  
HETATM    6  C   UNL     1      -9.140   8.193  67.003  1.00  0.00    -0.170 A  
HETATM    7  C   UNL     1      -8.119   8.258  66.046  1.00  0.00    -0.110 A  
HETATM    8  C   UNL     1      -9.166   7.157  68.145  1.00  0.00    -0.131 C  
HETATM    9  C   UNL     1      -8.572   5.765  67.740  1.00  0.00    -0.101 C  
HETATM   10  C   UNL     1      -8.146   9.221  65.027  1.00  0.00    -0.127 A  
HETATM   11  C   UNL     1      -8.522   7.703  69.490  1.00  0.00    -0.132 C  
HETATM   12  O   UNL     1      -7.149   8.050  69.255  1.00  0.00    -0.064 OA 
HETATM   13  C   UNL     1      -9.246   8.947  70.063  1.00  0.00    -0.183 C  
HETATM   14  C   UNL     1      -8.505   6.662  70.637  1.00  0.00    -0.138 C  
HETATM   15  C   UNL     1      -9.907   6.280  71.109  1.00  0.00    -0.203 C  
HETATM   16  C   UNL     1     -10.697   7.505  71.563  1.00  0.00    -0.242 C  
HETATM   17  C   UNL     1     -10.668   8.639  70.541  1.00  0.00    -0.252 C  
HETATM   18  H   UNL     1      -6.764   8.377  70.059  1.00  0.00     0.000 HD 
BRANCH   9  19
HETATM   19  N   UNL     1      -9.203   5.105  66.574  1.00  0.00    -0.131 NA 
HETATM   20  C   UNL     1     -10.664   5.081  66.685  1.00  0.00    -0.092 C  
HETATM   21  C   UNL     1      -8.711   3.729  66.450  1.00  0.00    -0.118 C  
ENDBRANCH   9  19
ENDBRANCH   2   3
TORSDOF 2
ENDMDL
MODEL      130
REMARK 921   NORMALIZED FREE ENERGY PREDICTED BY IDOCK:   -3.11 KCAL/MOL
REMARK 922        TOTAL FREE ENERGY PREDICTED BY IDOCK:   -3.71 KCAL/MOL
REMARK 923 INTER-LIGAND FREE ENERGY PREDICTED BY IDOCK:   -3.47 KCAL/MOL
REMARK 924 INTRA-LIGAND FREE ENERGY PREDICTED BY IDOCK:   -0.24 KCAL/MOL
REMARK 927      BINDING AFFINITY PREDICTED BY RF-SCORE:    0.00 PKD
ROOT
HETATM    1  C   UNL     1     -13.330  11.938  71.908  1.00  0.00    -0.300 C  
HETATM    2  O   UNL     1     -13.144  10.578  72.282  1.00  0.00    -0.394 OA 
ENDROOT
BRANCH   2   3
HETATM    3  C   UNL     1     -12.218   9.868  71.569  1.00  0.00    -0.416 A  
HETATM    4  C   UNL     1     -11.993   8.499  71.663  1.00  0.00    -0.372 A  
HETATM    5  C   UNL     1     -11.027   7.884  70.860  1.00  0.00    -0.256 A  
HETATM    6  C   UNL     1     -10.234   8.621  69.963  1.00  0.00    -0.201 A  
HETATM    7  C   UNL     1     -10.468  10.000  69.882  1.00  0.00    -0.317 A  
HETATM    8  C   UNL     1      -9.166   7.893  69.123  1.00  0.00    -0.144 C  
HETATM    9  C   UNL     1      -8.981   8.496  67.689  1.00  0.00    -0.135 C  
HETATM   10  C   UNL     1     -11.454  10.612  70.669  1.00  0.00    -0.374 A  
HETATM   11  C   UNL     1      -7.780   7.741  69.882  1.00  0.00    -0.095 C  
HETATM   12  O   UNL     1      -7.265   9.043  70.198  1.00  0.00    -0.050 OA 
HETATM   13  C   UNL     1      -7.879   6.927  71.196  1.00  0.00    -0.100 C  
HETATM   14  C   UNL     1      -6.683   7.045  69.038  1.00  0.00    -0.056 C  
HETATM   15  C   UNL     1      -7.015   5.587  68.725  1.00  0.00    -0.060 C  
HETATM   16  C   UNL     1      -7.246   4.780  70.000  1.00  0.00    -0.054 C  
HETATM   17  C   UNL     1      -8.227   5.454  70.957  1.00  0.00    -0.118 C  
HETATM   18  H   UNL     1      -6.435   8.953  70.652  1.00  0.00     0.000 HD 
BRANCH   9  19
HETATM   19  N   UNL     1     -10.197   8.551  66.846  1.00  0.00    -0.290 NA 
HETATM   20  C   UNL     1     -10.515   7.246  66.259  1.00  0.00     0.507 C  
HETATM   21  C   UNL     1     -10.015   9.528  65.767  1.00  0.00    -0.245 C  
ENDBRANCH   9  19
ENDBRANCH   2   3
TORSDOF 2
ENDMDL
MODEL      131
REMARK 921   NORMALIZED FREE ENERGY PREDICTED BY IDOCK:   -3.09 KCAL/MOL
REMARK 922        TOTAL FREE ENERGY PREDICTED BY IDOCK:   -3.69 KCAL/MOL
REMARK 923 INTER-LIGAND FREE ENERGY PREDICTED BY IDOCK:   -3.49 KCAL/MOL
REMARK 924 INTRA-LIGAND FREE ENERGY PREDICTED BY IDOCK:   -0.20 KCAL/MOL
REMARK 927      BINDING AFFINITY PREDICTED BY RF-SCORE:    0.00 PKD
ROOT
HETATM    1  C   UNL     1     -14.406   8.217  71.552  1.00  0.00    -0.430 C  
HETATM    2  O   UNL     1     -13.288   8.669  72.308  1.00  0.00    -0.370 OA 
ENDROOT
BRANCH   2   3
HETATM    3  C   UNL     1     -12.090   8.063  72.052  1.00  0.00    -0.331 A  
HETATM    4  C   UNL     1     -11.818   6.707  72.188  1.00  0.00    -0.337 A  
HETATM    5  C   UNL     1     -10.551   6.203  71.872  1.00  0.00    -0.263 A  
HETATM    6  C   UNL     1      -9.510   7.044  71.442  1.00  0.00    -0.159 A  
HETATM    7  C   UNL     1      -9.796   8.409  71.314  1.00  0.00    -0.255 A  
HETATM    8  C   UNL     1      -8.126   6.436  71.135  1.00  0.00    -0.117 C  
HETATM    9  C   UNL     1      -7.383   7.143  69.950  1.00  0.00    -0.084 C  
HETATM   10  C   UNL     1     -11.073   8.909  71.607  1.00  0.00    -0.420 A  
HETATM   11  C   UNL     1      -7.204   6.316  72.420  1.00  0.00    -0.084 C  
HETATM   12  O   UNL     1      -6.986   7.621  72.976  1.00  0.00    -0.065 OA 
HETATM   13  C   UNL     1      -7.800   5.411  73.528  1.00  0.00    -0.103 C  
HETATM   14  C   UNL     1      -5.796   5.742  72.122  1.00  0.00    -0.031 C  
HETATM   15  C   UNL     1      -5.838   4.291  71.646  1.00  0.00    -0.016 C  
HETATM   16  C   UNL     1      -6.535   3.389  72.661  1.00  0.00    -0.014 C  
HETATM   17  C   UNL     1      -7.887   3.940  73.109  1.00  0.00    -0.083 C  
HETATM   18  H   UNL     1      -6.434   7.549  73.745  1.00  0.00     0.000 HD 
BRANCH   9  19
HETATM   19  N   UNL     1      -8.109   7.183  68.660  1.00  0.00    -0.123 NA 
HETATM   20  C   UNL     1      -8.445   5.840  68.180  1.00  0.00    -0.109 C  
HETATM   21  C   UNL     1      -7.294   7.863  67.647  1.00  0.00    -0.096 C  
ENDBRANCH   9  19
ENDBRANCH   2   3
TORSDOF 2
ENDMDL
MODEL      132
REMARK 921   NORMALIZED FREE ENERGY PREDICTED BY IDOCK:   -3.07 KCAL/MOL
REMARK 922        TOTAL FREE ENERGY PREDICTED BY IDOCK:   -3.68 KCAL/MOL
REMARK 923 INTER-LIGAND FREE ENERGY PREDICTED BY IDOCK:   -3.47 KCAL/MOL
REMARK 924 INTRA-LIGAND FREE ENERGY PREDICTED BY IDOCK:   -0.21 KCAL/MOL
REMARK 927      BINDING AFFINITY PREDICTED BY RF-SCORE:    0.00 PKD
ROOT
HETATM    1  C   UNL     1      -9.217  12.843  67.551  1.00  0.00    -0.192 C  
HETATM    2  O   UNL     1      -9.966  11.854  66.854  1.00  0.00    -0.198 OA 
ENDROOT
BRANCH   2   3
HETATM    3  C   UNL     1      -9.839  10.567  67.295  1.00  0.00    -0.177 A  
HETATM    4  C   UNL     1     -10.727   9.901  68.132  1.00  0.00    -0.279 A  
HETATM    5  C   UNL     1     -10.495   8.570  68.496  1.00  0.00    -0.205 A  
HETATM    6  C   UNL     1      -9.354   7.874  68.061  1.00  0.00    -0.152 A  
HETATM    7  C   UNL     1      -8.465   8.558  67.222  1.00  0.00    -0.123 A  
HETATM    8  C   UNL     1      -9.138   6.418  68.517  1.00  0.00    -0.126 C  
HETATM    9  C   UNL     1      -8.455   5.518  67.430  1.00  0.00    -0.109 C  
HETATM   10  C   UNL     1      -8.711   9.884  66.837  1.00  0.00    -0.135 A  
HETATM   11  C   UNL     1      -8.400   6.310  69.918  1.00  0.00    -0.129 C  
HETATM   12  O   UNL     1      -7.108   6.929  69.825  1.00  0.00    -0.064 OA 
HETATM   13  C   UNL     1      -9.176   6.981  71.079  1.00  0.00    -0.155 C  
HETATM   14  C   UNL     1      -8.140   4.852  70.373  1.00  0.00    -0.084 C  
HETATM   15  C   UNL     1      -9.430   4.083  70.653  1.00  0.00    -0.240 C  
HETATM   16  C   UNL     1     -10.284   4.785  71.706  1.00  0.00    -0.258 C  
HETATM   17  C   UNL     1     -10.493   6.267  71.403  1.00  0.00    -0.264 C  
HETATM   18  H   UNL     1      -6.666   6.865  70.664  1.00  0.00     0.000 HD 
BRANCH   9  19
HETATM   19  N   UNL     1      -9.148   5.440  66.124  1.00  0.00    -0.147 NA 
HETATM   20  C   UNL     1     -10.485   4.856  66.248  1.00  0.00    -0.304 C  
HETATM   21  C   UNL     1      -8.359   4.633  65.186  1.00  0.00    -0.126 C  
ENDBRANCH   9  19
ENDBRANCH   2   3
TORSDOF 2
ENDMDL
MODEL      133
REMARK 921   NORMALIZED FREE ENERGY PREDICTED BY IDOCK:   -3.05 KCAL/MOL
REMARK 922        TOTAL FREE ENERGY PREDICTED BY IDOCK:   -3.65 KCAL/MOL
REMARK 923 INTER-LIGAND FREE ENERGY PREDICTED BY IDOCK:   -3.42 KCAL/MOL
REMARK 924 INTRA-LIGAND FREE ENERGY PREDICTED BY IDOCK:   -0.23 KCAL/MOL
REMARK 927      BINDING AFFINITY PREDICTED BY RF-SCORE:    0.00 PKD
ROOT
HETATM    1  C   UNL     1      -8.674  12.332  68.202  1.00  0.00    -0.186 C  
HETATM    2  O   UNL     1      -9.916  11.668  68.400  1.00  0.00    -0.191 OA 
ENDROOT
BRANCH   2   3
HETATM    3  C   UNL     1      -9.860  10.408  68.927  1.00  0.00    -0.200 A  
HETATM    4  C   UNL     1     -10.944   9.664  69.378  1.00  0.00    -0.215 A  
HETATM    5  C   UNL     1     -10.758   8.371  69.879  1.00  0.00    -0.227 A  
HETATM    6  C   UNL     1      -9.479   7.794  69.973  1.00  0.00    -0.161 A  
HETATM    7  C   UNL     1      -8.395   8.556  69.519  1.00  0.00    -0.118 A  
HETATM    8  C   UNL     1      -9.332   6.376  70.559  1.00  0.00    -0.169 C  
HETATM    9  C   UNL     1      -8.192   5.538  69.887  1.00  0.00    -0.105 C  
HETATM   10  C   UNL     1      -8.586   9.842  68.994  1.00  0.00    -0.149 A  
HETATM   11  C   UNL     1      -9.212   6.369  72.142  1.00  0.00    -0.140 C  
HETATM   12  O   UNL     1      -8.054   7.120  72.536  1.00  0.00    -0.102 OA 
HETATM   13  C   UNL     1     -10.447   6.971  72.859  1.00  0.00    -0.283 C  
HETATM   14  C   UNL     1      -9.025   4.954  72.744  1.00  0.00    -0.129 C  
HETATM   15  C   UNL     1     -10.242   4.056  72.532  1.00  0.00    -0.233 C  
HETATM   16  C   UNL     1     -11.507   4.680  73.117  1.00  0.00    -0.317 C  
HETATM   17  C   UNL     1     -11.711   6.127  72.673  1.00  0.00    -0.193 C  
HETATM   18  H   UNL     1      -7.982   7.116  73.483  1.00  0.00     0.000 HD 
BRANCH   9  19
HETATM   19  N   UNL     1      -8.291   5.366  68.419  1.00  0.00    -0.094 NA 
HETATM   20  C   UNL     1      -9.516   4.662  68.033  1.00  0.00    -0.146 C  
HETATM   21  C   UNL     1      -7.132   4.617  67.922  1.00  0.00    -0.061 C  
ENDBRANCH   9  19
ENDBRANCH   2   3
TORSDOF 2
ENDMDL
MODEL      134
REMARK 921   NORMALIZED FREE ENERGY PREDICTED BY IDOCK:   -3.03 KCAL/MOL
REMARK 922        TOTAL FREE ENERGY PREDICTED BY IDOCK:   -3.63 KCAL/MOL
REMARK 923 INTER-LIGAND FREE ENERGY PREDICTED BY IDOCK:   -3.56 KCAL/MOL
REMARK 924 INTRA-LIGAND FREE ENERGY PREDICTED BY IDOCK:   -0.07 KCAL/MOL
REMARK 927      BINDING AFFINITY PREDICTED BY RF-SCORE:    0.00 PKD
ROOT
HETATM    1  C   UNL     1      -9.094   9.664  64.128  1.00  0.00    -0.209 C  
HETATM    2  O   UNL     1      -8.355   9.882  65.324  1.00  0.00    -0.136 OA 
ENDROOT
BRANCH   2   3
HETATM    3  C   UNL     1      -8.591   9.017  66.356  1.00  0.00    -0.125 A  
HETATM    4  C   UNL     1      -7.656   8.589  67.290  1.00  0.00    -0.097 A  
HETATM    5  C   UNL     1      -8.028   7.715  68.317  1.00  0.00    -0.123 A  
HETATM    6  C   UNL     1      -9.338   7.217  68.423  1.00  0.00    -0.143 A  
HETATM    7  C   UNL     1     -10.270   7.653  67.472  1.00  0.00    -0.294 A  
HETATM    8  C   UNL     1      -9.684   6.235  69.559  1.00  0.00    -0.169 C  
HETATM    9  C   UNL     1     -11.138   6.410  70.116  1.00  0.00    -0.365 C  
HETATM   10  C   UNL     1      -9.902   8.549  66.458  1.00  0.00    -0.342 A  
HETATM   11  C   UNL     1      -9.374   4.724  69.187  1.00  0.00    -0.135 C  
HETATM   12  O   UNL     1     -10.150   4.346  68.041  1.00  0.00    -0.061 OA 
HETATM   13  C   UNL     1      -7.880   4.458  68.870  1.00  0.00    -0.070 C  
HETATM   14  C   UNL     1      -9.751   3.719  70.305  1.00  0.00    -0.222 C  
HETATM   15  C   UNL     1      -8.908   3.896  71.566  1.00  0.00    -0.141 C  
HETATM   16  C   UNL     1      -7.417   3.766  71.267  1.00  0.00    -0.044 C  
HETATM   17  C   UNL     1      -6.973   4.635  70.092  1.00  0.00    -0.048 C  
HETATM   18  H   UNL     1      -9.965   3.441  67.817  1.00  0.00     0.000 HD 
BRANCH   9  19
HETATM   19  N   UNL     1     -11.482   7.758  70.621  1.00  0.00    -0.271 NA 
HETATM   20  C   UNL     1     -10.384   8.351  71.388  1.00  0.00    -0.222 C  
HETATM   21  C   UNL     1     -12.674   7.686  71.473  1.00  0.00    -0.345 C  
ENDBRANCH   9  19
ENDBRANCH   2   3
TORSDOF 2
ENDMDL
MODEL      135
REMARK 921   NORMALIZED FREE ENERGY PREDICTED BY IDOCK:   -3.01 KCAL/MOL
REMARK 922        TOTAL FREE ENERGY PREDICTED BY IDOCK:   -3.60 KCAL/MOL
REMARK 923 INTER-LIGAND FREE ENERGY PREDICTED BY IDOCK:   -3.37 KCAL/MOL
REMARK 924 INTRA-LIGAND FREE ENERGY PREDICTED BY IDOCK:   -0.23 KCAL/MOL
REMARK 927      BINDING AFFINITY PREDICTED BY RF-SCORE:    0.00 PKD
ROOT
HETATM    1  C   UNL     1      -5.744   5.574  63.561  1.00  0.00    -0.014 C  
HETATM    2  O   UNL     1      -6.799   6.518  63.703  1.00  0.00    -0.046 OA 
ENDROOT
BRANCH   2   3
HETATM    3  C   UNL     1      -7.375   6.611  64.939  1.00  0.00    -0.080 A  
HETATM    4  C   UNL     1      -7.149   5.754  66.009  1.00  0.00    -0.071 A  
HETATM    5  C   UNL     1      -7.786   5.969  67.237  1.00  0.00    -0.097 A  
HETATM    6  C   UNL     1      -8.691   7.028  67.422  1.00  0.00    -0.120 A  
HETATM    7  C   UNL     1      -8.913   7.882  66.334  1.00  0.00    -0.200 A  
HETATM    8  C   UNL     1      -9.384   7.199  68.788  1.00  0.00    -0.135 C  
HETATM    9  C   UNL     1      -9.626   8.696  69.182  1.00  0.00    -0.163 C  
HETATM   10  C   UNL     1      -8.255   7.680  65.112  1.00  0.00    -0.130 A  
HETATM   11  C   UNL     1     -10.707   6.333  68.924  1.00  0.00    -0.299 C  
HETATM   12  O   UNL     1     -11.645   6.732  67.913  1.00  0.00    -0.556 OA 
HETATM   13  C   UNL     1     -10.467   4.809  68.787  1.00  0.00     0.162 C  
HETATM   14  C   UNL     1     -11.437   6.523  70.278  1.00  0.00    -0.474 C  
HETATM   15  C   UNL     1     -10.622   6.014  71.465  1.00  0.00    -0.295 C  
HETATM   16  C   UNL     1     -10.256   4.541  71.302  1.00  0.00    -0.167 C  
HETATM   17  C   UNL     1      -9.638   4.233  69.940  1.00  0.00    -0.279 C  
HETATM   18  H   UNL     1     -12.437   6.214  67.995  1.00  0.00     0.000 HD 
BRANCH   9  19
HETATM   19  N   UNL     1      -8.424   9.560  69.221  1.00  0.00    -0.130 NA 
HETATM   20  C   UNL     1      -7.862   9.653  70.571  1.00  0.00    -0.121 C  
HETATM   21  C   UNL     1      -8.760  10.908  68.749  1.00  0.00    -0.158 C  
ENDBRANCH   9  19
ENDBRANCH   2   3
TORSDOF 2
ENDMDL
MODEL      136
REMARK 921   NORMALIZED FREE ENERGY PREDICTED BY IDOCK:   -3.00 KCAL/MOL
REMARK 922        TOTAL FREE ENERGY PREDICTED BY IDOCK:   -3.59 KCAL/MOL
REMARK 923 INTER-LIGAND FREE ENERGY PREDICTED BY IDOCK:   -3.39 KCAL/MOL
REMARK 924 INTRA-LIGAND FREE ENERGY PREDICTED BY IDOCK:   -0.21 KCAL/MOL
REMARK 927      BINDING AFFINITY PREDICTED BY RF-SCORE:    0.00 PKD
ROOT
HETATM    1  C   UNL     1      -7.020   2.692  66.047  1.00  0.00    -0.052 C  
HETATM    2  O   UNL     1      -8.411   2.676  66.347  1.00  0.00    -0.084 OA 
ENDROOT
BRANCH   2   3
HETATM    3  C   UNL     1      -8.813   3.410  67.428  1.00  0.00    -0.130 A  
HETATM    4  C   UNL     1      -9.886   4.292  67.459  1.00  0.00    -0.162 A  
HETATM    5  C   UNL     1     -10.211   4.971  68.638  1.00  0.00    -0.154 A  
HETATM    6  C   UNL     1      -9.454   4.814  69.813  1.00  0.00    -0.233 A  
HETATM    7  C   UNL     1      -8.372   3.925  69.766  1.00  0.00    -0.079 A  
HETATM    8  C   UNL     1      -9.843   5.609  71.075  1.00  0.00    -0.231 C  
HETATM    9  C   UNL     1      -9.594   4.825  72.408  1.00  0.00    -0.144 C  
HETATM   10  C   UNL     1      -8.063   3.226  68.590  1.00  0.00    -0.071 A  
HETATM   11  C   UNL     1      -9.199   7.059  71.115  1.00  0.00    -0.157 C  
HETATM   12  O   UNL     1      -7.768   6.947  71.101  1.00  0.00    -0.087 OA 
HETATM   13  C   UNL     1      -9.626   7.960  69.928  1.00  0.00    -0.168 C  
HETATM   14  C   UNL     1      -9.549   7.858  72.395  1.00  0.00    -0.270 C  
HETATM   15  C   UNL     1     -11.037   8.188  72.497  1.00  0.00    -0.446 C  
HETATM   16  C   UNL     1     -11.522   8.968  71.279  1.00  0.00    -0.390 C  
HETATM   17  C   UNL     1     -11.115   8.316  69.959  1.00  0.00    -0.147 C  
HETATM   18  H   UNL     1      -7.383   7.814  71.125  1.00  0.00     0.000 HD 
BRANCH   9  19
HETATM   19  N   UNL     1     -10.270   3.514  72.526  1.00  0.00    -0.170 NA 
HETATM   20  C   UNL     1     -11.365   3.549  73.499  1.00  0.00    -0.123 C  
HETATM   21  C   UNL     1      -9.305   2.486  72.931  1.00  0.00    -0.089 C  
ENDBRANCH   9  19
ENDBRANCH   2   3
TORSDOF 2
ENDMDL
MODEL      137
REMARK 921   NORMALIZED FREE ENERGY PREDICTED BY IDOCK:   -2.98 KCAL/MOL
REMARK 922        TOTAL FREE ENERGY PREDICTED BY IDOCK:   -3.57 KCAL/MOL
REMARK 923 INTER-LIGAND FREE ENERGY PREDICTED BY IDOCK:   -3.34 KCAL/MOL
REMARK 924 INTRA-LIGAND FREE ENERGY PREDICTED BY IDOCK:   -0.23 KCAL/MOL
REMARK 927      BINDING AFFINITY PREDICTED BY RF-SCORE:    0.00 PKD
ROOT
HETATM    1  C   UNL     1     -10.793  16.299  66.593  1.00  0.00    -0.115 C  
HETATM    2  O   UNL     1     -11.138  15.429  67.664  1.00  0.00    -0.306 OA 
ENDROOT
BRANCH   2   3
HETATM    3  C   UNL     1     -10.601  14.172  67.630  1.00  0.00    -0.253 A  
HETATM    4  C   UNL     1     -11.211  13.039  67.105  1.00  0.00    -0.322 A  
HETATM    5  C   UNL     1     -10.546  11.809  67.110  1.00  0.00    -0.267 A  
HETATM    6  C   UNL     1      -9.263  11.666  67.667  1.00  0.00    -0.178 A  
HETATM    7  C   UNL     1      -8.661  12.815  68.197  1.00  0.00    -0.185 A  
HETATM    8  C   UNL     1      -8.589  10.279  67.669  1.00  0.00    -0.118 C  
HETATM    9  C   UNL     1      -7.035  10.340  67.477  1.00  0.00    -0.085 C  
HETATM   10  C   UNL     1      -9.319  14.053  68.169  1.00  0.00    -0.201 A  
HETATM   11  C   UNL     1      -8.994   9.396  68.923  1.00  0.00    -0.136 C  
HETATM   12  O   UNL     1      -8.598  10.068  70.128  1.00  0.00    -0.327 OA 
HETATM   13  C   UNL     1     -10.513   9.102  69.010  1.00  0.00    -0.238 C  
HETATM   14  C   UNL     1      -8.296   8.013  68.960  1.00  0.00    -0.129 C  
HETATM   15  C   UNL     1      -8.720   7.107  67.806  1.00  0.00    -0.125 C  
HETATM   16  C   UNL     1     -10.232   6.898  67.785  1.00  0.00    -0.224 C  
HETATM   17  C   UNL     1     -11.011   8.209  67.869  1.00  0.00     0.098 C  
HETATM   18  H   UNL     1      -8.840   9.540  70.879  1.00  0.00     0.000 HD 
BRANCH   9  19
HETATM   19  N   UNL     1      -6.558  11.026  66.255  1.00  0.00    -0.126 NA 
HETATM   20  C   UNL     1      -6.319  10.084  65.158  1.00  0.00    -0.114 C  
HETATM   21  C   UNL     1      -5.316  11.752  66.540  1.00  0.00     0.007 C  
ENDBRANCH   9  19
ENDBRANCH   2   3
TORSDOF 2
ENDMDL
MODEL      138
REMARK 921   NORMALIZED FREE ENERGY PREDICTED BY IDOCK:   -2.97 KCAL/MOL
REMARK 922        TOTAL FREE ENERGY PREDICTED BY IDOCK:   -3.57 KCAL/MOL
REMARK 923 INTER-LIGAND FREE ENERGY PREDICTED BY IDOCK:   -3.38 KCAL/MOL
REMARK 924 INTRA-LIGAND FREE ENERGY PREDICTED BY IDOCK:   -0.19 KCAL/MOL
REMARK 927      BINDING AFFINITY PREDICTED BY RF-SCORE:    0.00 PKD
ROOT
HETATM    1  C   UNL     1      -5.681  13.453  68.944  1.00  0.00    -0.074 C  
HETATM    2  O   UNL     1      -6.455  12.820  67.931  1.00  0.00    -0.089 OA 
ENDROOT
BRANCH   2   3
HETATM    3  C   UNL     1      -7.156  11.707  68.301  1.00  0.00    -0.078 A  
HETATM    4  C   UNL     1      -8.508  11.664  68.619  1.00  0.00    -0.094 A  
HETATM    5  C   UNL     1      -9.117  10.452  68.963  1.00  0.00    -0.193 A  
HETATM    6  C   UNL     1      -8.386   9.253  69.032  1.00  0.00    -0.123 A  
HETATM    7  C   UNL     1      -7.024   9.311  68.714  1.00  0.00    -0.061 A  
HETATM    8  C   UNL     1      -9.105   7.953  69.444  1.00  0.00    -0.145 C  
HETATM    9  C   UNL     1      -8.558   6.678  68.715  1.00  0.00    -0.122 C  
HETATM   10  C   UNL     1      -6.420  10.522  68.344  1.00  0.00    -0.055 A  
HETATM   11  C   UNL     1      -9.165   7.751  71.017  1.00  0.00    -0.151 C  
HETATM   12  O   UNL     1      -7.830   7.689  71.541  1.00  0.00    -0.083 OA 
HETATM   13  C   UNL     1      -9.925   8.879  71.758  1.00  0.00    -0.397 C  
HETATM   14  C   UNL     1      -9.851   6.429  71.448  1.00  0.00    -0.195 C  
HETATM   15  C   UNL     1     -11.334   6.388  71.083  1.00  0.00    -0.376 C  
HETATM   16  C   UNL     1     -12.093   7.562  71.695  1.00  0.00    -0.341 C  
HETATM   17  C   UNL     1     -11.420   8.906  71.425  1.00  0.00    -0.381 C  
HETATM   18  H   UNL     1      -7.866   7.568  72.483  1.00  0.00     0.000 HD 
BRANCH   9  19
HETATM   19  N   UNL     1      -8.591   6.713  67.235  1.00  0.00    -0.119 NA 
HETATM   20  C   UNL     1      -9.938   6.982  66.724  1.00  0.00    -0.197 C  
HETATM   21  C   UNL     1      -8.121   5.434  66.692  1.00  0.00    -0.105 C  
ENDBRANCH   9  19
ENDBRANCH   2   3
TORSDOF 2
ENDMDL
MODEL      139
REMARK 921   NORMALIZED FREE ENERGY PREDICTED BY IDOCK:   -2.94 KCAL/MOL
REMARK 922        TOTAL FREE ENERGY PREDICTED BY IDOCK:   -3.52 KCAL/MOL
REMARK 923 INTER-LIGAND FREE ENERGY PREDICTED BY IDOCK:   -3.31 KCAL/MOL
REMARK 924 INTRA-LIGAND FREE ENERGY PREDICTED BY IDOCK:   -0.21 KCAL/MOL
REMARK 927      BINDING AFFINITY PREDICTED BY RF-SCORE:    0.00 PKD
ROOT
HETATM    1  C   UNL     1     -14.390   8.373  71.635  1.00  0.00    -0.448 C  
HETATM    2  O   UNL     1     -13.258   8.842  72.358  1.00  0.00    -0.411 OA 
ENDROOT
BRANCH   2   3
HETATM    3  C   UNL     1     -12.066   8.225  72.098  1.00  0.00    -0.367 A  
HETATM    4  C   UNL     1     -11.383   7.376  72.961  1.00  0.00    -0.283 A  
HETATM    5  C   UNL     1     -10.177   6.787  72.568  1.00  0.00    -0.200 A  
HETATM    6  C   UNL     1      -9.600   7.054  71.313  1.00  0.00    -0.164 A  
HETATM    7  C   UNL     1     -10.296   7.915  70.456  1.00  0.00    -0.205 A  
HETATM    8  C   UNL     1      -8.254   6.398  70.946  1.00  0.00    -0.125 C  
HETATM    9  C   UNL     1      -8.132   6.033  69.427  1.00  0.00    -0.111 C  
HETATM   10  C   UNL     1     -11.518   8.485  70.841  1.00  0.00    -0.302 A  
HETATM   11  C   UNL     1      -7.001   7.228  71.454  1.00  0.00    -0.063 C  
HETATM   12  O   UNL     1      -7.020   8.534  70.858  1.00  0.00    -0.047 OA 
HETATM   13  C   UNL     1      -6.954   7.399  72.994  1.00  0.00    -0.071 C  
HETATM   14  C   UNL     1      -5.640   6.602  71.060  1.00  0.00    -0.027 C  
HETATM   15  C   UNL     1      -5.396   5.251  71.728  1.00  0.00    -0.009 C  
HETATM   16  C   UNL     1      -5.469   5.357  73.249  1.00  0.00    -0.022 C  
HETATM   17  C   UNL     1      -6.728   6.075  73.731  1.00  0.00    -0.079 C  
HETATM   18  H   UNL     1      -6.270   9.031  71.163  1.00  0.00     0.000 HD 
BRANCH   9  19
HETATM   19  N   UNL     1      -9.184   5.142  68.886  1.00  0.00    -0.113 NA 
HETATM   20  C   UNL     1      -9.203   3.844  69.567  1.00  0.00    -0.156 C  
HETATM   21  C   UNL     1      -8.970   4.926  67.451  1.00  0.00    -0.107 C  
ENDBRANCH   9  19
ENDBRANCH   2   3
TORSDOF 2
ENDMDL
MODEL      140
REMARK 921   NORMALIZED FREE ENERGY PREDICTED BY IDOCK:   -2.91 KCAL/MOL
REMARK 922        TOTAL FREE ENERGY PREDICTED BY IDOCK:   -3.49 KCAL/MOL
REMARK 923 INTER-LIGAND FREE ENERGY PREDICTED BY IDOCK:   -3.41 KCAL/MOL
REMARK 924 INTRA-LIGAND FREE ENERGY PREDICTED BY IDOCK:   -0.08 KCAL/MOL
REMARK 927      BINDING AFFINITY PREDICTED BY RF-SCORE:    0.00 PKD
ROOT
HETATM    1  C   UNL     1      -5.312  15.592  70.340  1.00  0.00    -0.150 C  
HETATM    2  O   UNL     1      -6.086  15.895  69.186  1.00  0.00    -0.118 OA 
ENDROOT
BRANCH   2   3
HETATM    3  C   UNL     1      -6.893  14.899  68.710  1.00  0.00    -0.102 A  
HETATM    4  C   UNL     1      -7.270  13.756  69.404  1.00  0.00     0.113 A  
HETATM    5  C   UNL     1      -8.122  12.817  68.813  1.00  0.00     0.090 A  
HETATM    6  C   UNL     1      -8.596  12.976  67.499  1.00  0.00    -0.192 A  
HETATM    7  C   UNL     1      -8.205  14.130  66.809  1.00  0.00     0.146 A  
HETATM    8  C   UNL     1      -9.510  11.894  66.890  1.00  0.00    -0.205 C  
HETATM    9  C   UNL     1     -10.602  12.470  65.924  1.00  0.00    -0.265 C  
HETATM   10  C   UNL     1      -7.371  15.083  67.412  1.00  0.00    -0.231 A  
HETATM   11  C   UNL     1      -8.700  10.704  66.220  1.00  0.00    -0.156 C  
HETATM   12  O   UNL     1      -7.881  11.222  65.161  1.00  0.00    -0.267 OA 
HETATM   13  C   UNL     1      -7.786   9.942  67.212  1.00  0.00    -0.095 C  
HETATM   14  C   UNL     1      -9.604   9.627  65.569  1.00  0.00    -0.351 C  
HETATM   15  C   UNL     1     -10.454   8.874  66.591  1.00  0.00    -0.231 C  
HETATM   16  C   UNL     1      -9.588   8.214  67.661  1.00  0.00    -0.186 C  
HETATM   17  C   UNL     1      -8.576   9.175  68.278  1.00  0.00    -0.129 C  
HETATM   18  H   UNL     1      -7.396  10.510  64.761  1.00  0.00     0.000 HD 
BRANCH   9  19
HETATM   19  N   UNL     1     -11.505  13.492  66.501  1.00  0.00    -0.326 NA 
HETATM   20  C   UNL     1     -11.938  13.137  67.855  1.00  0.00    -0.303 C  
HETATM   21  C   UNL     1     -12.687  13.654  65.649  1.00  0.00    -0.454 C  
ENDBRANCH   9  19
ENDBRANCH   2   3
TORSDOF 2
ENDMDL
MODEL      141
REMARK 921   NORMALIZED FREE ENERGY PREDICTED BY IDOCK:   -2.88 KCAL/MOL
REMARK 922        TOTAL FREE ENERGY PREDICTED BY IDOCK:   -3.47 KCAL/MOL
REMARK 923 INTER-LIGAND FREE ENERGY PREDICTED BY IDOCK:   -3.24 KCAL/MOL
REMARK 924 INTRA-LIGAND FREE ENERGY PREDICTED BY IDOCK:   -0.22 KCAL/MOL
REMARK 927      BINDING AFFINITY PREDICTED BY RF-SCORE:    0.00 PKD
ROOT
HETATM    1  C   UNL     1      -9.038   4.497  64.261  1.00  0.00    -0.138 C  
HETATM    2  O   UNL     1      -8.895   3.667  65.408  1.00  0.00    -0.115 OA 
ENDROOT
BRANCH   2   3
HETATM    3  C   UNL     1      -8.945   4.290  66.624  1.00  0.00    -0.121 A  
HETATM    4  C   UNL     1      -9.927   4.110  67.591  1.00  0.00    -0.049 A  
HETATM    5  C   UNL     1      -9.854   4.792  68.810  1.00  0.00    -0.218 A  
HETATM    6  C   UNL     1      -8.815   5.697  69.088  1.00  0.00    -0.111 A  
HETATM    7  C   UNL     1      -7.834   5.872  68.103  1.00  0.00    -0.105 A  
HETATM    8  C   UNL     1      -8.802   6.441  70.438  1.00  0.00    -0.151 C  
HETATM    9  C   UNL     1      -7.360   6.688  71.001  1.00  0.00    -0.079 C  
HETATM   10  C   UNL     1      -7.895   5.169  66.891  1.00  0.00    -0.100 A  
HETATM   11  C   UNL     1      -9.663   7.774  70.420  1.00  0.00    -0.179 C  
HETATM   12  O   UNL     1      -9.135   8.670  69.430  1.00  0.00    -0.147 OA 
HETATM   13  C   UNL     1     -11.163   7.538  70.109  1.00  0.00    -0.213 C  
HETATM   14  C   UNL     1      -9.629   8.554  71.758  1.00  0.00    -0.337 C  
HETATM   15  C   UNL     1     -10.287   7.788  72.905  1.00  0.00    -0.396 C  
HETATM   16  C   UNL     1     -11.733   7.426  72.579  1.00  0.00    -0.277 C  
HETATM   17  C   UNL     1     -11.882   6.758  71.214  1.00  0.00    -0.396 C  
HETATM   18  H   UNL     1      -9.650   9.467  69.419  1.00  0.00     0.000 HD 
BRANCH   9  19
HETATM   19  N   UNL     1      -6.521   5.483  71.188  1.00  0.00    -0.035 NA 
HETATM   20  C   UNL     1      -7.032   4.622  72.258  1.00  0.00    -0.061 C  
HETATM   21  C   UNL     1      -5.144   5.875  71.508  1.00  0.00    -0.016 C  
ENDBRANCH   9  19
ENDBRANCH   2   3
TORSDOF 2
ENDMDL
MODEL      142
REMARK 921   NORMALIZED FREE ENERGY PREDICTED BY IDOCK:   -2.86 KCAL/MOL
REMARK 922        TOTAL FREE ENERGY PREDICTED BY IDOCK:   -3.43 KCAL/MOL
REMARK 923 INTER-LIGAND FREE ENERGY PREDICTED BY IDOCK:   -3.20 KCAL/MOL
REMARK 924 INTRA-LIGAND FREE ENERGY PREDICTED BY IDOCK:   -0.23 KCAL/MOL
REMARK 927      BINDING AFFINITY PREDICTED BY RF-SCORE:    0.00 PKD
ROOT
HETATM    1  C   UNL     1     -12.226   7.005  71.705  1.00  0.00    -0.357 C  
HETATM    2  O   UNL     1     -11.901   6.362  70.478  1.00  0.00    -0.374 OA 
ENDROOT
BRANCH   2   3
HETATM    3  C   UNL     1     -10.952   6.967  69.702  1.00  0.00    -0.259 A  
HETATM    4  C   UNL     1     -10.044   7.929  70.128  1.00  0.00    -0.194 A  
HETATM    5  C   UNL     1      -9.103   8.458  69.239  1.00  0.00    -0.150 A  
HETATM    6  C   UNL     1      -9.060   8.065  67.890  1.00  0.00    -0.134 A  
HETATM    7  C   UNL     1      -9.983   7.098  67.473  1.00  0.00    -0.214 A  
HETATM    8  C   UNL     1      -8.018   8.703  66.949  1.00  0.00    -0.095 C  
HETATM    9  C   UNL     1      -7.471   7.716  65.863  1.00  0.00    -0.082 C  
HETATM   10  C   UNL     1     -10.910   6.550  68.371  1.00  0.00    -0.357 A  
HETATM   11  C   UNL     1      -8.515  10.067  66.309  1.00  0.00    -0.130 C  
HETATM   12  O   UNL     1      -9.701   9.827  65.537  1.00  0.00    -0.276 OA 
HETATM   13  C   UNL     1      -8.832  11.164  67.356  1.00  0.00    -0.139 C  
HETATM   14  C   UNL     1      -7.494  10.702  65.331  1.00  0.00    -0.028 C  
HETATM   15  C   UNL     1      -6.209  11.148  66.027  1.00  0.00    -0.023 C  
HETATM   16  C   UNL     1      -6.497  12.136  67.153  1.00  0.00    -0.135 C  
HETATM   17  C   UNL     1      -7.585  11.647  68.105  1.00  0.00    -0.115 C  
HETATM   18  H   UNL     1      -9.999  10.644  65.154  1.00  0.00     0.000 HD 
BRANCH   9  19
HETATM   19  N   UNL     1      -6.856   6.468  66.369  1.00  0.00    -0.060 NA 
HETATM   20  C   UNL     1      -5.392   6.528  66.338  1.00  0.00    -0.013 C  
HETATM   21  C   UNL     1      -7.304   5.325  65.567  1.00  0.00    -0.069 C  
ENDBRANCH   9  19
ENDBRANCH   2   3
TORSDOF 2
ENDMDL
MODEL      143
REMARK 921   NORMALIZED FREE ENERGY PREDICTED BY IDOCK:   -2.85 KCAL/MOL
REMARK 922        TOTAL FREE ENERGY PREDICTED BY IDOCK:   -3.43 KCAL/MOL
REMARK 923 INTER-LIGAND FREE ENERGY PREDICTED BY IDOCK:   -3.37 KCAL/MOL
REMARK 924 INTRA-LIGAND FREE ENERGY PREDICTED BY IDOCK:   -0.06 KCAL/MOL
REMARK 927      BINDING AFFINITY PREDICTED BY RF-SCORE:    0.00 PKD
ROOT
HETATM    1  C   UNL     1      -8.612   2.548  66.476  1.00  0.00    -0.113 C  
HETATM    2  O   UNL     1      -9.780   3.333  66.685  1.00  0.00    -0.084 OA 
ENDROOT
BRANCH   2   3
HETATM    3  C   UNL     1      -9.590   4.670  66.892  1.00  0.00    -0.181 A  
HETATM    4  C   UNL     1      -8.400   5.273  67.282  1.00  0.00    -0.107 A  
HETATM    5  C   UNL     1      -8.328   6.661  67.441  1.00  0.00    -0.121 A  
HETATM    6  C   UNL     1      -9.450   7.486  67.247  1.00  0.00    -0.186 A  
HETATM    7  C   UNL     1     -10.644   6.865  66.859  1.00  0.00    -0.372 A  
HETATM    8  C   UNL     1      -9.317   9.006  67.464  1.00  0.00    -0.159 C  
HETATM    9  C   UNL     1     -10.197   9.856  66.484  1.00  0.00    -0.222 C  
HETATM   10  C   UNL     1     -10.709   5.476  66.675  1.00  0.00    -0.332 A  
HETATM   11  C   UNL     1      -9.535   9.437  68.975  1.00  0.00    -0.160 C  
HETATM   12  O   UNL     1     -10.854   9.056  69.394  1.00  0.00    -0.315 OA 
HETATM   13  C   UNL     1      -8.514   8.804  69.954  1.00  0.00    -0.131 C  
HETATM   14  C   UNL     1      -9.443  10.967  69.204  1.00  0.00    -0.107 C  
HETATM   15  C   UNL     1      -8.046  11.521  68.933  1.00  0.00    -0.035 C  
HETATM   16  C   UNL     1      -6.992  10.828  69.792  1.00  0.00    -0.141 C  
HETATM   17  C   UNL     1      -7.084   9.305  69.725  1.00  0.00    -0.064 C  
HETATM   18  H   UNL     1     -10.985   9.314  70.299  1.00  0.00     0.000 HD 
BRANCH   9  19
HETATM   19  N   UNL     1      -9.967   9.626  65.039  1.00  0.00    -0.106 NA 
HETATM   20  C   UNL     1      -8.542   9.477  64.730  1.00  0.00    -0.176 C  
HETATM   21  C   UNL     1     -10.510  10.744  64.261  1.00  0.00    -0.259 C  
ENDBRANCH   9  19
ENDBRANCH   2   3
TORSDOF 2
ENDMDL
MODEL      144
REMARK 921   NORMALIZED FREE ENERGY PREDICTED BY IDOCK:   -2.85 KCAL/MOL
REMARK 922        TOTAL FREE ENERGY PREDICTED BY IDOCK:   -3.43 KCAL/MOL
REMARK 923 INTER-LIGAND FREE ENERGY PREDICTED BY IDOCK:   -3.20 KCAL/MOL
REMARK 924 INTRA-LIGAND FREE ENERGY PREDICTED BY IDOCK:   -0.23 KCAL/MOL
REMARK 927      BINDING AFFINITY PREDICTED BY RF-SCORE:    0.00 PKD
ROOT
HETATM    1  C   UNL     1      -6.166  12.362  69.253  1.00  0.00    -0.101 C  
HETATM    2  O   UNL     1      -7.374  11.860  68.695  1.00  0.00    -0.105 OA 
ENDROOT
BRANCH   2   3
HETATM    3  C   UNL     1      -7.773  10.621  69.114  1.00  0.00    -0.138 A  
HETATM    4  C   UNL     1      -6.944   9.621  69.607  1.00  0.00    -0.071 A  
HETATM    5  C   UNL     1      -7.479   8.398  70.025  1.00  0.00    -0.063 A  
HETATM    6  C   UNL     1      -8.855   8.125  69.934  1.00  0.00    -0.139 A  
HETATM    7  C   UNL     1      -9.679   9.140  69.430  1.00  0.00    -0.170 A  
HETATM    8  C   UNL     1      -9.384   6.749  70.384  1.00  0.00    -0.163 C  
HETATM    9  C   UNL     1     -10.805   6.811  71.042  1.00  0.00    -0.242 C  
HETATM   10  C   UNL     1      -9.145  10.375  69.035  1.00  0.00    -0.193 A  
HETATM   11  C   UNL     1      -9.313   5.653  69.238  1.00  0.00    -0.121 C  
HETATM   12  O   UNL     1     -10.111   6.077  68.123  1.00  0.00    -0.137 OA 
HETATM   13  C   UNL     1      -7.875   5.381  68.730  1.00  0.00    -0.087 C  
HETATM   14  C   UNL     1      -9.876   4.274  69.663  1.00  0.00    -0.244 C  
HETATM   15  C   UNL     1      -9.049   3.612  70.764  1.00  0.00    -0.182 C  
HETATM   16  C   UNL     1      -7.592   3.443  70.343  1.00  0.00    -0.044 C  
HETATM   17  C   UNL     1      -6.983   4.731  69.793  1.00  0.00    -0.053 C  
HETATM   18  H   UNL     1     -10.068   5.421  67.437  1.00  0.00     0.000 HD 
BRANCH   9  19
HETATM   19  N   UNL     1     -10.939   7.706  72.214  1.00  0.00    -0.258 NA 
HETATM   20  C   UNL     1     -10.598   7.023  73.465  1.00  0.00    -0.368 C  
HETATM   21  C   UNL     1     -12.313   8.210  72.305  1.00  0.00    -0.323 C  
ENDBRANCH   9  19
ENDBRANCH   2   3
TORSDOF 2
ENDMDL
MODEL      145
REMARK 921   NORMALIZED FREE ENERGY PREDICTED BY IDOCK:   -2.83 KCAL/MOL
REMARK 922        TOTAL FREE ENERGY PREDICTED BY IDOCK:   -3.41 KCAL/MOL
REMARK 923 INTER-LIGAND FREE ENERGY PREDICTED BY IDOCK:   -3.21 KCAL/MOL
REMARK 924 INTRA-LIGAND FREE ENERGY PREDICTED BY IDOCK:   -0.20 KCAL/MOL
REMARK 927      BINDING AFFINITY PREDICTED BY RF-SCORE:    0.00 PKD
ROOT
HETATM    1  C   UNL     1      -6.596   4.167  64.777  1.00  0.00    -0.043 C  
HETATM    2  O   UNL     1      -5.937   5.409  64.998  1.00  0.00    -0.021 OA 
ENDROOT
BRANCH   2   3
HETATM    3  C   UNL     1      -6.720   6.453  65.406  1.00  0.00    -0.047 A  
HETATM    4  C   UNL     1      -7.915   6.853  64.821  1.00  0.00    -0.119 A  
HETATM    5  C   UNL     1      -8.637   7.929  65.347  1.00  0.00    -0.118 A  
HETATM    6  C   UNL     1      -8.171   8.658  66.455  1.00  0.00    -0.107 A  
HETATM    7  C   UNL     1      -6.963   8.248  67.033  1.00  0.00    -0.071 A  
HETATM    8  C   UNL     1      -8.995   9.853  66.975  1.00  0.00    -0.152 C  
HETATM    9  C   UNL     1      -8.934  10.024  68.531  1.00  0.00    -0.124 C  
HETATM   10  C   UNL     1      -6.252   7.153  66.519  1.00  0.00    -0.039 A  
HETATM   11  C   UNL     1      -8.665  11.209  66.219  1.00  0.00    -0.182 C  
HETATM   12  O   UNL     1      -7.278  11.531  66.403  1.00  0.00    -0.331 OA 
HETATM   13  C   UNL     1      -8.953  11.157  64.698  1.00  0.00    -0.010 C  
HETATM   14  C   UNL     1      -9.458  12.427  66.756  1.00  0.00    -0.228 C  
HETATM   15  C   UNL     1     -10.961  12.307  66.512  1.00  0.00    -0.320 C  
HETATM   16  C   UNL     1     -11.275  12.125  65.029  1.00  0.00    -0.372 C  
HETATM   17  C   UNL     1     -10.446  11.019  64.381  1.00  0.00    -0.422 C  
HETATM   18  H   UNL     1      -7.080  12.343  65.951  1.00  0.00     0.000 HD 
BRANCH   9  19
HETATM   19  N   UNL     1      -9.360   8.853  69.331  1.00  0.00    -0.152 NA 
HETATM   20  C   UNL     1     -10.644   9.084  69.997  1.00  0.00    -0.228 C  
HETATM   21  C   UNL     1      -8.346   8.541  70.343  1.00  0.00    -0.124 C  
ENDBRANCH   9  19
ENDBRANCH   2   3
TORSDOF 2
ENDMDL
MODEL      146
REMARK 921   NORMALIZED FREE ENERGY PREDICTED BY IDOCK:   -2.74 KCAL/MOL
REMARK 922        TOTAL FREE ENERGY PREDICTED BY IDOCK:   -3.30 KCAL/MOL
REMARK 923 INTER-LIGAND FREE ENERGY PREDICTED BY IDOCK:   -3.41 KCAL/MOL
REMARK 924 INTRA-LIGAND FREE ENERGY PREDICTED BY IDOCK:    0.11 KCAL/MOL
REMARK 927      BINDING AFFINITY PREDICTED BY RF-SCORE:    0.00 PKD
ROOT
HETATM    1  C   UNL     1      -6.586   4.658  68.012  1.00  0.00    -0.046 C  
HETATM    2  O   UNL     1      -7.918   4.997  67.641  1.00  0.00    -0.094 OA 
ENDROOT
BRANCH   2   3
HETATM    3  C   UNL     1      -8.158   6.313  67.357  1.00  0.00    -0.109 A  
HETATM    4  C   UNL     1      -7.343   7.383  67.704  1.00  0.00    -0.092 A  
HETATM    5  C   UNL     1      -7.689   8.687  67.335  1.00  0.00    -0.098 A  
HETATM    6  C   UNL     1      -8.876   8.964  66.635  1.00  0.00    -0.150 A  
HETATM    7  C   UNL     1      -9.691   7.877  66.295  1.00  0.00    -0.170 A  
HETATM    8  C   UNL     1      -9.220  10.424  66.279  1.00  0.00    -0.195 C  
HETATM    9  C   UNL     1      -9.956  10.575  64.904  1.00  0.00    -0.334 C  
HETATM   10  C   UNL     1      -9.330   6.568  66.644  1.00  0.00    -0.184 A  
HETATM   11  C   UNL     1      -9.987  11.182  67.444  1.00  0.00    -0.179 C  
HETATM   12  O   UNL     1     -11.222  10.504  67.720  1.00  0.00    -0.303 OA 
HETATM   13  C   UNL     1      -9.178  11.272  68.762  1.00  0.00    -0.133 C  
HETATM   14  C   UNL     1     -10.374  12.639  67.087  1.00  0.00    -0.239 C  
HETATM   15  C   UNL     1      -9.157  13.542  66.893  1.00  0.00    -0.246 C  
HETATM   16  C   UNL     1      -8.267  13.555  68.132  1.00  0.00    -0.162 C  
HETATM   17  C   UNL     1      -7.931  12.152  68.633  1.00  0.00    -0.063 C  
HETATM   18  H   UNL     1     -11.682  10.957  68.417  1.00  0.00     0.000 HD 
BRANCH   9  19
HETATM   19  N   UNL     1      -9.251  10.021  63.726  1.00  0.00    -0.263 NA 
HETATM   20  C   UNL     1      -7.795  10.078  63.883  1.00  0.00    -0.150 C  
HETATM   21  C   UNL     1      -9.630  10.763  62.519  1.00  0.00    -0.202 C  
ENDBRANCH   9  19
ENDBRANCH   2   3
TORSDOF 2
ENDMDL
MODEL      147
REMARK 921   NORMALIZED FREE ENERGY PREDICTED BY IDOCK:   -2.73 KCAL/MOL
REMARK 922        TOTAL FREE ENERGY PREDICTED BY IDOCK:   -3.30 KCAL/MOL
REMARK 923 INTER-LIGAND FREE ENERGY PREDICTED BY IDOCK:   -3.28 KCAL/MOL
REMARK 924 INTRA-LIGAND FREE ENERGY PREDICTED BY IDOCK:   -0.02 KCAL/MOL
REMARK 927      BINDING AFFINITY PREDICTED BY RF-SCORE:    0.00 PKD
ROOT
HETATM    1  C   UNL     1     -11.126  12.079  63.888  1.00  0.00    -0.405 C  
HETATM    2  O   UNL     1     -10.632  12.621  65.107  1.00  0.00    -0.284 OA 
ENDROOT
BRANCH   2   3
HETATM    3  C   UNL     1     -10.149  11.728  66.023  1.00  0.00    -0.231 A  
HETATM    4  C   UNL     1      -9.364  12.038  67.127  1.00  0.00    -0.187 A  
HETATM    5  C   UNL     1      -8.949  11.033  68.006  1.00  0.00    -0.145 A  
HETATM    6  C   UNL     1      -9.278   9.683  67.792  1.00  0.00    -0.135 A  
HETATM    7  C   UNL     1     -10.066   9.384  66.673  1.00  0.00    -0.332 A  
HETATM    8  C   UNL     1      -8.769   8.615  68.780  1.00  0.00    -0.135 C  
HETATM    9  C   UNL     1      -9.777   7.435  68.998  1.00  0.00    -0.160 C  
HETATM   10  C   UNL     1     -10.503  10.396  65.806  1.00  0.00    -0.187 A  
HETATM   11  C   UNL     1      -7.314   8.088  68.427  1.00  0.00    -0.098 C  
HETATM   12  O   UNL     1      -7.326   7.495  67.120  1.00  0.00    -0.089 OA 
HETATM   13  C   UNL     1      -6.233   9.197  68.446  1.00  0.00    -0.053 C  
HETATM   14  C   UNL     1      -6.803   6.986  69.388  1.00  0.00    -0.054 C  
HETATM   15  C   UNL     1      -6.600   7.494  70.814  1.00  0.00    -0.043 C  
HETATM   16  C   UNL     1      -5.634   8.675  70.855  1.00  0.00    -0.032 C  
HETATM   17  C   UNL     1      -5.990   9.765  69.848  1.00  0.00    -0.043 C  
HETATM   18  H   UNL     1      -6.455   7.180  66.908  1.00  0.00     0.000 HD 
BRANCH   9  19
HETATM   19  N   UNL     1     -11.130   7.815  69.466  1.00  0.00    -0.076 NA 
HETATM   20  C   UNL     1     -11.086   8.931  70.415  1.00  0.00    -0.239 C  
HETATM   21  C   UNL     1     -11.779   6.667  70.109  1.00  0.00    -0.351 C  
ENDBRANCH   9  19
ENDBRANCH   2   3
TORSDOF 2
ENDMDL
MODEL      148
REMARK 921   NORMALIZED FREE ENERGY PREDICTED BY IDOCK:   -2.73 KCAL/MOL
REMARK 922        TOTAL FREE ENERGY PREDICTED BY IDOCK:   -3.29 KCAL/MOL
REMARK 923 INTER-LIGAND FREE ENERGY PREDICTED BY IDOCK:   -3.07 KCAL/MOL
REMARK 924 INTRA-LIGAND FREE ENERGY PREDICTED BY IDOCK:   -0.22 KCAL/MOL
REMARK 927      BINDING AFFINITY PREDICTED BY RF-SCORE:    0.00 PKD
ROOT
HETATM    1  C   UNL     1     -11.277   4.948  73.254  1.00  0.00    -0.345 C  
HETATM    2  O   UNL     1      -9.932   5.277  72.930  1.00  0.00    -0.161 OA 
ENDROOT
BRANCH   2   3
HETATM    3  C   UNL     1      -9.662   5.521  71.612  1.00  0.00    -0.161 A  
HETATM    4  C   UNL     1     -10.278   4.908  70.528  1.00  0.00    -0.288 A  
HETATM    5  C   UNL     1      -9.927   5.261  69.220  1.00  0.00    -0.285 A  
HETATM    6  C   UNL     1      -8.927   6.214  68.957  1.00  0.00    -0.125 A  
HETATM    7  C   UNL     1      -8.310   6.820  70.059  1.00  0.00    -0.135 A  
HETATM    8  C   UNL     1      -8.562   6.543  67.496  1.00  0.00    -0.119 C  
HETATM    9  C   UNL     1      -8.173   8.044  67.272  1.00  0.00    -0.122 C  
HETATM   10  C   UNL     1      -8.681   6.484  71.369  1.00  0.00    -0.130 A  
HETATM   11  C   UNL     1      -7.476   5.556  66.892  1.00  0.00    -0.088 C  
HETATM   12  O   UNL     1      -6.270   5.643  67.665  1.00  0.00    -0.028 OA 
HETATM   13  C   UNL     1      -7.930   4.075  66.866  1.00  0.00    -0.096 C  
HETATM   14  C   UNL     1      -7.070   5.896  65.435  1.00  0.00    -0.065 C  
HETATM   15  C   UNL     1      -8.220   5.718  64.445  1.00  0.00    -0.114 C  
HETATM   16  C   UNL     1      -8.778   4.298  64.485  1.00  0.00    -0.138 C  
HETATM   17  C   UNL     1      -9.095   3.828  65.903  1.00  0.00    -0.150 C  
HETATM   18  H   UNL     1      -5.619   5.053  67.304  1.00  0.00     0.000 HD 
BRANCH   9  19
HETATM   19  N   UNL     1      -9.187   9.045  67.676  1.00  0.00    -0.135 NA 
HETATM   20  C   UNL     1     -10.404   8.947  66.867  1.00  0.00    -0.262 C  
HETATM   21  C   UNL     1      -8.635  10.398  67.548  1.00  0.00    -0.125 C  
ENDBRANCH   9  19
ENDBRANCH   2   3
TORSDOF 2
ENDMDL
MODEL      149
REMARK 921   NORMALIZED FREE ENERGY PREDICTED BY IDOCK:   -2.72 KCAL/MOL
REMARK 922        TOTAL FREE ENERGY PREDICTED BY IDOCK:   -3.29 KCAL/MOL
REMARK 923 INTER-LIGAND FREE ENERGY PREDICTED BY IDOCK:   -3.10 KCAL/MOL
REMARK 924 INTRA-LIGAND FREE ENERGY PREDICTED BY IDOCK:   -0.19 KCAL/MOL
REMARK 927      BINDING AFFINITY PREDICTED BY RF-SCORE:    0.00 PKD
ROOT
HETATM    1  C   UNL     1     -10.782   3.253  63.555  1.00  0.00    -0.252 C  
HETATM    2  O   UNL     1      -9.676   3.123  64.441  1.00  0.00    -0.150 OA 
ENDROOT
BRANCH   2   3
HETATM    3  C   UNL     1      -9.469   4.152  65.317  1.00  0.00    -0.173 A  
HETATM    4  C   UNL     1     -10.457   4.925  65.914  1.00  0.00    -0.282 A  
HETATM    5  C   UNL     1     -10.117   5.940  66.815  1.00  0.00    -0.235 A  
HETATM    6  C   UNL     1      -8.776   6.235  67.120  1.00  0.00    -0.109 A  
HETATM    7  C   UNL     1      -7.790   5.452  66.507  1.00  0.00    -0.100 A  
HETATM    8  C   UNL     1      -8.460   7.384  68.098  1.00  0.00    -0.124 C  
HETATM    9  C   UNL     1      -7.203   7.112  68.994  1.00  0.00    -0.086 C  
HETATM   10  C   UNL     1      -8.134   4.418  65.624  1.00  0.00    -0.105 A  
HETATM   11  C   UNL     1      -8.381   8.800  67.386  1.00  0.00    -0.109 C  
HETATM   12  O   UNL     1      -7.341   8.778  66.397  1.00  0.00    -0.082 OA 
HETATM   13  C   UNL     1      -9.701   9.219  66.692  1.00  0.00    -0.281 C  
HETATM   14  C   UNL     1      -8.025   9.960  68.349  1.00  0.00    -0.096 C  
HETATM   15  C   UNL     1      -9.109  10.211  69.396  1.00  0.00    -0.217 C  
HETATM   16  C   UNL     1     -10.459  10.503  68.745  1.00  0.00    -0.216 C  
HETATM   17  C   UNL     1     -10.839   9.471  67.686  1.00  0.00    -0.253 C  
HETATM   18  H   UNL     1      -7.293   9.626  65.970  1.00  0.00     0.000 HD 
BRANCH   9  19
HETATM   19  N   UNL     1      -7.242   5.878  69.810  1.00  0.00    -0.068 NA 
HETATM   20  C   UNL     1      -8.434   5.822  70.660  1.00  0.00    -0.128 C  
HETATM   21  C   UNL     1      -6.047   5.799  70.658  1.00  0.00    -0.030 C  
ENDBRANCH   9  19
ENDBRANCH   2   3
TORSDOF 2
ENDMDL
MODEL      150
REMARK 921   NORMALIZED FREE ENERGY PREDICTED BY IDOCK:   -2.71 KCAL/MOL
REMARK 922        TOTAL FREE ENERGY PREDICTED BY IDOCK:   -3.27 KCAL/MOL
REMARK 923 INTER-LIGAND FREE ENERGY PREDICTED BY IDOCK:   -3.05 KCAL/MOL
REMARK 924 INTRA-LIGAND FREE ENERGY PREDICTED BY IDOCK:   -0.22 KCAL/MOL
REMARK 927      BINDING AFFINITY PREDICTED BY RF-SCORE:    0.00 PKD
ROOT
HETATM    1  C   UNL     1     -14.398   7.258  72.090  1.00  0.00    -0.167 C  
HETATM    2  O   UNL     1     -13.641   7.266  70.886  1.00  0.00    -0.155 OA 
ENDROOT
BRANCH   2   3
HETATM    3  C   UNL     1     -12.307   7.541  71.002  1.00  0.00    -0.235 A  
HETATM    4  C   UNL     1     -11.732   8.806  70.981  1.00  0.00    -0.329 A  
HETATM    5  C   UNL     1     -10.349   8.959  71.133  1.00  0.00    -0.338 A  
HETATM    6  C   UNL     1      -9.497   7.851  71.278  1.00  0.00    -0.184 A  
HETATM    7  C   UNL     1     -10.089   6.581  71.294  1.00  0.00    -0.208 A  
HETATM    8  C   UNL     1      -7.978   8.078  71.414  1.00  0.00    -0.109 C  
HETATM    9  C   UNL     1      -7.275   7.050  72.364  1.00  0.00    -0.073 C  
HETATM   10  C   UNL     1     -11.477   6.431  71.167  1.00  0.00    -0.381 A  
HETATM   11  C   UNL     1      -7.241   8.185  70.012  1.00  0.00    -0.056 C  
HETATM   12  O   UNL     1      -7.429   6.965  69.280  1.00  0.00    -0.090 OA 
HETATM   13  C   UNL     1      -7.744   9.359  69.135  1.00  0.00    -0.079 C  
HETATM   14  C   UNL     1      -5.707   8.376  70.130  1.00  0.00    -0.021 C  
HETATM   15  C   UNL     1      -5.326   9.709  70.772  1.00  0.00    -0.049 C  
HETATM   16  C   UNL     1      -5.914  10.889  70.004  1.00  0.00    -0.101 C  
HETATM   17  C   UNL     1      -7.408  10.731  69.731  1.00  0.00    -0.072 C  
HETATM   18  H   UNL     1      -6.988   7.029  68.441  1.00  0.00     0.000 HD 
BRANCH   9  19
HETATM   19  N   UNL     1      -7.802   6.976  73.745  1.00  0.00    -0.103 NA 
HETATM   20  C   UNL     1      -7.425   8.149  74.538  1.00  0.00    -0.212 C  
HETATM   21  C   UNL     1      -7.300   5.768  74.410  1.00  0.00    -0.088 C  
ENDBRANCH   9  19
ENDBRANCH   2   3
TORSDOF 2
ENDMDL
MODEL      151
REMARK 921   NORMALIZED FREE ENERGY PREDICTED BY IDOCK:   -2.67 KCAL/MOL
REMARK 922        TOTAL FREE ENERGY PREDICTED BY IDOCK:   -3.22 KCAL/MOL
REMARK 923 INTER-LIGAND FREE ENERGY PREDICTED BY IDOCK:   -2.99 KCAL/MOL
REMARK 924 INTRA-LIGAND FREE ENERGY PREDICTED BY IDOCK:   -0.23 KCAL/MOL
REMARK 927      BINDING AFFINITY PREDICTED BY RF-SCORE:    0.00 PKD
ROOT
HETATM    1  C   UNL     1      -6.904   7.133  64.866  1.00  0.00    -0.047 C  
HETATM    2  O   UNL     1      -6.393   8.433  65.134  1.00  0.00    -0.052 OA 
ENDROOT
BRANCH   2   3
HETATM    3  C   UNL     1      -7.262   9.330  65.690  1.00  0.00    -0.090 A  
HETATM    4  C   UNL     1      -8.282   9.998  65.023  1.00  0.00    -0.148 A  
HETATM    5  C   UNL     1      -9.122  10.879  65.712  1.00  0.00    -0.214 A  
HETATM    6  C   UNL     1      -8.949  11.144  67.081  1.00  0.00    -0.145 A  
HETATM    7  C   UNL     1      -7.915  10.468  67.742  1.00  0.00    -0.106 A  
HETATM    8  C   UNL     1      -9.888  12.146  67.782  1.00  0.00    -0.199 C  
HETATM    9  C   UNL     1     -10.212  11.765  69.267  1.00  0.00     0.185 C  
HETATM   10  C   UNL     1      -7.090   9.566  67.055  1.00  0.00    -0.086 A  
HETATM   11  C   UNL     1      -9.397  13.649  67.653  1.00  0.00    -0.215 C  
HETATM   12  O   UNL     1      -8.101  13.781  68.256  1.00  0.00    -0.136 OA 
HETATM   13  C   UNL     1      -9.303  14.147  66.189  1.00  0.00    -0.166 C  
HETATM   14  C   UNL     1     -10.310  14.666  68.384  1.00  0.00    -0.237 C  
HETATM   15  C   UNL     1     -11.706  14.753  67.771  1.00  0.00    -0.368 C  
HETATM   16  C   UNL     1     -11.645  15.118  66.290  1.00  0.00    -0.080 C  
HETATM   17  C   UNL     1     -10.671  14.242  65.505  1.00  0.00    -0.339 C  
HETATM   18  H   UNL     1      -7.807  14.681  68.179  1.00  0.00     0.000 HD 
BRANCH   9  19
HETATM   19  N   UNL     1     -10.809  10.427  69.479  1.00  0.00    -0.238 NA 
HETATM   20  C   UNL     1     -12.271  10.485  69.543  1.00  0.00    -0.083 C  
HETATM   21  C   UNL     1     -10.299   9.842  70.724  1.00  0.00    -0.228 C  
ENDBRANCH   9  19
ENDBRANCH   2   3
TORSDOF 2
ENDMDL
MODEL      152
REMARK 921   NORMALIZED FREE ENERGY PREDICTED BY IDOCK:   -2.66 KCAL/MOL
REMARK 922        TOTAL FREE ENERGY PREDICTED BY IDOCK:   -3.22 KCAL/MOL
REMARK 923 INTER-LIGAND FREE ENERGY PREDICTED BY IDOCK:   -3.04 KCAL/MOL
REMARK 924 INTRA-LIGAND FREE ENERGY PREDICTED BY IDOCK:   -0.18 KCAL/MOL
REMARK 927      BINDING AFFINITY PREDICTED BY RF-SCORE:    0.00 PKD
ROOT
HETATM    1  C   UNL     1      -9.859   5.578  66.744  1.00  0.00    -0.167 C  
HETATM    2  O   UNL     1      -8.826   6.490  67.099  1.00  0.00    -0.110 OA 
ENDROOT
BRANCH   2   3
HETATM    3  C   UNL     1      -9.096   7.819  66.927  1.00  0.00    -0.144 A  
HETATM    4  C   UNL     1     -10.356   8.404  66.955  1.00  0.00    -0.378 A  
HETATM    5  C   UNL     1     -10.500   9.785  66.787  1.00  0.00    -0.259 A  
HETATM    6  C   UNL     1      -9.392  10.620  66.555  1.00  0.00    -0.192 A  
HETATM    7  C   UNL     1      -8.129  10.016  66.525  1.00  0.00    -0.119 A  
HETATM    8  C   UNL     1      -9.615  12.131  66.349  1.00  0.00    -0.243 C  
HETATM    9  C   UNL     1      -8.463  13.017  66.936  1.00  0.00    -0.078 C  
HETATM   10  C   UNL     1      -7.983   8.635  66.718  1.00  0.00    -0.094 A  
HETATM   11  C   UNL     1      -9.940  12.510  64.843  1.00  0.00    -0.167 C  
HETATM   12  O   UNL     1      -8.841  12.119  64.005  1.00  0.00     0.147 OA 
HETATM   13  C   UNL     1     -11.226  11.840  64.299  1.00  0.00    -0.414 C  
HETATM   14  C   UNL     1     -10.128  14.031  64.612  1.00  0.00    -0.102 C  
HETATM   15  C   UNL     1     -11.353  14.590  65.333  1.00  0.00    -0.341 C  
HETATM   16  C   UNL     1     -12.629  13.863  64.914  1.00  0.00    -0.380 C  
HETATM   17  C   UNL     1     -12.496  12.344  64.992  1.00  0.00    -0.393 C  
HETATM   18  H   UNL     1      -9.036  12.346  63.103  1.00  0.00     0.000 HD 
BRANCH   9  19
HETATM   19  N   UNL     1      -8.176  12.837  68.378  1.00  0.00    -0.152 NA 
HETATM   20  C   UNL     1      -9.377  13.009  69.200  1.00  0.00     0.656 C  
HETATM   21  C   UNL     1      -7.159  13.802  68.811  1.00  0.00    -0.106 C  
ENDBRANCH   9  19
ENDBRANCH   2   3
TORSDOF 2
ENDMDL
MODEL      153
REMARK 921   NORMALIZED FREE ENERGY PREDICTED BY IDOCK:   -2.66 KCAL/MOL
REMARK 922        TOTAL FREE ENERGY PREDICTED BY IDOCK:   -3.21 KCAL/MOL
REMARK 923 INTER-LIGAND FREE ENERGY PREDICTED BY IDOCK:   -3.00 KCAL/MOL
REMARK 924 INTRA-LIGAND FREE ENERGY PREDICTED BY IDOCK:   -0.21 KCAL/MOL
REMARK 927      BINDING AFFINITY PREDICTED BY RF-SCORE:    0.00 PKD
ROOT
HETATM    1  C   UNL     1      -5.807   5.784  63.869  1.00  0.00    -0.024 C  
HETATM    2  O   UNL     1      -6.780   6.815  63.991  1.00  0.00    -0.043 OA 
ENDROOT
BRANCH   2   3
HETATM    3  C   UNL     1      -7.351   6.975  65.223  1.00  0.00    -0.077 A  
HETATM    4  C   UNL     1      -8.603   7.523  65.475  1.00  0.00    -0.102 A  
HETATM    5  C   UNL     1      -9.086   7.612  66.785  1.00  0.00    -0.181 A  
HETATM    6  C   UNL     1      -8.320   7.187  67.885  1.00  0.00    -0.118 A  
HETATM    7  C   UNL     1      -7.058   6.642  67.617  1.00  0.00    -0.085 A  
HETATM    8  C   UNL     1      -8.894   7.336  69.308  1.00  0.00    -0.136 C  
HETATM    9  C   UNL     1      -8.474   6.177  70.275  1.00  0.00    -0.126 C  
HETATM   10  C   UNL     1      -6.585   6.529  66.302  1.00  0.00    -0.048 A  
HETATM   11  C   UNL     1      -8.613   8.764  69.942  1.00  0.00    -0.133 C  
HETATM   12  O   UNL     1      -7.196   8.978  70.025  1.00  0.00    -0.049 OA 
HETATM   13  C   UNL     1      -9.234   9.933  69.137  1.00  0.00    -0.184 C  
HETATM   14  C   UNL     1      -9.150   8.917  71.388  1.00  0.00    -0.318 C  
HETATM   15  C   UNL     1     -10.674   8.851  71.461  1.00  0.00    -0.398 C  
HETATM   16  C   UNL     1     -11.324   9.911  70.577  1.00  0.00    -0.399 C  
HETATM   17  C   UNL     1     -10.766   9.917  69.155  1.00  0.00    -0.247 C  
HETATM   18  H   UNL     1      -7.028   9.833  70.405  1.00  0.00     0.000 HD 
BRANCH   9  19
HETATM   19  N   UNL     1      -8.820   4.807  69.835  1.00  0.00    -0.088 NA 
HETATM   20  C   UNL     1      -9.901   4.231  70.640  1.00  0.00    -0.195 C  
HETATM   21  C   UNL     1      -7.642   3.938  69.926  1.00  0.00    -0.052 C  
ENDBRANCH   9  19
ENDBRANCH   2   3
TORSDOF 2
ENDMDL
MODEL      154
REMARK 921   NORMALIZED FREE ENERGY PREDICTED BY IDOCK:   -2.66 KCAL/MOL
REMARK 922        TOTAL FREE ENERGY PREDICTED BY IDOCK:   -3.21 KCAL/MOL
REMARK 923 INTER-LIGAND FREE ENERGY PREDICTED BY IDOCK:   -2.98 KCAL/MOL
REMARK 924 INTRA-LIGAND FREE ENERGY PREDICTED BY IDOCK:   -0.23 KCAL/MOL
REMARK 927      BINDING AFFINITY PREDICTED BY RF-SCORE:    0.00 PKD
ROOT
HETATM    1  C   UNL     1     -12.400   6.495  72.178  1.00  0.00    -0.198 C  
HETATM    2  O   UNL     1     -11.262   5.851  71.617  1.00  0.00    -0.272 OA 
ENDROOT
BRANCH   2   3
HETATM    3  C   UNL     1     -10.504   6.591  70.752  1.00  0.00    -0.220 A  
HETATM    4  C   UNL     1     -10.986   7.515  69.834  1.00  0.00    -0.223 A  
HETATM    5  C   UNL     1     -10.102   8.228  69.016  1.00  0.00    -0.208 A  
HETATM    6  C   UNL     1      -8.714   8.014  69.068  1.00  0.00    -0.137 A  
HETATM    7  C   UNL     1      -8.242   7.076  69.995  1.00  0.00    -0.133 A  
HETATM    8  C   UNL     1      -7.791   8.809  68.122  1.00  0.00    -0.102 C  
HETATM    9  C   UNL     1      -6.407   9.172  68.760  1.00  0.00    -0.048 C  
HETATM   10  C   UNL     1      -9.126   6.381  70.832  1.00  0.00    -0.151 A  
HETATM   11  C   UNL     1      -7.622   8.122  66.701  1.00  0.00    -0.093 C  
HETATM   12  O   UNL     1      -7.048   6.817  66.867  1.00  0.00    -0.071 OA 
HETATM   13  C   UNL     1      -8.954   7.970  65.924  1.00  0.00    -0.181 C  
HETATM   14  C   UNL     1      -6.667   8.888  65.751  1.00  0.00    -0.068 C  
HETATM   15  C   UNL     1      -7.204  10.264  65.358  1.00  0.00    -0.143 C  
HETATM   16  C   UNL     1      -8.578  10.162  64.702  1.00  0.00    -0.193 C  
HETATM   17  C   UNL     1      -9.558   9.317  65.513  1.00  0.00    -0.291 C  
HETATM   18  H   UNL     1      -6.947   6.406  66.016  1.00  0.00     0.000 HD 
BRANCH   9  19
HETATM   19  N   UNL     1      -6.457   9.941  70.025  1.00  0.00    -0.070 NA 
HETATM   20  C   UNL     1      -6.443  11.386  69.787  1.00  0.00    -0.133 C  
HETATM   21  C   UNL     1      -5.314   9.585  70.873  1.00  0.00    -0.042 C  
ENDBRANCH   9  19
ENDBRANCH   2   3
TORSDOF 2
ENDMDL
MODEL      155
REMARK 921   NORMALIZED FREE ENERGY PREDICTED BY IDOCK:   -2.63 KCAL/MOL
REMARK 922        TOTAL FREE ENERGY PREDICTED BY IDOCK:   -3.18 KCAL/MOL
REMARK 923 INTER-LIGAND FREE ENERGY PREDICTED BY IDOCK:   -3.01 KCAL/MOL
REMARK 924 INTRA-LIGAND FREE ENERGY PREDICTED BY IDOCK:   -0.17 KCAL/MOL
REMARK 927      BINDING AFFINITY PREDICTED BY RF-SCORE:    0.00 PKD
ROOT
HETATM    1  C   UNL     1     -14.299   7.700  71.844  1.00  0.00    -0.404 C  
HETATM    2  O   UNL     1     -13.545   7.300  70.706  1.00  0.00    -0.036 OA 
ENDROOT
BRANCH   2   3
HETATM    3  C   UNL     1     -12.349   6.684  70.949  1.00  0.00    -0.201 A  
HETATM    4  C   UNL     1     -11.952   6.126  72.158  1.00  0.00    -0.314 A  
HETATM    5  C   UNL     1     -10.705   5.501  72.275  1.00  0.00    -0.285 A  
HETATM    6  C   UNL     1      -9.805   5.444  71.196  1.00  0.00    -0.243 A  
HETATM    7  C   UNL     1     -10.216   6.014  69.985  1.00  0.00    -0.264 A  
HETATM    8  C   UNL     1      -8.434   4.767  71.391  1.00  0.00    -0.113 C  
HETATM    9  C   UNL     1      -7.923   4.012  70.117  1.00  0.00    -0.051 C  
HETATM   10  C   UNL     1     -11.476   6.618  69.862  1.00  0.00    -0.414 A  
HETATM   11  C   UNL     1      -7.334   5.752  71.973  1.00  0.00    -0.094 C  
HETATM   12  O   UNL     1      -7.147   6.848  71.064  1.00  0.00    -0.068 OA 
HETATM   13  C   UNL     1      -7.695   6.332  73.364  1.00  0.00    -0.098 C  
HETATM   14  C   UNL     1      -5.940   5.097  72.139  1.00  0.00    -0.025 C  
HETATM   15  C   UNL     1      -5.931   3.986  73.187  1.00  0.00    -0.011 C  
HETATM   16  C   UNL     1      -6.405   4.494  74.546  1.00  0.00    -0.053 C  
HETATM   17  C   UNL     1      -7.721   5.264  74.463  1.00  0.00    -0.088 C  
HETATM   18  H   UNL     1      -6.489   7.438  71.412  1.00  0.00     0.000 HD 
BRANCH   9  19
HETATM   19  N   UNL     1      -8.823   2.967  69.576  1.00  0.00    -0.078 NA 
HETATM   20  C   UNL     1      -9.236   2.014  70.609  1.00  0.00    -0.112 C  
HETATM   21  C   UNL     1      -8.152   2.238  68.494  1.00  0.00    -0.056 C  
ENDBRANCH   9  19
ENDBRANCH   2   3
TORSDOF 2
ENDMDL
MODEL      156
REMARK 921   NORMALIZED FREE ENERGY PREDICTED BY IDOCK:   -2.62 KCAL/MOL
REMARK 922        TOTAL FREE ENERGY PREDICTED BY IDOCK:   -3.17 KCAL/MOL
REMARK 923 INTER-LIGAND FREE ENERGY PREDICTED BY IDOCK:   -4.13 KCAL/MOL
REMARK 924 INTRA-LIGAND FREE ENERGY PREDICTED BY IDOCK:    0.96 KCAL/MOL
REMARK 927      BINDING AFFINITY PREDICTED BY RF-SCORE:    0.00 PKD
ROOT
HETATM    1  C   UNL     1     -10.813  19.786  65.884  1.00  0.00    -0.284 C  
HETATM    2  O   UNL     1     -10.745  19.393  67.249  1.00  0.00    -0.459 OA 
ENDROOT
BRANCH   2   3
HETATM    3  C   UNL     1     -10.049  18.249  67.524  1.00  0.00    -0.350 A  
HETATM    4  C   UNL     1      -9.735  17.770  68.790  1.00  0.00    -0.314 A  
HETATM    5  C   UNL     1      -9.033  16.570  68.940  1.00  0.00    -0.245 A  
HETATM    6  C   UNL     1      -8.595  15.828  67.829  1.00  0.00    -0.164 A  
HETATM    7  C   UNL     1      -8.913  16.324  66.558  1.00  0.00    -0.313 A  
HETATM    8  C   UNL     1      -7.800  14.526  68.055  1.00  0.00    -0.138 C  
HETATM    9  C   UNL     1      -8.097  13.419  66.987  1.00  0.00    -0.001 C  
HETATM   10  C   UNL     1      -9.639  17.515  66.410  1.00  0.00    -0.283 A  
HETATM   11  C   UNL     1      -6.242  14.774  68.229  1.00  0.00    -0.124 C  
HETATM   12  O   UNL     1      -5.723  15.394  67.043  1.00  0.00    -0.228 OA 
HETATM   13  C   UNL     1      -5.889  15.673  69.441  1.00  0.00    -0.118 C  
HETATM   14  C   UNL     1      -5.424  13.472  68.419  1.00  0.00    -0.095 C  
HETATM   15  C   UNL     1      -5.760  12.749  69.722  1.00  0.00    -0.110 C  
HETATM   16  C   UNL     1      -5.544  13.651  70.934  1.00  0.00    -0.200 C  
HETATM   17  C   UNL     1      -6.217  15.013  70.784  1.00  0.00     0.085 C  
HETATM   18  H   UNL     1      -4.790  15.543  67.147  1.00  0.00     0.000 HD 
BRANCH   9  19
HETATM   19  N   UNL     1      -9.515  13.015  66.847  1.00  0.00    -0.236 NA 
HETATM   20  C   UNL     1     -10.200  13.779  65.801  1.00  0.00    -0.311 C  
HETATM   21  C   UNL     1     -10.219  13.209  68.119  1.00  0.00    -0.239 C  
ENDBRANCH   9  19
ENDBRANCH   2   3
TORSDOF 2
ENDMDL
MODEL      157
REMARK 921   NORMALIZED FREE ENERGY PREDICTED BY IDOCK:   -2.62 KCAL/MOL
REMARK 922        TOTAL FREE ENERGY PREDICTED BY IDOCK:   -3.17 KCAL/MOL
REMARK 923 INTER-LIGAND FREE ENERGY PREDICTED BY IDOCK:   -2.96 KCAL/MOL
REMARK 924 INTRA-LIGAND FREE ENERGY PREDICTED BY IDOCK:   -0.21 KCAL/MOL
REMARK 927      BINDING AFFINITY PREDICTED BY RF-SCORE:    0.00 PKD
ROOT
HETATM    1  C   UNL     1      -5.237  14.059  69.618  1.00  0.00    -0.091 C  
HETATM    2  O   UNL     1      -5.631  13.422  68.409  1.00  0.00    -0.074 OA 
ENDROOT
BRANCH   2   3
HETATM    3  C   UNL     1      -6.292  12.231  68.531  1.00  0.00    -0.057 A  
HETATM    4  C   UNL     1      -6.833  11.490  67.488  1.00  0.00    -0.098 A  
HETATM    5  C   UNL     1      -7.469  10.270  67.741  1.00  0.00    -0.088 A  
HETATM    6  C   UNL     1      -7.612   9.770  69.047  1.00  0.00    -0.082 A  
HETATM    7  C   UNL     1      -7.065  10.529  70.090  1.00  0.00    -0.078 A  
HETATM    8  C   UNL     1      -8.347   8.433  69.268  1.00  0.00    -0.121 C  
HETATM    9  C   UNL     1      -7.757   7.583  70.445  1.00  0.00    -0.091 C  
HETATM   10  C   UNL     1      -6.406  11.739  69.832  1.00  0.00    -0.113 A  
HETATM   11  C   UNL     1      -9.919   8.605  69.397  1.00  0.00    -0.197 C  
HETATM   12  O   UNL     1     -10.216   9.450  70.519  1.00  0.00    -0.231 OA 
HETATM   13  C   UNL     1     -10.580   9.220  68.138  1.00  0.00    -0.248 C  
HETATM   14  C   UNL     1     -10.670   7.275  69.658  1.00  0.00    -0.249 C  
HETATM   15  C   UNL     1     -10.570   6.301  68.485  1.00  0.00    -0.315 C  
HETATM   16  C   UNL     1     -11.097   6.922  67.195  1.00  0.00    -0.362 C  
HETATM   17  C   UNL     1     -10.501   8.300  66.916  1.00  0.00    -0.365 C  
HETATM   18  H   UNL     1     -11.157   9.553  70.596  1.00  0.00     0.000 HD 
BRANCH   9  19
HETATM   19  N   UNL     1      -6.318   7.247  70.346  1.00  0.00    -0.034 NA 
HETATM   20  C   UNL     1      -6.106   5.826  70.060  1.00  0.00    -0.026 C  
HETATM   21  C   UNL     1      -5.636   7.589  71.598  1.00  0.00    -0.036 C  
ENDBRANCH   9  19
ENDBRANCH   2   3
TORSDOF 2
ENDMDL
MODEL      158
REMARK 921   NORMALIZED FREE ENERGY PREDICTED BY IDOCK:   -2.60 KCAL/MOL
REMARK 922        TOTAL FREE ENERGY PREDICTED BY IDOCK:   -3.15 KCAL/MOL
REMARK 923 INTER-LIGAND FREE ENERGY PREDICTED BY IDOCK:   -2.91 KCAL/MOL
REMARK 924 INTRA-LIGAND FREE ENERGY PREDICTED BY IDOCK:   -0.23 KCAL/MOL
REMARK 927      BINDING AFFINITY PREDICTED BY RF-SCORE:    0.00 PKD
ROOT
HETATM    1  C   UNL     1      -7.284   3.352  65.788  1.00  0.00    -0.067 C  
HETATM    2  O   UNL     1      -8.618   3.839  65.872  1.00  0.00    -0.109 OA 
ENDROOT
BRANCH   2   3
HETATM    3  C   UNL     1      -8.783   5.080  66.422  1.00  0.00    -0.114 A  
HETATM    4  C   UNL     1      -9.707   6.035  66.014  1.00  0.00     0.013 A  
HETATM    5  C   UNL     1      -9.793   7.265  66.675  1.00  0.00    -0.257 A  
HETATM    6  C   UNL     1      -8.938   7.590  67.742  1.00  0.00    -0.131 A  
HETATM    7  C   UNL     1      -8.008   6.621  68.140  1.00  0.00    -0.110 A  
HETATM    8  C   UNL     1      -9.060   8.972  68.414  1.00  0.00    -0.133 C  
HETATM    9  C   UNL     1      -8.776   8.945  69.955  1.00  0.00    -0.147 C  
HETATM   10  C   UNL     1      -7.940   5.378  67.493  1.00  0.00    -0.101 A  
HETATM   11  C   UNL     1      -8.213  10.095  67.680  1.00  0.00    -0.110 C  
HETATM   12  O   UNL     1      -6.824   9.731  67.694  1.00  0.00    -0.082 OA 
HETATM   13  C   UNL     1      -8.637  10.328  66.208  1.00  0.00    -0.144 C  
HETATM   14  C   UNL     1      -8.294  11.483  68.365  1.00  0.00    -0.154 C  
HETATM   15  C   UNL     1      -9.698  12.084  68.314  1.00  0.00    -0.205 C  
HETATM   16  C   UNL     1     -10.201  12.210  66.879  1.00  0.00    -0.228 C  
HETATM   17  C   UNL     1     -10.047  10.917  66.083  1.00  0.00    -0.291 C  
HETATM   18  H   UNL     1      -6.317  10.403  67.254  1.00  0.00     0.000 HD 
BRANCH   9  19
HETATM   19  N   UNL     1      -9.618   8.025  70.754  1.00  0.00    -0.161 NA 
HETATM   20  C   UNL     1     -10.956   8.572  70.987  1.00  0.00    -0.249 C  
HETATM   21  C   UNL     1      -8.979   7.756  72.047  1.00  0.00    -0.134 C  
ENDBRANCH   9  19
ENDBRANCH   2   3
TORSDOF 2
ENDMDL
MODEL      159
REMARK 921   NORMALIZED FREE ENERGY PREDICTED BY IDOCK:   -2.60 KCAL/MOL
REMARK 922        TOTAL FREE ENERGY PREDICTED BY IDOCK:   -3.14 KCAL/MOL
REMARK 923 INTER-LIGAND FREE ENERGY PREDICTED BY IDOCK:   -2.92 KCAL/MOL
REMARK 924 INTRA-LIGAND FREE ENERGY PREDICTED BY IDOCK:   -0.23 KCAL/MOL
REMARK 927      BINDING AFFINITY PREDICTED BY RF-SCORE:    0.00 PKD
ROOT
HETATM    1  C   UNL     1     -10.280   4.246  65.594  1.00  0.00    -0.197 C  
HETATM    2  O   UNL     1      -9.270   4.459  66.574  1.00  0.00    -0.126 OA 
ENDROOT
BRANCH   2   3
HETATM    3  C   UNL     1      -9.115   5.740  67.024  1.00  0.00    -0.114 A  
HETATM    4  C   UNL     1      -8.971   6.871  66.230  1.00  0.00    -0.172 A  
HETATM    5  C   UNL     1      -8.841   8.136  66.813  1.00  0.00    -0.156 A  
HETATM    6  C   UNL     1      -8.819   8.305  68.209  1.00  0.00    -0.140 A  
HETATM    7  C   UNL     1      -8.960   7.157  68.998  1.00  0.00    -0.134 A  
HETATM    8  C   UNL     1      -8.645   9.720  68.796  1.00  0.00    -0.127 C  
HETATM    9  C   UNL     1      -9.441   9.946  70.127  1.00  0.00    -0.163 C  
HETATM   10  C   UNL     1      -9.116   5.893  68.412  1.00  0.00    -0.115 A  
HETATM   11  C   UNL     1      -7.124  10.149  68.939  1.00  0.00    -0.069 C  
HETATM   12  O   UNL     1      -6.451   9.233  69.817  1.00  0.00    -0.038 OA 
HETATM   13  C   UNL     1      -6.359  10.178  67.592  1.00  0.00    -0.058 C  
HETATM   14  C   UNL     1      -6.931  11.554  69.563  1.00  0.00    -0.034 C  
HETATM   15  C   UNL     1      -7.475  12.673  68.677  1.00  0.00    -0.094 C  
HETATM   16  C   UNL     1      -6.833  12.653  67.293  1.00  0.00    -0.102 C  
HETATM   17  C   UNL     1      -6.867  11.271  66.645  1.00  0.00    -0.130 C  
HETATM   18  H   UNL     1      -5.541   9.489  69.903  1.00  0.00     0.000 HD 
BRANCH   9  19
HETATM   19  N   UNL     1     -10.900   9.707  70.059  1.00  0.00    -0.248 NA 
HETATM   20  C   UNL     1     -11.599  10.787  69.358  1.00  0.00    -0.308 C  
HETATM   21  C   UNL     1     -11.451   9.582  71.413  1.00  0.00    -0.392 C  
ENDBRANCH   9  19
ENDBRANCH   2   3
TORSDOF 2
ENDMDL
MODEL      160
REMARK 921   NORMALIZED FREE ENERGY PREDICTED BY IDOCK:   -2.57 KCAL/MOL
REMARK 922        TOTAL FREE ENERGY PREDICTED BY IDOCK:   -3.11 KCAL/MOL
REMARK 923 INTER-LIGAND FREE ENERGY PREDICTED BY IDOCK:   -2.86 KCAL/MOL
REMARK 924 INTRA-LIGAND FREE ENERGY PREDICTED BY IDOCK:   -0.25 KCAL/MOL
REMARK 927      BINDING AFFINITY PREDICTED BY RF-SCORE:    0.00 PKD
ROOT
HETATM    1  C   UNL     1     -10.779   5.561  73.779  1.00  0.00    -0.260 C  
HETATM    2  O   UNL     1     -10.982   4.994  72.490  1.00  0.00    -0.220 OA 
ENDROOT
BRANCH   2   3
HETATM    3  C   UNL     1     -10.412   5.651  71.435  1.00  0.00    -0.239 A  
HETATM    4  C   UNL     1     -10.310   5.171  70.136  1.00  0.00    -0.340 A  
HETATM    5  C   UNL     1      -9.721   5.952  69.135  1.00  0.00    -0.176 A  
HETATM    6  C   UNL     1      -9.188   7.223  69.411  1.00  0.00    -0.148 A  
HETATM    7  C   UNL     1      -9.293   7.694  70.726  1.00  0.00    -0.162 A  
HETATM    8  C   UNL     1      -8.526   8.027  68.274  1.00  0.00    -0.123 C  
HETATM    9  C   UNL     1      -8.751   9.574  68.390  1.00  0.00    -0.124 C  
HETATM   10  C   UNL     1      -9.906   6.920  71.722  1.00  0.00    -0.170 A  
HETATM   11  C   UNL     1      -6.993   7.668  68.074  1.00  0.00    -0.079 C  
HETATM   12  O   UNL     1      -6.273   7.959  69.281  1.00  0.00    -0.034 OA 
HETATM   13  C   UNL     1      -6.747   6.183  67.708  1.00  0.00    -0.061 C  
HETATM   14  C   UNL     1      -6.302   8.495  66.960  1.00  0.00    -0.057 C  
HETATM   15  C   UNL     1      -6.864   8.199  65.571  1.00  0.00    -0.062 C  
HETATM   16  C   UNL     1      -6.753   6.716  65.227  1.00  0.00    -0.050 C  
HETATM   17  C   UNL     1      -7.301   5.812  66.329  1.00  0.00    -0.078 C  
HETATM   18  H   UNL     1      -5.356   7.744  69.162  1.00  0.00     0.000 HD 
BRANCH   9  19
HETATM   19  N   UNL     1     -10.161  10.023  68.442  1.00  0.00    -0.160 NA 
HETATM   20  C   UNL     1     -10.659  10.412  67.120  1.00  0.00    -0.261 C  
HETATM   21  C   UNL     1     -10.291  11.162  69.356  1.00  0.00    -0.057 C  
ENDBRANCH   9  19
ENDBRANCH   2   3
TORSDOF 2
ENDMDL
MODEL      161
REMARK 921   NORMALIZED FREE ENERGY PREDICTED BY IDOCK:   -2.54 KCAL/MOL
REMARK 922        TOTAL FREE ENERGY PREDICTED BY IDOCK:   -3.09 KCAL/MOL
REMARK 923 INTER-LIGAND FREE ENERGY PREDICTED BY IDOCK:   -4.05 KCAL/MOL
REMARK 924 INTRA-LIGAND FREE ENERGY PREDICTED BY IDOCK:    0.96 KCAL/MOL
REMARK 927      BINDING AFFINITY PREDICTED BY RF-SCORE:    0.00 PKD
ROOT
HETATM    1  C   UNL     1      -7.530   5.589  65.978  1.00  0.00    -0.082 C  
HETATM    2  O   UNL     1      -8.405   6.470  65.283  1.00  0.00    -0.142 OA 
ENDROOT
BRANCH   2   3
HETATM    3  C   UNL     1      -8.566   7.719  65.815  1.00  0.00    -0.143 A  
HETATM    4  C   UNL     1      -9.459   8.067  66.821  1.00  0.00    -0.259 A  
HETATM    5  C   UNL     1      -9.513   9.382  67.297  1.00  0.00    -0.169 A  
HETATM    6  C   UNL     1      -8.699  10.395  66.760  1.00  0.00    -0.132 A  
HETATM    7  C   UNL     1      -7.806  10.031  65.744  1.00  0.00    -0.128 A  
HETATM    8  C   UNL     1      -8.821  11.831  67.305  1.00  0.00    -0.167 C  
HETATM    9  C   UNL     1      -7.460  12.607  67.335  1.00  0.00    -0.146 C  
HETATM   10  C   UNL     1      -7.735   8.708  65.285  1.00  0.00    -0.092 A  
HETATM   11  C   UNL     1      -9.962  12.670  66.588  1.00  0.00    -0.242 C  
HETATM   12  O   UNL     1      -9.673  12.766  65.185  1.00  0.00    -0.473 OA 
HETATM   13  C   UNL     1     -11.376  12.059  66.751  1.00  0.00    -0.398 C  
HETATM   14  C   UNL     1     -10.073  14.129  67.098  1.00  0.00    -0.258 C  
HETATM   15  C   UNL     1     -10.513  14.212  68.559  1.00  0.00    -0.252 C  
HETATM   16  C   UNL     1     -11.848  13.506  68.781  1.00  0.00    -0.390 C  
HETATM   17  C   UNL     1     -11.875  12.095  68.199  1.00  0.00    -0.362 C  
HETATM   18  H   UNL     1     -10.355  13.268  64.756  1.00  0.00     0.000 HD 
BRANCH   9  19
HETATM   19  N   UNL     1      -6.366  11.969  68.102  1.00  0.00    -0.051 NA 
HETATM   20  C   UNL     1      -5.433  11.251  67.230  1.00  0.00    -0.056 C  
HETATM   21  C   UNL     1      -6.922  11.031  69.083  1.00  0.00    -0.104 C  
ENDBRANCH   9  19
ENDBRANCH   2   3
TORSDOF 2
ENDMDL
MODEL      162
REMARK 921   NORMALIZED FREE ENERGY PREDICTED BY IDOCK:   -2.54 KCAL/MOL
REMARK 922        TOTAL FREE ENERGY PREDICTED BY IDOCK:   -3.08 KCAL/MOL
REMARK 923 INTER-LIGAND FREE ENERGY PREDICTED BY IDOCK:   -2.85 KCAL/MOL
REMARK 924 INTRA-LIGAND FREE ENERGY PREDICTED BY IDOCK:   -0.23 KCAL/MOL
REMARK 927      BINDING AFFINITY PREDICTED BY RF-SCORE:    0.00 PKD
ROOT
HETATM    1  C   UNL     1      -7.434  15.514  68.762  1.00  0.00    -0.141 C  
HETATM    2  O   UNL     1      -6.501  14.451  68.608  1.00  0.00    -0.080 OA 
ENDROOT
BRANCH   2   3
HETATM    3  C   UNL     1      -6.993  13.269  68.128  1.00  0.00    -0.114 A  
HETATM    4  C   UNL     1      -8.255  12.747  68.385  1.00  0.00    -0.128 A  
HETATM    5  C   UNL     1      -8.650  11.533  67.814  1.00  0.00    -0.138 A  
HETATM    6  C   UNL     1      -7.784  10.787  66.995  1.00  0.00    -0.121 A  
HETATM    7  C   UNL     1      -6.513  11.322  66.748  1.00  0.00    -0.136 A  
HETATM    8  C   UNL     1      -8.264   9.441  66.415  1.00  0.00    -0.111 C  
HETATM    9  C   UNL     1      -7.707   9.145  64.981  1.00  0.00    -0.109 C  
HETATM   10  C   UNL     1      -6.128  12.552  67.300  1.00  0.00    -0.119 A  
HETATM   11  C   UNL     1      -8.026   8.222  67.403  1.00  0.00    -0.106 C  
HETATM   12  O   UNL     1      -6.622   8.096  67.676  1.00  0.00    -0.055 OA 
HETATM   13  C   UNL     1      -8.772   8.364  68.753  1.00  0.00    -0.136 C  
HETATM   14  C   UNL     1      -8.468   6.856  66.820  1.00  0.00    -0.118 C  
HETATM   15  C   UNL     1      -9.977   6.770  66.596  1.00  0.00    -0.207 C  
HETATM   16  C   UNL     1     -10.750   7.033  67.885  1.00  0.00    -0.274 C  
HETATM   17  C   UNL     1     -10.295   8.303  68.599  1.00  0.00    -0.225 C  
HETATM   18  H   UNL     1      -6.480   7.367  68.268  1.00  0.00     0.000 HD 
BRANCH   9  19
HETATM   19  N   UNL     1      -8.000  10.164  63.947  1.00  0.00    -0.155 NA 
HETATM   20  C   UNL     1      -9.224   9.852  63.205  1.00  0.00    -0.249 C  
HETATM   21  C   UNL     1      -6.880  10.258  63.005  1.00  0.00    -0.125 C  
ENDBRANCH   9  19
ENDBRANCH   2   3
TORSDOF 2
ENDMDL
MODEL      163
REMARK 921   NORMALIZED FREE ENERGY PREDICTED BY IDOCK:   -2.54 KCAL/MOL
REMARK 922        TOTAL FREE ENERGY PREDICTED BY IDOCK:   -3.08 KCAL/MOL
REMARK 923 INTER-LIGAND FREE ENERGY PREDICTED BY IDOCK:   -2.96 KCAL/MOL
REMARK 924 INTRA-LIGAND FREE ENERGY PREDICTED BY IDOCK:   -0.12 KCAL/MOL
REMARK 927      BINDING AFFINITY PREDICTED BY RF-SCORE:    0.00 PKD
ROOT
HETATM    1  C   UNL     1     -14.149  15.394  72.019  1.00  0.00    -0.549 C  
HETATM    2  O   UNL     1     -13.887  15.479  70.623  1.00  0.00    -0.361 OA 
ENDROOT
BRANCH   2   3
HETATM    3  C   UNL     1     -12.629  15.133  70.214  1.00  0.00    -0.326 A  
HETATM    4  C   UNL     1     -11.441  15.503  70.833  1.00  0.00    -0.410 A  
HETATM    5  C   UNL     1     -10.212  15.065  70.327  1.00  0.00     0.061 A  
HETATM    6  C   UNL     1     -10.132  14.270  69.170  1.00  0.00    -0.067 A  
HETATM    7  C   UNL     1     -11.337  13.909  68.554  1.00  0.00    -0.311 A  
HETATM    8  C   UNL     1      -8.749  13.840  68.643  1.00  0.00    -0.051 C  
HETATM    9  C   UNL     1      -8.741  12.410  68.002  1.00  0.00    -0.186 C  
HETATM   10  C   UNL     1     -12.569  14.328  69.076  1.00  0.00     0.258 A  
HETATM   11  C   UNL     1      -8.089  14.919  67.684  1.00  0.00    -0.166 C  
HETATM   12  O   UNL     1      -8.937  15.127  66.545  1.00  0.00    -0.268 OA 
HETATM   13  C   UNL     1      -7.848  16.289  68.365  1.00  0.00    -0.168 C  
HETATM   14  C   UNL     1      -6.714  14.485  67.115  1.00  0.00     0.430 C  
HETATM   15  C   UNL     1      -5.644  14.351  68.196  1.00  0.00    -0.124 C  
HETATM   16  C   UNL     1      -5.469  15.651  68.976  1.00  0.00    -0.103 C  
HETATM   17  C   UNL     1      -6.794  16.223  69.475  1.00  0.00    -0.188 C  
HETATM   18  H   UNL     1      -8.543  15.772  65.970  1.00  0.00     0.000 HD 
BRANCH   9  19
HETATM   19  N   UNL     1      -9.210  11.307  68.871  1.00  0.00    -0.120 NA 
HETATM   20  C   UNL     1      -8.151  10.328  69.130  1.00  0.00    -0.138 C  
HETATM   21  C   UNL     1     -10.348  10.625  68.246  1.00  0.00    -0.177 C  
ENDBRANCH   9  19
ENDBRANCH   2   3
TORSDOF 2
ENDMDL
MODEL      164
REMARK 921   NORMALIZED FREE ENERGY PREDICTED BY IDOCK:   -2.53 KCAL/MOL
REMARK 922        TOTAL FREE ENERGY PREDICTED BY IDOCK:   -3.07 KCAL/MOL
REMARK 923 INTER-LIGAND FREE ENERGY PREDICTED BY IDOCK:   -2.96 KCAL/MOL
REMARK 924 INTRA-LIGAND FREE ENERGY PREDICTED BY IDOCK:   -0.11 KCAL/MOL
REMARK 927      BINDING AFFINITY PREDICTED BY RF-SCORE:    0.00 PKD
ROOT
HETATM    1  C   UNL     1      -7.948   8.754  67.517  1.00  0.00    -0.102 C  
HETATM    2  O   UNL     1      -7.178   9.906  67.193  1.00  0.00    -0.085 OA 
ENDROOT
BRANCH   2   3
HETATM    3  C   UNL     1      -7.767  11.120  67.417  1.00  0.00    -0.120 A  
HETATM    4  C   UNL     1      -8.336  11.940  66.451  1.00  0.00     0.005 A  
HETATM    5  C   UNL     1      -8.930  13.154  66.812  1.00  0.00    -0.183 A  
HETATM    6  C   UNL     1      -8.944  13.600  68.145  1.00  0.00    -0.191 A  
HETATM    7  C   UNL     1      -8.363  12.766  69.109  1.00  0.00     0.603 A  
HETATM    8  C   UNL     1      -9.588  14.960  68.480  1.00  0.00    -0.215 C  
HETATM    9  C   UNL     1     -10.306  14.986  69.872  1.00  0.00    -0.120 C  
HETATM   10  C   UNL     1      -7.790  11.538  68.749  1.00  0.00    -0.117 A  
HETATM   11  C   UNL     1      -8.584  16.179  68.312  1.00  0.00    -0.182 C  
HETATM   12  O   UNL     1      -7.468  16.002  69.197  1.00  0.00    -0.193 OA 
HETATM   13  C   UNL     1      -8.039  16.339  66.871  1.00  0.00    -0.270 C  
HETATM   14  C   UNL     1      -9.205  17.549  68.682  1.00  0.00    -0.267 C  
HETATM   15  C   UNL     1     -10.334  17.960  67.738  1.00  0.00    -0.393 C  
HETATM   16  C   UNL     1      -9.863  18.004  66.287  1.00  0.00    -0.310 C  
HETATM   17  C   UNL     1      -9.126  16.735  65.866  1.00  0.00    -0.120 C  
HETATM   18  H   UNL     1      -6.867  16.731  69.097  1.00  0.00     0.000 HD 
BRANCH   9  19
HETATM   19  N   UNL     1     -11.364  13.970  70.076  1.00  0.00    -0.162 NA 
HETATM   20  C   UNL     1     -12.255  13.870  68.917  1.00  0.00    -0.222 C  
HETATM   21  C   UNL     1     -12.159  14.304  71.262  1.00  0.00    -0.316 C  
ENDBRANCH   9  19
ENDBRANCH   2   3
TORSDOF 2
ENDMDL
MODEL      165
REMARK 921   NORMALIZED FREE ENERGY PREDICTED BY IDOCK:   -2.52 KCAL/MOL
REMARK 922        TOTAL FREE ENERGY PREDICTED BY IDOCK:   -3.06 KCAL/MOL
REMARK 923 INTER-LIGAND FREE ENERGY PREDICTED BY IDOCK:   -2.85 KCAL/MOL
REMARK 924 INTRA-LIGAND FREE ENERGY PREDICTED BY IDOCK:   -0.21 KCAL/MOL
REMARK 927      BINDING AFFINITY PREDICTED BY RF-SCORE:    0.00 PKD
ROOT
HETATM    1  C   UNL     1      -7.487  11.941  68.491  1.00  0.00    -0.117 C  
HETATM    2  O   UNL     1      -8.705  11.267  68.787  1.00  0.00    -0.157 OA 
ENDROOT
BRANCH   2   3
HETATM    3  C   UNL     1      -8.620   9.923  69.023  1.00  0.00    -0.149 A  
HETATM    4  C   UNL     1      -8.458   8.936  68.058  1.00  0.00    -0.126 A  
HETATM    5  C   UNL     1      -8.362   7.591  68.430  1.00  0.00    -0.125 A  
HETATM    6  C   UNL     1      -8.458   7.189  69.774  1.00  0.00    -0.137 A  
HETATM    7  C   UNL     1      -8.625   8.193  70.735  1.00  0.00    -0.138 A  
HETATM    8  C   UNL     1      -8.373   5.689  70.121  1.00  0.00    -0.118 C  
HETATM    9  C   UNL     1      -7.655   5.403  71.484  1.00  0.00    -0.103 C  
HETATM   10  C   UNL     1      -8.696   9.543  70.363  1.00  0.00    -0.265 A  
HETATM   11  C   UNL     1      -9.776   4.952  70.029  1.00  0.00    -0.215 C  
HETATM   12  O   UNL     1     -10.694   5.556  70.952  1.00  0.00    -0.252 OA 
HETATM   13  C   UNL     1     -10.409   4.999  68.615  1.00  0.00    -0.098 C  
HETATM   14  C   UNL     1      -9.715   3.452  70.412  1.00  0.00    -0.150 C  
HETATM   15  C   UNL     1      -8.878   2.627  69.437  1.00  0.00    -0.151 C  
HETATM   16  C   UNL     1      -9.399   2.752  68.008  1.00  0.00    -0.257 C  
HETATM   17  C   UNL     1      -9.608   4.203  67.580  1.00  0.00    -0.219 C  
HETATM   18  H   UNL     1     -11.533   5.116  70.897  1.00  0.00     0.000 HD 
BRANCH   9  19
HETATM   19  N   UNL     1      -6.278   5.933  71.616  1.00  0.00    -0.042 NA 
HETATM   20  C   UNL     1      -5.376   5.364  70.612  1.00  0.00    -0.005 C  
HETATM   21  C   UNL     1      -5.753   5.637  72.953  1.00  0.00    -0.027 C  
ENDBRANCH   9  19
ENDBRANCH   2   3
TORSDOF 2
ENDMDL
MODEL      166
REMARK 921   NORMALIZED FREE ENERGY PREDICTED BY IDOCK:   -2.47 KCAL/MOL
REMARK 922        TOTAL FREE ENERGY PREDICTED BY IDOCK:   -3.01 KCAL/MOL
REMARK 923 INTER-LIGAND FREE ENERGY PREDICTED BY IDOCK:   -2.77 KCAL/MOL
REMARK 924 INTRA-LIGAND FREE ENERGY PREDICTED BY IDOCK:   -0.24 KCAL/MOL
REMARK 927      BINDING AFFINITY PREDICTED BY RF-SCORE:    0.00 PKD
ROOT
HETATM    1  C   UNL     1      -8.533   5.429  64.970  1.00  0.00    -0.150 C  
HETATM    2  O   UNL     1      -8.046   4.386  65.806  1.00  0.00    -0.101 OA 
ENDROOT
BRANCH   2   3
HETATM    3  C   UNL     1      -8.209   4.554  67.153  1.00  0.00    -0.101 A  
HETATM    4  C   UNL     1      -7.198   4.821  68.068  1.00  0.00    -0.066 A  
HETATM    5  C   UNL     1      -7.497   4.994  69.423  1.00  0.00    -0.057 A  
HETATM    6  C   UNL     1      -8.810   4.874  69.910  1.00  0.00    -0.126 A  
HETATM    7  C   UNL     1      -9.819   4.601  68.978  1.00  0.00    -0.224 A  
HETATM    8  C   UNL     1      -9.076   5.048  71.419  1.00  0.00    -0.174 C  
HETATM    9  C   UNL     1     -10.450   5.731  71.736  1.00  0.00    -0.228 C  
HETATM   10  C   UNL     1      -9.521   4.452  67.616  1.00  0.00    -0.204 A  
HETATM   11  C   UNL     1      -8.882   3.705  72.241  1.00  0.00    -0.092 C  
HETATM   12  O   UNL     1      -9.798   2.712  71.755  1.00  0.00    -0.152 OA 
HETATM   13  C   UNL     1      -7.448   3.126  72.152  1.00  0.00    -0.052 C  
HETATM   14  C   UNL     1      -9.182   3.853  73.754  1.00  0.00    -0.099 C  
HETATM   15  C   UNL     1      -8.199   4.783  74.462  1.00  0.00    -0.098 C  
HETATM   16  C   UNL     1      -6.758   4.311  74.287  1.00  0.00    -0.055 C  
HETATM   17  C   UNL     1      -6.404   4.019  72.831  1.00  0.00    -0.020 C  
HETATM   18  H   UNL     1      -9.682   1.907  72.246  1.00  0.00     0.000 HD 
BRANCH   9  19
HETATM   19  N   UNL     1     -10.671   7.062  71.125  1.00  0.00    -0.228 NA 
HETATM   20  C   UNL     1     -10.309   8.149  72.038  1.00  0.00    -0.254 C  
HETATM   21  C   UNL     1     -12.079   7.210  70.741  1.00  0.00    -0.288 C  
ENDBRANCH   9  19
ENDBRANCH   2   3
TORSDOF 2
ENDMDL
MODEL      167
REMARK 921   NORMALIZED FREE ENERGY PREDICTED BY IDOCK:   -2.45 KCAL/MOL
REMARK 922        TOTAL FREE ENERGY PREDICTED BY IDOCK:   -2.98 KCAL/MOL
REMARK 923 INTER-LIGAND FREE ENERGY PREDICTED BY IDOCK:   -2.83 KCAL/MOL
REMARK 924 INTRA-LIGAND FREE ENERGY PREDICTED BY IDOCK:   -0.15 KCAL/MOL
REMARK 927      BINDING AFFINITY PREDICTED BY RF-SCORE:    0.00 PKD
ROOT
HETATM    1  C   UNL     1     -12.452  14.227  70.092  1.00  0.00    -0.335 C  
HETATM    2  O   UNL     1     -11.669  14.655  68.984  1.00  0.00    -0.277 OA 
ENDROOT
BRANCH   2   3
HETATM    3  C   UNL     1     -10.784  13.747  68.472  1.00  0.00    -0.262 A  
HETATM    4  C   UNL     1     -10.467  12.515  69.031  1.00  0.00    -0.024 A  
HETATM    5  C   UNL     1      -9.558  11.662  68.396  1.00  0.00    -0.195 A  
HETATM    6  C   UNL     1      -8.913  12.028  67.201  1.00  0.00    -0.185 A  
HETATM    7  C   UNL     1      -9.238  13.275  66.652  1.00  0.00    -0.222 A  
HETATM    8  C   UNL     1      -7.899  11.059  66.561  1.00  0.00    -0.155 C  
HETATM    9  C   UNL     1      -7.908  11.091  64.995  1.00  0.00     0.352 C  
HETATM   10  C   UNL     1     -10.169  14.118  67.276  1.00  0.00    -0.256 A  
HETATM   11  C   UNL     1      -6.433  11.223  67.146  1.00  0.00    -0.099 C  
HETATM   12  O   UNL     1      -5.967  12.558  66.899  1.00  0.00    -0.465 OA 
HETATM   13  C   UNL     1      -6.339  10.951  68.669  1.00  0.00    -0.050 C  
HETATM   14  C   UNL     1      -5.393  10.282  66.487  1.00  0.00    -0.047 C  
HETATM   15  C   UNL     1      -5.667   8.807  66.772  1.00  0.00    -0.048 C  
HETATM   16  C   UNL     1      -5.709   8.525  68.272  1.00  0.00    -0.038 C  
HETATM   17  C   UNL     1      -6.620   9.489  69.029  1.00  0.00    -0.050 C  
HETATM   18  H   UNL     1      -5.089  12.656  67.249  1.00  0.00     0.000 HD 
BRANCH   9  19
HETATM   19  N   UNL     1      -9.209  10.810  64.347  1.00  0.00    -0.213 NA 
HETATM   20  C   UNL     1      -9.837   9.600  64.884  1.00  0.00     0.003 C  
HETATM   21  C   UNL     1      -9.024  10.649  62.900  1.00  0.00    -0.265 C  
ENDBRANCH   9  19
ENDBRANCH   2   3
TORSDOF 2
ENDMDL
MODEL      168
REMARK 921   NORMALIZED FREE ENERGY PREDICTED BY IDOCK:   -2.41 KCAL/MOL
REMARK 922        TOTAL FREE ENERGY PREDICTED BY IDOCK:   -2.93 KCAL/MOL
REMARK 923 INTER-LIGAND FREE ENERGY PREDICTED BY IDOCK:   -2.72 KCAL/MOL
REMARK 924 INTRA-LIGAND FREE ENERGY PREDICTED BY IDOCK:   -0.21 KCAL/MOL
REMARK 927      BINDING AFFINITY PREDICTED BY RF-SCORE:    0.00 PKD
ROOT
HETATM    1  C   UNL     1     -10.810   3.762  64.741  1.00  0.00     0.085 C  
HETATM    2  O   UNL     1      -9.591   3.654  65.467  1.00  0.00    -0.169 OA 
ENDROOT
BRANCH   2   3
HETATM    3  C   UNL     1      -9.384   4.575  66.456  1.00  0.00    -0.151 A  
HETATM    4  C   UNL     1      -8.148   4.995  66.932  1.00  0.00    -0.107 A  
HETATM    5  C   UNL     1      -8.068   5.964  67.937  1.00  0.00    -0.105 A  
HETATM    6  C   UNL     1      -9.221   6.520  68.520  1.00  0.00    -0.125 A  
HETATM    7  C   UNL     1     -10.460   6.085  68.034  1.00  0.00    -0.291 A  
HETATM    8  C   UNL     1      -9.071   7.564  69.644  1.00  0.00    -0.140 C  
HETATM    9  C   UNL     1     -10.179   8.672  69.618  1.00  0.00    -0.208 C  
HETATM   10  C   UNL     1     -10.539   5.131  67.008  1.00  0.00    -0.201 A  
HETATM   11  C   UNL     1      -8.926   6.910  71.082  1.00  0.00    -0.143 C  
HETATM   12  O   UNL     1     -10.096   6.131  71.372  1.00  0.00    -0.188 OA 
HETATM   13  C   UNL     1      -7.686   5.991  71.222  1.00  0.00    -0.110 C  
HETATM   14  C   UNL     1      -8.812   7.947  72.228  1.00  0.00    -0.202 C  
HETATM   15  C   UNL     1      -7.534   8.779  72.147  1.00  0.00     0.010 C  
HETATM   16  C   UNL     1      -6.290   7.895  72.154  1.00  0.00    -0.050 C  
HETATM   17  C   UNL     1      -6.364   6.762  71.133  1.00  0.00    -0.041 C  
HETATM   18  H   UNL     1     -10.009   5.739  72.233  1.00  0.00     0.000 HD 
BRANCH   9  19
HETATM   19  N   UNL     1     -10.300   9.441  68.358  1.00  0.00    -0.198 NA 
HETATM   20  C   UNL     1      -9.037  10.083  67.986  1.00  0.00    -0.131 C  
HETATM   21  C   UNL     1     -11.336  10.469  68.496  1.00  0.00    -0.257 C  
ENDBRANCH   9  19
ENDBRANCH   2   3
TORSDOF 2
ENDMDL
MODEL      169
REMARK 921   NORMALIZED FREE ENERGY PREDICTED BY IDOCK:   -2.41 KCAL/MOL
REMARK 922        TOTAL FREE ENERGY PREDICTED BY IDOCK:   -2.93 KCAL/MOL
REMARK 923 INTER-LIGAND FREE ENERGY PREDICTED BY IDOCK:   -2.83 KCAL/MOL
REMARK 924 INTRA-LIGAND FREE ENERGY PREDICTED BY IDOCK:   -0.10 KCAL/MOL
REMARK 927      BINDING AFFINITY PREDICTED BY RF-SCORE:    0.00 PKD
ROOT
HETATM    1  C   UNL     1     -11.294  11.643  68.033  1.00  0.00    -0.296 C  
HETATM    2  O   UNL     1     -10.654  12.148  66.867  1.00  0.00    -0.222 OA 
ENDROOT
BRANCH   2   3
HETATM    3  C   UNL     1     -10.275  13.461  66.896  1.00  0.00    -0.252 A  
HETATM    4  C   UNL     1     -10.373  14.313  67.990  1.00  0.00    -0.229 A  
HETATM    5  C   UNL     1      -9.929  15.636  67.900  1.00  0.00    -0.223 A  
HETATM    6  C   UNL     1      -9.402  16.158  66.705  1.00  0.00    -0.255 A  
HETATM    7  C   UNL     1      -9.313  15.290  65.610  1.00  0.00    -0.130 A  
HETATM    8  C   UNL     1      -8.954  17.632  66.657  1.00  0.00    -0.283 C  
HETATM    9  C   UNL     1      -7.706  17.876  65.742  1.00  0.00     0.022 C  
HETATM   10  C   UNL     1      -9.735  13.957  65.709  1.00  0.00    -0.190 A  
HETATM   11  C   UNL     1     -10.140  18.629  66.313  1.00  0.00    -0.400 C  
HETATM   12  O   UNL     1     -10.680  18.301  65.024  1.00  0.00    -0.594 OA 
HETATM   13  C   UNL     1     -11.295  18.597  67.345  1.00  0.00     0.494 C  
HETATM   14  C   UNL     1      -9.698  20.112  66.223  1.00  0.00    -0.515 C  
HETATM   15  C   UNL     1      -9.219  20.667  67.563  1.00  0.00    -0.394 C  
HETATM   16  C   UNL     1     -10.292  20.534  68.640  1.00  0.00     0.036 C  
HETATM   17  C   UNL     1     -10.878  19.126  68.721  1.00  0.00     0.661 C  
HETATM   18  H   UNL     1     -11.390  18.898  64.818  1.00  0.00     0.000 HD 
BRANCH   9  19
HETATM   19  N   UNL     1      -6.495  17.090  66.072  1.00  0.00    -0.070 NA 
HETATM   20  C   UNL     1      -6.232  17.072  67.514  1.00  0.00    -0.147 C  
HETATM   21  C   UNL     1      -5.329  17.650  65.381  1.00  0.00     0.161 C  
ENDBRANCH   9  19
ENDBRANCH   2   3
TORSDOF 2
ENDMDL
MODEL      170
REMARK 921   NORMALIZED FREE ENERGY PREDICTED BY IDOCK:   -2.40 KCAL/MOL
REMARK 922        TOTAL FREE ENERGY PREDICTED BY IDOCK:   -2.92 KCAL/MOL
REMARK 923 INTER-LIGAND FREE ENERGY PREDICTED BY IDOCK:   -2.75 KCAL/MOL
REMARK 924 INTRA-LIGAND FREE ENERGY PREDICTED BY IDOCK:   -0.17 KCAL/MOL
REMARK 927      BINDING AFFINITY PREDICTED BY RF-SCORE:    0.00 PKD
ROOT
HETATM    1  C   UNL     1      -8.570  16.595  68.736  1.00  0.00    -0.261 C  
HETATM    2  O   UNL     1      -9.201  15.941  67.641  1.00  0.00    -0.205 OA 
ENDROOT
BRANCH   2   3
HETATM    3  C   UNL     1      -9.057  14.583  67.573  1.00  0.00    -0.193 A  
HETATM    4  C   UNL     1      -8.442  13.880  66.544  1.00  0.00     0.289 A  
HETATM    5  C   UNL     1      -8.338  12.486  66.601  1.00  0.00     0.040 A  
HETATM    6  C   UNL     1      -8.874  11.750  67.673  1.00  0.00    -0.162 A  
HETATM    7  C   UNL     1      -9.496  12.471  68.700  1.00  0.00    -0.010 A  
HETATM    8  C   UNL     1      -8.754  10.213  67.668  1.00  0.00    -0.121 C  
HETATM    9  C   UNL     1      -8.559   9.598  69.096  1.00  0.00    -0.146 C  
HETATM   10  C   UNL     1      -9.577  13.870  68.654  1.00  0.00    -0.142 A  
HETATM   11  C   UNL     1      -9.932   9.503  66.877  1.00  0.00    -0.216 C  
HETATM   12  O   UNL     1     -11.187   9.834  67.490  1.00  0.00    -0.429 OA 
HETATM   13  C   UNL     1     -10.002   9.902  65.381  1.00  0.00    -0.349 C  
HETATM   14  C   UNL     1      -9.847   7.955  66.895  1.00  0.00    -0.309 C  
HETATM   15  C   UNL     1      -8.623   7.422  66.154  1.00  0.00    -0.154 C  
HETATM   16  C   UNL     1      -8.593   7.903  64.705  1.00  0.00     0.076 C  
HETATM   17  C   UNL     1      -8.793   9.411  64.579  1.00  0.00    -0.235 C  
HETATM   18  H   UNL     1     -11.892   9.409  67.016  1.00  0.00     0.000 HD 
BRANCH   9  19
HETATM   19  N   UNL     1      -7.397  10.098  69.865  1.00  0.00    -0.153 NA 
HETATM   20  C   UNL     1      -6.157  10.029  69.088  1.00  0.00    -0.040 C  
HETATM   21  C   UNL     1      -7.234   9.314  71.094  1.00  0.00    -0.033 C  
ENDBRANCH   9  19
ENDBRANCH   2   3
TORSDOF 2
ENDMDL
MODEL      171
REMARK 921   NORMALIZED FREE ENERGY PREDICTED BY IDOCK:   -2.37 KCAL/MOL
REMARK 922        TOTAL FREE ENERGY PREDICTED BY IDOCK:   -2.89 KCAL/MOL
REMARK 923 INTER-LIGAND FREE ENERGY PREDICTED BY IDOCK:   -2.67 KCAL/MOL
REMARK 924 INTRA-LIGAND FREE ENERGY PREDICTED BY IDOCK:   -0.22 KCAL/MOL
REMARK 927      BINDING AFFINITY PREDICTED BY RF-SCORE:    0.00 PKD
ROOT
HETATM    1  C   UNL     1      -6.880   3.399  63.360  1.00  0.00    -0.043 C  
HETATM    2  O   UNL     1      -5.967   4.153  64.150  1.00  0.00    -0.014 OA 
ENDROOT
BRANCH   2   3
HETATM    3  C   UNL     1      -6.507   5.117  64.955  1.00  0.00    -0.035 A  
HETATM    4  C   UNL     1      -7.053   4.912  66.216  1.00  0.00    -0.072 A  
HETATM    5  C   UNL     1      -7.555   5.989  66.955  1.00  0.00    -0.096 A  
HETATM    6  C   UNL     1      -7.557   7.298  66.442  1.00  0.00    -0.092 A  
HETATM    7  C   UNL     1      -7.007   7.490  65.167  1.00  0.00    -0.058 A  
HETATM    8  C   UNL     1      -8.149   8.441  67.289  1.00  0.00    -0.105 C  
HETATM    9  C   UNL     1      -7.400   9.806  67.108  1.00  0.00    -0.087 C  
HETATM   10  C   UNL     1      -6.481   6.413  64.439  1.00  0.00    -0.034 A  
HETATM   11  C   UNL     1      -9.717   8.601  67.103  1.00  0.00    -0.190 C  
HETATM   12  O   UNL     1     -10.008   8.891  65.728  1.00  0.00    -0.459 OA 
HETATM   13  C   UNL     1     -10.521   7.342  67.514  1.00  0.00    -0.337 C  
HETATM   14  C   UNL     1     -10.323   9.771  67.919  1.00  0.00    -0.258 C  
HETATM   15  C   UNL     1     -10.221   9.553  69.428  1.00  0.00    -0.215 C  
HETATM   16  C   UNL     1     -10.894   8.252  69.853  1.00  0.00    -0.213 C  
HETATM   17  C   UNL     1     -10.448   7.055  69.017  1.00  0.00    -0.219 C  
HETATM   18  H   UNL     1     -10.946   8.986  65.616  1.00  0.00     0.000 HD 
BRANCH   9  19
HETATM   19  N   UNL     1      -5.948   9.793  67.396  1.00  0.00    -0.054 NA 
HETATM   20  C   UNL     1      -5.641  10.415  68.687  1.00  0.00    -0.037 C  
HETATM   21  C   UNL     1      -5.220  10.502  66.338  1.00  0.00    -0.058 C  
ENDBRANCH   9  19
ENDBRANCH   2   3
TORSDOF 2
ENDMDL
MODEL      172
REMARK 921   NORMALIZED FREE ENERGY PREDICTED BY IDOCK:   -2.34 KCAL/MOL
REMARK 922        TOTAL FREE ENERGY PREDICTED BY IDOCK:   -2.86 KCAL/MOL
REMARK 923 INTER-LIGAND FREE ENERGY PREDICTED BY IDOCK:   -2.70 KCAL/MOL
REMARK 924 INTRA-LIGAND FREE ENERGY PREDICTED BY IDOCK:   -0.17 KCAL/MOL
REMARK 927      BINDING AFFINITY PREDICTED BY RF-SCORE:    0.00 PKD
ROOT
HETATM    1  C   UNL     1     -13.754   9.629  72.098  1.00  0.00    -0.320 C  
HETATM    2  O   UNL     1     -12.377   9.668  72.455  1.00  0.00    -0.204 OA 
ENDROOT
BRANCH   2   3
HETATM    3  C   UNL     1     -11.526   8.915  71.695  1.00  0.00    -0.339 A  
HETATM    4  C   UNL     1     -11.704   8.585  70.357  1.00  0.00    -0.003 A  
HETATM    5  C   UNL     1     -10.745   7.823  69.681  1.00  0.00    -0.223 A  
HETATM    6  C   UNL     1      -9.596   7.339  70.331  1.00  0.00    -0.165 A  
HETATM    7  C   UNL     1      -9.431   7.674  71.681  1.00  0.00    -0.174 A  
HETATM    8  C   UNL     1      -8.588   6.480  69.543  1.00  0.00    -0.134 C  
HETATM    9  C   UNL     1      -7.099   6.712  69.972  1.00  0.00    -0.071 C  
HETATM   10  C   UNL     1     -10.381   8.460  72.350  1.00  0.00    -0.399 A  
HETATM   11  C   UNL     1      -8.964   4.938  69.531  1.00  0.00    -0.092 C  
HETATM   12  O   UNL     1      -8.989   4.443  70.879  1.00  0.00    -0.104 OA 
HETATM   13  C   UNL     1     -10.338   4.640  68.880  1.00  0.00     0.116 C  
HETATM   14  C   UNL     1      -7.940   4.055  68.775  1.00  0.00    -0.071 C  
HETATM   15  C   UNL     1      -7.886   4.361  67.280  1.00  0.00    -0.096 C  
HETATM   16  C   UNL     1      -9.256   4.201  66.626  1.00  0.00    -0.164 C  
HETATM   17  C   UNL     1     -10.360   4.942  67.378  1.00  0.00    -0.127 C  
HETATM   18  H   UNL     1      -9.215   3.521  70.872  1.00  0.00     0.000 HD 
BRANCH   9  19
HETATM   19  N   UNL     1      -6.607   8.106  69.883  1.00  0.00    -0.039 NA 
HETATM   20  C   UNL     1      -6.874   8.696  68.569  1.00  0.00    -0.064 C  
HETATM   21  C   UNL     1      -5.164   8.146  70.141  1.00  0.00    -0.023 C  
ENDBRANCH   9  19
ENDBRANCH   2   3
TORSDOF 2
ENDMDL
MODEL      173
REMARK 921   NORMALIZED FREE ENERGY PREDICTED BY IDOCK:   -2.34 KCAL/MOL
REMARK 922        TOTAL FREE ENERGY PREDICTED BY IDOCK:   -2.86 KCAL/MOL
REMARK 923 INTER-LIGAND FREE ENERGY PREDICTED BY IDOCK:   -2.73 KCAL/MOL
REMARK 924 INTRA-LIGAND FREE ENERGY PREDICTED BY IDOCK:   -0.13 KCAL/MOL
REMARK 927      BINDING AFFINITY PREDICTED BY RF-SCORE:    0.00 PKD
ROOT
HETATM    1  C   UNL     1      -5.158  20.430  72.418  1.00  0.00     0.461 C  
HETATM    2  O   UNL     1      -5.508  21.090  71.207  1.00  0.00    -0.540 OA 
ENDROOT
BRANCH   2   3
HETATM    3  C   UNL     1      -6.046  20.314  70.220  1.00  0.00    -0.327 A  
HETATM    4  C   UNL     1      -7.394  20.231  69.893  1.00  0.00     0.428 A  
HETATM    5  C   UNL     1      -7.820  19.412  68.841  1.00  0.00    -0.370 A  
HETATM    6  C   UNL     1      -6.915  18.627  68.105  1.00  0.00    -0.257 A  
HETATM    7  C   UNL     1      -5.560  18.716  68.448  1.00  0.00    -0.191 A  
HETATM    8  C   UNL     1      -7.445  17.722  66.975  1.00  0.00    -0.224 C  
HETATM    9  C   UNL     1      -6.463  17.600  65.760  1.00  0.00    -0.121 C  
HETATM   10  C   UNL     1      -5.132  19.556  69.486  1.00  0.00    -0.187 A  
HETATM   11  C   UNL     1      -7.921  16.299  67.493  1.00  0.00    -0.151 C  
HETATM   12  O   UNL     1      -6.814  15.620  68.105  1.00  0.00    -0.110 OA 
HETATM   13  C   UNL     1      -9.076  16.369  68.524  1.00  0.00    -0.223 C  
HETATM   14  C   UNL     1      -8.421  15.363  66.364  1.00  0.00    -0.169 C  
HETATM   15  C   UNL     1      -9.692  15.877  65.691  1.00  0.00    -0.306 C  
HETATM   16  C   UNL     1     -10.818  16.080  66.701  1.00  0.00    -0.179 C  
HETATM   17  C   UNL     1     -10.381  16.894  67.917  1.00  0.00    -0.332 C  
HETATM   18  H   UNL     1      -7.098  14.768  68.415  1.00  0.00     0.000 HD 
BRANCH   9  19
HETATM   19  N   UNL     1      -6.068  18.873  65.115  1.00  0.00    -0.264 NA 
HETATM   20  C   UNL     1      -7.222  19.741  64.866  1.00  0.00     0.392 C  
HETATM   21  C   UNL     1      -5.391  18.601  63.842  1.00  0.00    -0.060 C  
ENDBRANCH   9  19
ENDBRANCH   2   3
TORSDOF 2
ENDMDL
MODEL      174
REMARK 921   NORMALIZED FREE ENERGY PREDICTED BY IDOCK:   -2.32 KCAL/MOL
REMARK 922        TOTAL FREE ENERGY PREDICTED BY IDOCK:   -2.84 KCAL/MOL
REMARK 923 INTER-LIGAND FREE ENERGY PREDICTED BY IDOCK:   -2.61 KCAL/MOL
REMARK 924 INTRA-LIGAND FREE ENERGY PREDICTED BY IDOCK:   -0.23 KCAL/MOL
REMARK 927      BINDING AFFINITY PREDICTED BY RF-SCORE:    0.00 PKD
ROOT
HETATM    1  C   UNL     1     -11.787   8.167  71.248  1.00  0.00    -0.287 C  
HETATM    2  O   UNL     1     -10.382   8.294  71.061  1.00  0.00    -0.187 OA 
ENDROOT
BRANCH   2   3
HETATM    3  C   UNL     1      -9.899   7.981  69.821  1.00  0.00    -0.183 A  
HETATM    4  C   UNL     1     -10.629   7.421  68.780  1.00  0.00    -0.189 A  
HETATM    5  C   UNL     1     -10.023   7.166  67.545  1.00  0.00    -0.214 A  
HETATM    6  C   UNL     1      -8.660   7.435  67.323  1.00  0.00    -0.118 A  
HETATM    7  C   UNL     1      -7.935   7.995  68.382  1.00  0.00    -0.120 A  
HETATM    8  C   UNL     1      -8.039   7.108  65.950  1.00  0.00    -0.122 C  
HETATM    9  C   UNL     1      -6.933   8.125  65.507  1.00  0.00    -0.063 C  
HETATM   10  C   UNL     1      -8.550   8.273  69.611  1.00  0.00    -0.129 A  
HETATM   11  C   UNL     1      -7.537   5.606  65.840  1.00  0.00    -0.086 C  
HETATM   12  O   UNL     1      -6.531   5.366  66.835  1.00  0.00    -0.041 OA 
HETATM   13  C   UNL     1      -8.664   4.560  66.027  1.00  0.00    -0.115 C  
HETATM   14  C   UNL     1      -6.875   5.272  64.479  1.00  0.00    -0.048 C  
HETATM   15  C   UNL     1      -7.857   5.346  63.311  1.00  0.00    -0.092 C  
HETATM   16  C   UNL     1      -9.050   4.418  63.523  1.00  0.00    -0.132 C  
HETATM   17  C   UNL     1      -9.697   4.591  64.896  1.00  0.00    -0.109 C  
HETATM   18  H   UNL     1      -6.230   4.467  66.770  1.00  0.00     0.000 HD 
BRANCH   9  19
HETATM   19  N   UNL     1      -7.346   9.546  65.442  1.00  0.00    -0.096 NA 
HETATM   20  C   UNL     1      -8.021   9.862  64.181  1.00  0.00    -0.150 C  
HETATM   21  C   UNL     1      -6.174  10.416  65.588  1.00  0.00    -0.126 C  
ENDBRANCH   9  19
ENDBRANCH   2   3
TORSDOF 2
ENDMDL
MODEL      175
REMARK 921   NORMALIZED FREE ENERGY PREDICTED BY IDOCK:   -2.25 KCAL/MOL
REMARK 922        TOTAL FREE ENERGY PREDICTED BY IDOCK:   -2.75 KCAL/MOL
REMARK 923 INTER-LIGAND FREE ENERGY PREDICTED BY IDOCK:   -2.83 KCAL/MOL
REMARK 924 INTRA-LIGAND FREE ENERGY PREDICTED BY IDOCK:    0.08 KCAL/MOL
REMARK 927      BINDING AFFINITY PREDICTED BY RF-SCORE:    0.00 PKD
ROOT
HETATM    1  C   UNL     1      -5.142  20.457  71.920  1.00  0.00    -0.329 C  
HETATM    2  O   UNL     1      -5.317  20.800  70.550  1.00  0.00    -0.429 OA 
ENDROOT
BRANCH   2   3
HETATM    3  C   UNL     1      -6.201  20.041  69.836  1.00  0.00    -0.361 A  
HETATM    4  C   UNL     1      -7.112  19.135  70.368  1.00  0.00     0.780 A  
HETATM    5  C   UNL     1      -7.983  18.431  69.529  1.00  0.00     0.479 A  
HETATM    6  C   UNL     1      -7.948  18.586  68.132  1.00  0.00    -0.308 A  
HETATM    7  C   UNL     1      -7.023  19.499  67.610  1.00  0.00    -0.264 A  
HETATM    8  C   UNL     1      -8.913  17.763  67.257  1.00  0.00    -0.246 C  
HETATM    9  C   UNL     1      -9.413  18.531  65.985  1.00  0.00    -0.026 C  
HETATM   10  C   UNL     1      -6.168  20.223  68.453  1.00  0.00    -0.329 A  
HETATM   11  C   UNL     1      -8.346  16.327  66.892  1.00  0.00    -0.232 C  
HETATM   12  O   UNL     1      -7.118  16.470  66.161  1.00  0.00    -0.047 OA 
HETATM   13  C   UNL     1      -8.071  15.436  68.129  1.00  0.00    -0.136 C  
HETATM   14  C   UNL     1      -9.287  15.500  65.980  1.00  0.00    -0.379 C  
HETATM   15  C   UNL     1     -10.603  15.137  66.665  1.00  0.00    -0.304 C  
HETATM   16  C   UNL     1     -10.366  14.366  67.960  1.00  0.00    -0.227 C  
HETATM   17  C   UNL     1      -9.352  15.047  68.876  1.00  0.00    -0.208 C  
HETATM   18  H   UNL     1      -6.778  15.611  65.943  1.00  0.00     0.000 HD 
BRANCH   9  19
HETATM   19  N   UNL     1     -10.087  19.826  66.232  1.00  0.00    -0.458 NA 
HETATM   20  C   UNL     1     -10.817  19.829  67.503  1.00  0.00    -0.274 C  
HETATM   21  C   UNL     1     -11.024  20.119  65.143  1.00  0.00     0.469 C  
ENDBRANCH   9  19
ENDBRANCH   2   3
TORSDOF 2
ENDMDL
MODEL      176
REMARK 921   NORMALIZED FREE ENERGY PREDICTED BY IDOCK:   -2.23 KCAL/MOL
REMARK 922        TOTAL FREE ENERGY PREDICTED BY IDOCK:   -2.73 KCAL/MOL
REMARK 923 INTER-LIGAND FREE ENERGY PREDICTED BY IDOCK:   -2.50 KCAL/MOL
REMARK 924 INTRA-LIGAND FREE ENERGY PREDICTED BY IDOCK:   -0.23 KCAL/MOL
REMARK 927      BINDING AFFINITY PREDICTED BY RF-SCORE:    0.00 PKD
ROOT
HETATM    1  C   UNL     1     -12.635   8.838  71.162  1.00  0.00    -0.168 C  
HETATM    2  O   UNL     1     -11.243   8.791  71.450  1.00  0.00    -0.252 OA 
ENDROOT
BRANCH   2   3
HETATM    3  C   UNL     1     -10.499   7.894  70.735  1.00  0.00    -0.210 A  
HETATM    4  C   UNL     1     -10.999   6.837  69.985  1.00  0.00    -0.344 A  
HETATM    5  C   UNL     1     -10.132   5.998  69.276  1.00  0.00    -0.235 A  
HETATM    6  C   UNL     1      -8.738   6.170  69.322  1.00  0.00    -0.122 A  
HETATM    7  C   UNL     1      -8.247   7.237  70.086  1.00  0.00    -0.134 A  
HETATM    8  C   UNL     1      -7.830   5.198  68.544  1.00  0.00    -0.079 C  
HETATM    9  C   UNL     1      -6.548   5.878  67.953  1.00  0.00    -0.052 C  
HETATM   10  C   UNL     1      -9.119   8.092  70.775  1.00  0.00    -0.159 A  
HETATM   11  C   UNL     1      -7.475   3.888  69.367  1.00  0.00    -0.053 C  
HETATM   12  O   UNL     1      -6.782   4.254  70.570  1.00  0.00    -0.031 OA 
HETATM   13  C   UNL     1      -8.717   3.048  69.759  1.00  0.00    -0.130 C  
HETATM   14  C   UNL     1      -6.532   2.917  68.613  1.00  0.00    -0.029 C  
HETATM   15  C   UNL     1      -7.176   2.321  67.362  1.00  0.00    -0.055 C  
HETATM   16  C   UNL     1      -8.474   1.591  67.696  1.00  0.00    -0.091 C  
HETATM   17  C   UNL     1      -9.423   2.432  68.547  1.00  0.00    -0.209 C  
HETATM   18  H   UNL     1      -6.570   3.470  71.063  1.00  0.00     0.000 HD 
BRANCH   9  19
HETATM   19  N   UNL     1      -6.780   7.031  67.053  1.00  0.00    -0.057 NA 
HETATM   20  C   UNL     1      -7.085   6.604  65.685  1.00  0.00    -0.061 C  
HETATM   21  C   UNL     1      -5.597   7.897  67.031  1.00  0.00    -0.033 C  
ENDBRANCH   9  19
ENDBRANCH   2   3
TORSDOF 2
ENDMDL
MODEL      177
REMARK 921   NORMALIZED FREE ENERGY PREDICTED BY IDOCK:   -2.22 KCAL/MOL
REMARK 922        TOTAL FREE ENERGY PREDICTED BY IDOCK:   -2.72 KCAL/MOL
REMARK 923 INTER-LIGAND FREE ENERGY PREDICTED BY IDOCK:   -3.74 KCAL/MOL
REMARK 924 INTRA-LIGAND FREE ENERGY PREDICTED BY IDOCK:    1.02 KCAL/MOL
REMARK 927      BINDING AFFINITY PREDICTED BY RF-SCORE:    0.00 PKD
ROOT
HETATM    1  C   UNL     1     -10.336   8.847  66.558  1.00  0.00    -0.197 C  
HETATM    2  O   UNL     1     -10.436   7.451  66.814  1.00  0.00    -0.296 OA 
ENDROOT
BRANCH   2   3
HETATM    3  C   UNL     1     -10.091   7.031  68.068  1.00  0.00    -0.169 A  
HETATM    4  C   UNL     1      -8.799   6.949  68.572  1.00  0.00    -0.124 A  
HETATM    5  C   UNL     1      -8.577   6.523  69.886  1.00  0.00    -0.139 A  
HETATM    6  C   UNL     1      -9.636   6.136  70.725  1.00  0.00    -0.191 A  
HETATM    7  C   UNL     1     -10.933   6.219  70.203  1.00  0.00    -0.411 A  
HETATM    8  C   UNL     1      -9.328   5.648  72.155  1.00  0.00    -0.160 C  
HETATM    9  C   UNL     1     -10.420   6.056  73.202  1.00  0.00    -0.230 C  
HETATM   10  C   UNL     1     -11.156   6.671  68.894  1.00  0.00    -0.312 A  
HETATM   11  C   UNL     1      -8.997   4.098  72.222  1.00  0.00    -0.115 C  
HETATM   12  O   UNL     1     -10.125   3.348  71.746  1.00  0.00    -0.158 OA 
HETATM   13  C   UNL     1      -7.757   3.692  71.387  1.00  0.00    -0.056 C  
HETATM   14  C   UNL     1      -8.723   3.583  73.658  1.00  0.00    -0.081 C  
HETATM   15  C   UNL     1      -7.460   4.187  74.270  1.00  0.00    -0.075 C  
HETATM   16  C   UNL     1      -6.233   3.914  73.404  1.00  0.00    -0.020 C  
HETATM   17  C   UNL     1      -6.453   4.278  71.937  1.00  0.00    -0.022 C  
HETATM   18  H   UNL     1      -9.927   2.420  71.786  1.00  0.00     0.000 HD 
BRANCH   9  19
HETATM   19  N   UNL     1     -10.703   7.505  73.315  1.00  0.00    -0.393 NA 
HETATM   20  C   UNL     1     -11.764   7.928  72.398  1.00  0.00    -0.367 C  
HETATM   21  C   UNL     1      -9.488   8.277  73.029  1.00  0.00    -0.228 C  
ENDBRANCH   9  19
ENDBRANCH   2   3
TORSDOF 2
ENDMDL
MODEL      178
REMARK 921   NORMALIZED FREE ENERGY PREDICTED BY IDOCK:   -2.22 KCAL/MOL
REMARK 922        TOTAL FREE ENERGY PREDICTED BY IDOCK:   -2.72 KCAL/MOL
REMARK 923 INTER-LIGAND FREE ENERGY PREDICTED BY IDOCK:   -3.70 KCAL/MOL
REMARK 924 INTRA-LIGAND FREE ENERGY PREDICTED BY IDOCK:    0.98 KCAL/MOL
REMARK 927      BINDING AFFINITY PREDICTED BY RF-SCORE:    0.00 PKD
ROOT
HETATM    1  C   UNL     1     -11.870  15.736  71.961  1.00  0.00    -0.490 C  
HETATM    2  O   UNL     1     -11.896  15.834  70.542  1.00  0.00    -0.330 OA 
ENDROOT
BRANCH   2   3
HETATM    3  C   UNL     1     -10.777  16.341  69.942  1.00  0.00    -0.322 A  
HETATM    4  C   UNL     1     -10.386  17.674  69.942  1.00  0.00     0.582 A  
HETATM    5  C   UNL     1      -9.202  18.066  69.308  1.00  0.00     0.199 A  
HETATM    6  C   UNL     1      -8.389  17.142  68.627  1.00  0.00    -0.257 A  
HETATM    7  C   UNL     1      -8.798  15.802  68.631  1.00  0.00    -0.199 A  
HETATM    8  C   UNL     1      -7.110  17.635  67.923  1.00  0.00    -0.190 C  
HETATM    9  C   UNL     1      -5.933  16.603  67.971  1.00  0.00    -0.124 C  
HETATM   10  C   UNL     1      -9.972  15.407  69.289  1.00  0.00    -0.256 A  
HETATM   11  C   UNL     1      -7.377  18.156  66.448  1.00  0.00    -0.250 C  
HETATM   12  O   UNL     1      -7.919  17.088  65.656  1.00  0.00    -0.318 OA 
HETATM   13  C   UNL     1      -8.357  19.354  66.381  1.00  0.00    -0.342 C  
HETATM   14  C   UNL     1      -6.095  18.620  65.711  1.00  0.00    -0.249 C  
HETATM   15  C   UNL     1      -5.459  19.852  66.353  1.00  0.00    -0.178 C  
HETATM   16  C   UNL     1      -6.442  21.018  66.421  1.00  0.00    -0.303 C  
HETATM   17  C   UNL     1      -7.788  20.623  67.024  1.00  0.00    -0.307 C  
HETATM   18  H   UNL     1      -8.079  17.399  64.773  1.00  0.00     0.000 HD 
BRANCH   9  19
HETATM   19  N   UNL     1      -5.513  16.159  69.320  1.00  0.00    -0.113 NA 
HETATM   20  C   UNL     1      -6.196  14.929  69.728  1.00  0.00    -0.144 C  
HETATM   21  C   UNL     1      -5.793  17.210  70.303  1.00  0.00    -0.108 C  
ENDBRANCH   9  19
ENDBRANCH   2   3
TORSDOF 2
ENDMDL
MODEL      179
REMARK 921   NORMALIZED FREE ENERGY PREDICTED BY IDOCK:   -2.21 KCAL/MOL
REMARK 922        TOTAL FREE ENERGY PREDICTED BY IDOCK:   -2.72 KCAL/MOL
REMARK 923 INTER-LIGAND FREE ENERGY PREDICTED BY IDOCK:   -2.66 KCAL/MOL
REMARK 924 INTRA-LIGAND FREE ENERGY PREDICTED BY IDOCK:   -0.05 KCAL/MOL
REMARK 927      BINDING AFFINITY PREDICTED BY RF-SCORE:    0.00 PKD
ROOT
HETATM    1  C   UNL     1     -10.987   3.990  64.627  1.00  0.00    -0.011 C  
HETATM    2  O   UNL     1      -9.747   3.600  65.206  1.00  0.00    -0.173 OA 
ENDROOT
BRANCH   2   3
HETATM    3  C   UNL     1      -9.478   4.080  66.457  1.00  0.00    -0.194 A  
HETATM    4  C   UNL     1      -8.469   3.632  67.301  1.00  0.00    -0.105 A  
HETATM    5  C   UNL     1      -8.280   4.222  68.556  1.00  0.00    -0.087 A  
HETATM    6  C   UNL     1      -9.115   5.255  69.018  1.00  0.00    -0.141 A  
HETATM    7  C   UNL     1     -10.131   5.694  68.159  1.00  0.00    -0.212 A  
HETATM    8  C   UNL     1      -8.877   5.848  70.421  1.00  0.00    -0.146 C  
HETATM    9  C   UNL     1      -9.177   7.383  70.509  1.00  0.00    -0.157 C  
HETATM   10  C   UNL     1     -10.302   5.119  66.892  1.00  0.00    -0.288 A  
HETATM   11  C   UNL     1      -9.613   5.037  71.569  1.00  0.00    -0.158 C  
HETATM   12  O   UNL     1     -11.028   5.051  71.331  1.00  0.00    -0.028 OA 
HETATM   13  C   UNL     1      -9.154   3.561  71.676  1.00  0.00    -0.173 C  
HETATM   14  C   UNL     1      -9.415   5.642  72.982  1.00  0.00    -0.155 C  
HETATM   15  C   UNL     1      -7.963   5.579  73.453  1.00  0.00    -0.114 C  
HETATM   16  C   UNL     1      -7.436   4.147  73.450  1.00  0.00    -0.076 C  
HETATM   17  C   UNL     1      -7.697   3.424  72.130  1.00  0.00    -0.058 C  
HETATM   18  H   UNL     1     -11.469   4.565  72.018  1.00  0.00     0.000 HD 
BRANCH   9  19
HETATM   19  N   UNL     1      -8.430   8.247  69.567  1.00  0.00    -0.124 NA 
HETATM   20  C   UNL     1      -7.636   9.260  70.267  1.00  0.00    -0.123 C  
HETATM   21  C   UNL     1      -9.361   8.917  68.653  1.00  0.00    -0.140 C  
ENDBRANCH   9  19
ENDBRANCH   2   3
TORSDOF 2
ENDMDL
MODEL      180
REMARK 921   NORMALIZED FREE ENERGY PREDICTED BY IDOCK:   -2.15 KCAL/MOL
REMARK 922        TOTAL FREE ENERGY PREDICTED BY IDOCK:   -2.65 KCAL/MOL
REMARK 923 INTER-LIGAND FREE ENERGY PREDICTED BY IDOCK:   -3.74 KCAL/MOL
REMARK 924 INTRA-LIGAND FREE ENERGY PREDICTED BY IDOCK:    1.09 KCAL/MOL
REMARK 927      BINDING AFFINITY PREDICTED BY RF-SCORE:    0.00 PKD
ROOT
HETATM    1  C   UNL     1      -5.273  16.811  70.651  1.00  0.00    -0.214 C  
HETATM    2  O   UNL     1      -5.578  17.595  69.504  1.00  0.00    -0.190 OA 
ENDROOT
BRANCH   2   3
HETATM    3  C   UNL     1      -6.732  17.286  68.840  1.00  0.00    -0.218 A  
HETATM    4  C   UNL     1      -7.770  16.504  69.332  1.00  0.00    -0.037 A  
HETATM    5  C   UNL     1      -8.915  16.277  68.560  1.00  0.00    -0.219 A  
HETATM    6  C   UNL     1      -9.042  16.798  67.260  1.00  0.00    -0.228 A  
HETATM    7  C   UNL     1      -7.987  17.580  66.775  1.00  0.00    -0.273 A  
HETATM    8  C   UNL     1     -10.314  16.492  66.445  1.00  0.00    -0.316 C  
HETATM    9  C   UNL     1     -10.761  17.673  65.517  1.00  0.00    -0.037 C  
HETATM   10  C   UNL     1      -6.851  17.828  67.560  1.00  0.00    -0.189 A  
HETATM   11  C   UNL     1     -10.226  15.120  65.651  1.00  0.00    -0.361 C  
HETATM   12  O   UNL     1      -9.126  15.173  64.729  1.00  0.00     0.660 OA 
HETATM   13  C   UNL     1     -10.032  13.886  66.567  1.00  0.00    -0.288 C  
HETATM   14  C   UNL     1     -11.481  14.816  64.796  1.00  0.00    -0.410 C  
HETATM   15  C   UNL     1     -12.732  14.592  65.643  1.00  0.00    -0.186 C  
HETATM   16  C   UNL     1     -12.532  13.461  66.649  1.00  0.00    -0.212 C  
HETATM   17  C   UNL     1     -11.247  13.612  67.459  1.00  0.00    -0.316 C  
HETATM   18  H   UNL     1      -9.073  14.352  64.254  1.00  0.00     0.000 HD 
BRANCH   9  19
HETATM   19  N   UNL     1     -11.007  18.969  66.189  1.00  0.00    -0.119 NA 
HETATM   20  C   UNL     1      -9.992  19.967  65.840  1.00  0.00    -0.393 C  
HETATM   21  C   UNL     1     -11.016  18.786  67.644  1.00  0.00    -0.189 C  
ENDBRANCH   9  19
ENDBRANCH   2   3
TORSDOF 2
ENDMDL
MODEL      181
REMARK 921   NORMALIZED FREE ENERGY PREDICTED BY IDOCK:   -2.09 KCAL/MOL
REMARK 922        TOTAL FREE ENERGY PREDICTED BY IDOCK:   -2.58 KCAL/MOL
REMARK 923 INTER-LIGAND FREE ENERGY PREDICTED BY IDOCK:   -2.62 KCAL/MOL
REMARK 924 INTRA-LIGAND FREE ENERGY PREDICTED BY IDOCK:    0.04 KCAL/MOL
REMARK 927      BINDING AFFINITY PREDICTED BY RF-SCORE:    0.00 PKD
ROOT
HETATM    1  C   UNL     1      -6.953   8.839  62.463  1.00  0.00    -0.093 C  
HETATM    2  O   UNL     1      -7.888   9.233  63.460  1.00  0.00    -0.117 OA 
ENDROOT
BRANCH   2   3
HETATM    3  C   UNL     1      -7.964   8.446  64.575  1.00  0.00    -0.146 A  
HETATM    4  C   UNL     1      -7.489   7.145  64.687  1.00  0.00    -0.098 A  
HETATM    5  C   UNL     1      -7.607   6.449  65.894  1.00  0.00    -0.084 A  
HETATM    6  C   UNL     1      -8.233   7.019  67.017  1.00  0.00    -0.117 A  
HETATM    7  C   UNL     1      -8.711   8.330  66.889  1.00  0.00    -0.141 A  
HETATM    8  C   UNL     1      -8.360   6.194  68.312  1.00  0.00    -0.114 C  
HETATM    9  C   UNL     1      -8.237   7.055  69.616  1.00  0.00    -0.131 C  
HETATM   10  C   UNL     1      -8.569   9.036  65.685  1.00  0.00    -0.187 A  
HETATM   11  C   UNL     1      -9.651   5.271  68.335  1.00  0.00    -0.134 C  
HETATM   12  O   UNL     1     -10.824   6.091  68.231  1.00  0.00    -0.275 OA 
HETATM   13  C   UNL     1      -9.686   4.227  67.191  1.00  0.00    -0.232 C  
HETATM   14  C   UNL     1      -9.813   4.463  69.647  1.00  0.00    -0.272 C  
HETATM   15  C   UNL     1      -8.704   3.432  69.847  1.00  0.00    -0.131 C  
HETATM   16  C   UNL     1      -8.626   2.460  68.673  1.00  0.00    -0.109 C  
HETATM   17  C   UNL     1      -8.586   3.168  67.321  1.00  0.00    -0.123 C  
HETATM   18  H   UNL     1     -11.597   5.539  68.244  1.00  0.00     0.000 HD 
BRANCH   9  19
HETATM   19  N   UNL     1      -6.995   7.849  69.755  1.00  0.00    -0.049 NA 
HETATM   20  C   UNL     1      -5.841   7.165  69.168  1.00  0.00    -0.019 C  
HETATM   21  C   UNL     1      -6.725   8.112  71.173  1.00  0.00    -0.044 C  
ENDBRANCH   9  19
ENDBRANCH   2   3
TORSDOF 2
ENDMDL
MODEL      182
REMARK 921   NORMALIZED FREE ENERGY PREDICTED BY IDOCK:   -2.07 KCAL/MOL
REMARK 922        TOTAL FREE ENERGY PREDICTED BY IDOCK:   -2.55 KCAL/MOL
REMARK 923 INTER-LIGAND FREE ENERGY PREDICTED BY IDOCK:   -2.32 KCAL/MOL
REMARK 924 INTRA-LIGAND FREE ENERGY PREDICTED BY IDOCK:   -0.23 KCAL/MOL
REMARK 927      BINDING AFFINITY PREDICTED BY RF-SCORE:    0.00 PKD
ROOT
HETATM    1  C   UNL     1      -5.743   6.022  62.668  1.00  0.00    -0.022 C  
HETATM    2  O   UNL     1      -6.727   7.042  62.795  1.00  0.00    -0.050 OA 
ENDROOT
BRANCH   2   3
HETATM    3  C   UNL     1      -7.022   7.454  64.065  1.00  0.00    -0.058 A  
HETATM    4  C   UNL     1      -6.858   6.703  65.223  1.00  0.00    -0.054 A  
HETATM    5  C   UNL     1      -7.178   7.248  66.472  1.00  0.00    -0.079 A  
HETATM    6  C   UNL     1      -7.702   8.546  66.598  1.00  0.00    -0.090 A  
HETATM    7  C   UNL     1      -7.867   9.290  65.422  1.00  0.00    -0.100 A  
HETATM    8  C   UNL     1      -8.063   9.083  67.997  1.00  0.00    -0.105 C  
HETATM    9  C   UNL     1      -7.800  10.619  68.164  1.00  0.00    -0.110 C  
HETATM   10  C   UNL     1      -7.522   8.752  64.174  1.00  0.00    -0.109 A  
HETATM   11  C   UNL     1      -9.529   8.683  68.455  1.00  0.00    -0.138 C  
HETATM   12  O   UNL     1     -10.482   9.224  67.528  1.00  0.00    -0.245 OA 
HETATM   13  C   UNL     1      -9.754   7.153  68.544  1.00  0.00    -0.143 C  
HETATM   14  C   UNL     1      -9.921   9.247  69.844  1.00  0.00    -0.226 C  
HETATM   15  C   UNL     1      -9.082   8.660  70.978  1.00  0.00    -0.248 C  
HETATM   16  C   UNL     1      -9.180   7.138  71.016  1.00  0.00    -0.158 C  
HETATM   17  C   UNL     1      -8.927   6.495  69.654  1.00  0.00    -0.141 C  
HETATM   18  H   UNL     1     -11.360   8.984  67.802  1.00  0.00     0.000 HD 
BRANCH   9  19
HETATM   19  N   UNL     1      -6.418  11.075  67.894  1.00  0.00    -0.061 NA 
HETATM   20  C   UNL     1      -5.616  11.143  69.118  1.00  0.00    -0.040 C  
HETATM   21  C   UNL     1      -6.440  12.399  67.263  1.00  0.00    -0.140 C  
ENDBRANCH   9  19
ENDBRANCH   2   3
TORSDOF 2
ENDMDL
MODEL      183
REMARK 921   NORMALIZED FREE ENERGY PREDICTED BY IDOCK:   -2.02 KCAL/MOL
REMARK 922        TOTAL FREE ENERGY PREDICTED BY IDOCK:   -2.50 KCAL/MOL
REMARK 923 INTER-LIGAND FREE ENERGY PREDICTED BY IDOCK:   -2.33 KCAL/MOL
REMARK 924 INTRA-LIGAND FREE ENERGY PREDICTED BY IDOCK:   -0.18 KCAL/MOL
REMARK 927      BINDING AFFINITY PREDICTED BY RF-SCORE:    0.00 PKD
ROOT
HETATM    1  C   UNL     1     -12.569  11.317  71.053  1.00  0.00    -0.394 C  
HETATM    2  O   UNL     1     -12.771  12.142  69.912  1.00  0.00     0.142 OA 
ENDROOT
BRANCH   2   3
HETATM    3  C   UNL     1     -11.753  12.994  69.585  1.00  0.00    -0.297 A  
HETATM    4  C   UNL     1     -10.834  12.809  68.559  1.00  0.00    -0.279 A  
HETATM    5  C   UNL     1      -9.848  13.769  68.309  1.00  0.00    -0.232 A  
HETATM    6  C   UNL     1      -9.730  14.928  69.096  1.00  0.00    -0.184 A  
HETATM    7  C   UNL     1     -10.660  15.100  70.130  1.00  0.00    -0.227 A  
HETATM    8  C   UNL     1      -8.606  15.938  68.791  1.00  0.00    -0.212 C  
HETATM    9  C   UNL     1      -9.019  17.428  69.045  1.00  0.00    -0.062 C  
HETATM   10  C   UNL     1     -11.663  14.149  70.363  1.00  0.00    -0.312 A  
HETATM   11  C   UNL     1      -7.237  15.575  69.508  1.00  0.00    -0.201 C  
HETATM   12  O   UNL     1      -7.431  15.565  70.930  1.00  0.00     1.103 OA 
HETATM   13  C   UNL     1      -6.662  14.199  69.087  1.00  0.00    -0.118 C  
HETATM   14  C   UNL     1      -6.107  16.601  69.243  1.00  0.00    -0.182 C  
HETATM   15  C   UNL     1      -5.677  16.640  67.777  1.00  0.00    -0.152 C  
HETATM   16  C   UNL     1      -5.223  15.266  67.291  1.00  0.00     0.376 C  
HETATM   17  C   UNL     1      -6.225  14.162  67.619  1.00  0.00    -0.102 C  
HETATM   18  H   UNL     1      -6.612  15.348  71.360  1.00  0.00     0.000 HD 
BRANCH   9  19
HETATM   19  N   UNL     1     -10.210  17.906  68.308  1.00  0.00    -0.368 NA 
HETATM   20  C   UNL     1     -10.087  17.681  66.866  1.00  0.00    -0.331 C  
HETATM   21  C   UNL     1     -10.410  19.338  68.553  1.00  0.00    -0.294 C  
ENDBRANCH   9  19
ENDBRANCH   2   3
TORSDOF 2
ENDMDL
MODEL      184
REMARK 921   NORMALIZED FREE ENERGY PREDICTED BY IDOCK:   -1.98 KCAL/MOL
REMARK 922        TOTAL FREE ENERGY PREDICTED BY IDOCK:   -2.46 KCAL/MOL
REMARK 923 INTER-LIGAND FREE ENERGY PREDICTED BY IDOCK:   -2.22 KCAL/MOL
REMARK 924 INTRA-LIGAND FREE ENERGY PREDICTED BY IDOCK:   -0.24 KCAL/MOL
REMARK 927      BINDING AFFINITY PREDICTED BY RF-SCORE:    0.00 PKD
ROOT
HETATM    1  C   UNL     1      -8.843   5.378  65.516  1.00  0.00    -0.152 C  
HETATM    2  O   UNL     1      -8.810   6.635  66.182  1.00  0.00    -0.147 OA 
ENDROOT
BRANCH   2   3
HETATM    3  C   UNL     1      -8.582   6.608  67.529  1.00  0.00    -0.120 A  
HETATM    4  C   UNL     1      -8.443   7.718  68.354  1.00  0.00    -0.125 A  
HETATM    5  C   UNL     1      -8.233   7.559  69.728  1.00  0.00    -0.128 A  
HETATM    6  C   UNL     1      -8.125   6.286  70.314  1.00  0.00    -0.116 A  
HETATM    7  C   UNL     1      -8.263   5.175  69.471  1.00  0.00    -0.093 A  
HETATM    8  C   UNL     1      -7.866   6.171  71.830  1.00  0.00    -0.102 C  
HETATM    9  C   UNL     1      -8.576   4.942  72.494  1.00  0.00    -0.120 C  
HETATM   10  C   UNL     1      -8.498   5.337  68.098  1.00  0.00    -0.096 A  
HETATM   11  C   UNL     1      -6.324   6.233  72.201  1.00  0.00    -0.050 C  
HETATM   12  O   UNL     1      -5.637   5.145  71.564  1.00  0.00    -0.005 OA 
HETATM   13  C   UNL     1      -5.637   7.555  71.777  1.00  0.00    -0.036 C  
HETATM   14  C   UNL     1      -6.044   6.081  73.717  1.00  0.00    -0.063 C  
HETATM   15  C   UNL     1      -6.597   7.244  74.539  1.00  0.00    -0.086 C  
HETATM   16  C   UNL     1      -6.036   8.582  74.063  1.00  0.00    -0.139 C  
HETATM   17  C   UNL     1      -6.158   8.770  72.553  1.00  0.00    -0.065 C  
HETATM   18  H   UNL     1      -4.714   5.182  71.786  1.00  0.00     0.000 HD 
BRANCH   9  19
HETATM   19  N   UNL     1     -10.044   4.869  72.322  1.00  0.00    -0.185 NA 
HETATM   20  C   UNL     1     -10.737   5.905  73.094  1.00  0.00    -0.261 C  
HETATM   21  C   UNL     1     -10.534   3.552  72.743  1.00  0.00    -0.133 C  
ENDBRANCH   9  19
ENDBRANCH   2   3
TORSDOF 2
ENDMDL
MODEL      185
REMARK 921   NORMALIZED FREE ENERGY PREDICTED BY IDOCK:   -1.98 KCAL/MOL
REMARK 922        TOTAL FREE ENERGY PREDICTED BY IDOCK:   -2.45 KCAL/MOL
REMARK 923 INTER-LIGAND FREE ENERGY PREDICTED BY IDOCK:   -2.23 KCAL/MOL
REMARK 924 INTRA-LIGAND FREE ENERGY PREDICTED BY IDOCK:   -0.22 KCAL/MOL
REMARK 927      BINDING AFFINITY PREDICTED BY RF-SCORE:    0.00 PKD
ROOT
HETATM    1  C   UNL     1     -10.203  11.188  63.324  1.00  0.00    -0.350 C  
HETATM    2  O   UNL     1      -9.073  11.229  64.187  1.00  0.00    -0.104 OA 
ENDROOT
BRANCH   2   3
HETATM    3  C   UNL     1      -8.820  10.103  64.919  1.00  0.00    -0.190 A  
HETATM    4  C   UNL     1      -8.961   9.977  66.296  1.00  0.00    -0.170 A  
HETATM    5  C   UNL     1      -8.690   8.759  66.928  1.00  0.00    -0.136 A  
HETATM    6  C   UNL     1      -8.238   7.639  66.208  1.00  0.00    -0.120 A  
HETATM    7  C   UNL     1      -8.095   7.781  64.822  1.00  0.00    -0.131 A  
HETATM    8  C   UNL     1      -7.929   6.330  66.962  1.00  0.00    -0.109 C  
HETATM    9  C   UNL     1      -8.275   5.040  66.143  1.00  0.00    -0.109 C  
HETATM   10  C   UNL     1      -8.392   8.995  64.186  1.00  0.00    -0.178 A  
HETATM   11  C   UNL     1      -6.451   6.283  67.538  1.00  0.00    -0.046 C  
HETATM   12  O   UNL     1      -5.513   6.388  66.456  1.00  0.00    -0.012 OA 
HETATM   13  C   UNL     1      -6.145   7.411  68.555  1.00  0.00    -0.028 C  
HETATM   14  C   UNL     1      -6.110   4.958  68.266  1.00  0.00    -0.030 C  
HETATM   15  C   UNL     1      -6.934   4.754  69.537  1.00  0.00    -0.053 C  
HETATM   16  C   UNL     1      -6.756   5.915  70.511  1.00  0.00    -0.052 C  
HETATM   17  C   UNL     1      -6.952   7.277  69.850  1.00  0.00    -0.057 C  
HETATM   18  H   UNL     1      -4.629   6.359  66.800  1.00  0.00     0.000 HD 
BRANCH   9  19
HETATM   19  N   UNL     1      -9.676   4.923  65.678  1.00  0.00    -0.163 NA 
HETATM   20  C   UNL     1     -10.616   4.814  66.796  1.00  0.00    -0.001 C  
HETATM   21  C   UNL     1      -9.821   3.747  64.814  1.00  0.00    -0.191 C  
ENDBRANCH   9  19
ENDBRANCH   2   3
TORSDOF 2
ENDMDL
MODEL      186
REMARK 921   NORMALIZED FREE ENERGY PREDICTED BY IDOCK:   -1.94 KCAL/MOL
REMARK 922        TOTAL FREE ENERGY PREDICTED BY IDOCK:   -2.41 KCAL/MOL
REMARK 923 INTER-LIGAND FREE ENERGY PREDICTED BY IDOCK:   -2.20 KCAL/MOL
REMARK 924 INTRA-LIGAND FREE ENERGY PREDICTED BY IDOCK:   -0.22 KCAL/MOL
REMARK 927      BINDING AFFINITY PREDICTED BY RF-SCORE:    0.00 PKD
ROOT
HETATM    1  C   UNL     1      -5.384  11.863  68.738  1.00  0.00    -0.049 C  
HETATM    2  O   UNL     1      -5.968  11.060  67.719  1.00  0.00    -0.046 OA 
ENDROOT
BRANCH   2   3
HETATM    3  C   UNL     1      -6.582   9.908  68.125  1.00  0.00    -0.056 A  
HETATM    4  C   UNL     1      -7.754   9.827  68.868  1.00  0.00    -0.082 A  
HETATM    5  C   UNL     1      -8.296   8.582  69.203  1.00  0.00    -0.120 A  
HETATM    6  C   UNL     1      -7.668   7.380  68.833  1.00  0.00    -0.115 A  
HETATM    7  C   UNL     1      -6.486   7.476  68.088  1.00  0.00    -0.049 A  
HETATM    8  C   UNL     1      -8.298   6.037  69.254  1.00  0.00    -0.115 C  
HETATM    9  C   UNL     1      -8.110   4.900  68.193  1.00  0.00    -0.086 C  
HETATM   10  C   UNL     1      -5.956   8.724  67.731  1.00  0.00    -0.047 A  
HETATM   11  C   UNL     1      -7.849   5.571  70.703  1.00  0.00    -0.095 C  
HETATM   12  O   UNL     1      -6.424   5.405  70.731  1.00  0.00    -0.032 OA 
HETATM   13  C   UNL     1      -8.243   6.566  71.824  1.00  0.00    -0.112 C  
HETATM   14  C   UNL     1      -8.443   4.204  71.127  1.00  0.00    -0.103 C  
HETATM   15  C   UNL     1      -9.963   4.243  71.281  1.00  0.00    -0.230 C  
HETATM   16  C   UNL     1     -10.396   5.305  72.288  1.00  0.00    -0.265 C  
HETATM   17  C   UNL     1      -9.760   6.667  72.021  1.00  0.00    -0.156 C  
HETATM   18  H   UNL     1      -6.155   5.126  71.598  1.00  0.00     0.000 HD 
BRANCH   9  19
HETATM   19  N   UNL     1      -8.627   5.187  66.835  1.00  0.00    -0.106 NA 
HETATM   20  C   UNL     1     -10.091   5.231  66.806  1.00  0.00    -0.224 C  
HETATM   21  C   UNL     1      -8.161   4.162  65.894  1.00  0.00    -0.109 C  
ENDBRANCH   9  19
ENDBRANCH   2   3
TORSDOF 2
ENDMDL
MODEL      187
REMARK 921   NORMALIZED FREE ENERGY PREDICTED BY IDOCK:   -1.93 KCAL/MOL
REMARK 922        TOTAL FREE ENERGY PREDICTED BY IDOCK:   -2.40 KCAL/MOL
REMARK 923 INTER-LIGAND FREE ENERGY PREDICTED BY IDOCK:   -3.51 KCAL/MOL
REMARK 924 INTRA-LIGAND FREE ENERGY PREDICTED BY IDOCK:    1.11 KCAL/MOL
REMARK 927      BINDING AFFINITY PREDICTED BY RF-SCORE:    0.00 PKD
ROOT
HETATM    1  C   UNL     1     -12.289  12.510  64.339  1.00  0.00    -0.455 C  
HETATM    2  O   UNL     1     -10.936  12.349  63.929  1.00  0.00    -0.346 OA 
ENDROOT
BRANCH   2   3
HETATM    3  C   UNL     1     -10.192  11.434  64.621  1.00  0.00    -0.294 A  
HETATM    4  C   UNL     1      -9.681  10.247  64.111  1.00  0.00    -0.357 A  
HETATM    5  C   UNL     1      -8.912   9.402  64.918  1.00  0.00    -0.256 A  
HETATM    6  C   UNL     1      -8.658   9.701  66.268  1.00  0.00    -0.137 A  
HETATM    7  C   UNL     1      -9.183  10.898  66.771  1.00  0.00    -0.174 A  
HETATM    8  C   UNL     1      -7.827   8.718  67.116  1.00  0.00    -0.096 C  
HETATM    9  C   UNL     1      -6.918   9.424  68.179  1.00  0.00    -0.075 C  
HETATM   10  C   UNL     1      -9.932  11.757  65.954  1.00  0.00    -0.266 A  
HETATM   11  C   UNL     1      -8.704   7.565  67.764  1.00  0.00    -0.123 C  
HETATM   12  O   UNL     1      -9.695   8.146  68.625  1.00  0.00    -0.148 OA 
HETATM   13  C   UNL     1      -9.429   6.678  66.721  1.00  0.00    -0.194 C  
HETATM   14  C   UNL     1      -7.891   6.589  68.651  1.00  0.00    -0.110 C  
HETATM   15  C   UNL     1      -6.870   5.778  67.855  1.00  0.00    -0.060 C  
HETATM   16  C   UNL     1      -7.537   4.987  66.733  1.00  0.00    -0.088 C  
HETATM   17  C   UNL     1      -8.461   5.846  65.873  1.00  0.00    -0.141 C  
HETATM   18  H   UNL     1     -10.220   7.456  69.013  1.00  0.00     0.000 HD 
BRANCH   9  19
HETATM   19  N   UNL     1      -5.960  10.423  67.654  1.00  0.00    -0.048 NA 
HETATM   20  C   UNL     1      -6.576  11.743  67.500  1.00  0.00    -0.097 C  
HETATM   21  C   UNL     1      -5.439   9.983  66.355  1.00  0.00    -0.045 C  
ENDBRANCH   9  19
ENDBRANCH   2   3
TORSDOF 2
ENDMDL
MODEL      188
REMARK 921   NORMALIZED FREE ENERGY PREDICTED BY IDOCK:   -1.88 KCAL/MOL
REMARK 922        TOTAL FREE ENERGY PREDICTED BY IDOCK:   -2.35 KCAL/MOL
REMARK 923 INTER-LIGAND FREE ENERGY PREDICTED BY IDOCK:   -2.27 KCAL/MOL
REMARK 924 INTRA-LIGAND FREE ENERGY PREDICTED BY IDOCK:   -0.08 KCAL/MOL
REMARK 927      BINDING AFFINITY PREDICTED BY RF-SCORE:    0.00 PKD
ROOT
HETATM    1  C   UNL     1      -8.594   5.965  74.142  1.00  0.00    -0.119 C  
HETATM    2  O   UNL     1      -8.317   5.240  72.950  1.00  0.00    -0.112 OA 
ENDROOT
BRANCH   2   3
HETATM    3  C   UNL     1      -8.175   5.974  71.806  1.00  0.00    -0.118 A  
HETATM    4  C   UNL     1      -7.084   6.769  71.478  1.00  0.00    -0.079 A  
HETATM    5  C   UNL     1      -7.049   7.457  70.260  1.00  0.00    -0.064 A  
HETATM    6  C   UNL     1      -8.116   7.397  69.348  1.00  0.00    -0.129 A  
HETATM    7  C   UNL     1      -9.212   6.595  69.692  1.00  0.00    -0.145 A  
HETATM    8  C   UNL     1      -8.034   8.198  68.033  1.00  0.00    -0.127 C  
HETATM    9  C   UNL     1      -8.714   7.479  66.819  1.00  0.00    -0.133 C  
HETATM   10  C   UNL     1      -9.235   5.886  70.902  1.00  0.00    -0.167 A  
HETATM   11  C   UNL     1      -8.538   9.695  68.189  1.00  0.00    -0.119 C  
HETATM   12  O   UNL     1      -9.911   9.695  68.607  1.00  0.00    -0.157 OA 
HETATM   13  C   UNL     1      -7.720  10.521  69.213  1.00  0.00    -0.144 C  
HETATM   14  C   UNL     1      -8.497  10.504  66.868  1.00  0.00    -0.125 C  
HETATM   15  C   UNL     1      -7.076  10.718  66.350  1.00  0.00    -0.134 C  
HETATM   16  C   UNL     1      -6.203  11.419  67.387  1.00  0.00    -0.078 C  
HETATM   17  C   UNL     1      -6.275  10.761  68.763  1.00  0.00    -0.040 C  
HETATM   18  H   UNL     1     -10.213  10.591  68.700  1.00  0.00     0.000 HD 
BRANCH   9  19
HETATM   19  N   UNL     1      -8.211   6.122  66.504  1.00  0.00    -0.109 NA 
HETATM   20  C   UNL     1      -6.749   6.050  66.576  1.00  0.00    -0.060 C  
HETATM   21  C   UNL     1      -8.643   5.727  65.159  1.00  0.00    -0.109 C  
ENDBRANCH   9  19
ENDBRANCH   2   3
TORSDOF 2
ENDMDL
MODEL      189
REMARK 921   NORMALIZED FREE ENERGY PREDICTED BY IDOCK:   -1.83 KCAL/MOL
REMARK 922        TOTAL FREE ENERGY PREDICTED BY IDOCK:   -2.29 KCAL/MOL
REMARK 923 INTER-LIGAND FREE ENERGY PREDICTED BY IDOCK:   -2.05 KCAL/MOL
REMARK 924 INTRA-LIGAND FREE ENERGY PREDICTED BY IDOCK:   -0.24 KCAL/MOL
REMARK 927      BINDING AFFINITY PREDICTED BY RF-SCORE:    0.00 PKD
ROOT
HETATM    1  C   UNL     1      -8.869  10.271  68.298  1.00  0.00    -0.126 C  
HETATM    2  O   UNL     1      -9.901   9.360  68.657  1.00  0.00    -0.156 OA 
ENDROOT
BRANCH   2   3
HETATM    3  C   UNL     1      -9.506   8.169  69.200  1.00  0.00    -0.155 A  
HETATM    4  C   UNL     1     -10.331   7.252  69.840  1.00  0.00    -0.226 A  
HETATM    5  C   UNL     1      -9.808   6.054  70.337  1.00  0.00    -0.222 A  
HETATM    6  C   UNL     1      -8.438   5.750  70.238  1.00  0.00    -0.128 A  
HETATM    7  C   UNL     1      -7.617   6.685  69.595  1.00  0.00    -0.098 A  
HETATM    8  C   UNL     1      -7.914   4.426  70.829  1.00  0.00    -0.064 C  
HETATM    9  C   UNL     1      -6.742   3.794  70.002  1.00  0.00    -0.034 C  
HETATM   10  C   UNL     1      -8.148   7.874  69.075  1.00  0.00    -0.124 A  
HETATM   11  C   UNL     1      -7.554   4.536  72.371  1.00  0.00    -0.084 C  
HETATM   12  O   UNL     1      -6.529   5.524  72.553  1.00  0.00    -0.055 OA 
HETATM   13  C   UNL     1      -8.762   4.920  73.262  1.00  0.00    -0.104 C  
HETATM   14  C   UNL     1      -6.989   3.224  72.971  1.00  0.00    -0.039 C  
HETATM   15  C   UNL     1      -8.013   2.090  72.981  1.00  0.00    -0.049 C  
HETATM   16  C   UNL     1      -9.274   2.482  73.747  1.00  0.00    -0.090 C  
HETATM   17  C   UNL     1      -9.839   3.830  73.305  1.00  0.00    -0.170 C  
HETATM   18  H   UNL     1      -6.314   5.590  73.475  1.00  0.00     0.000 HD 
BRANCH   9  19
HETATM   19  N   UNL     1      -7.027   3.522  68.575  1.00  0.00    -0.049 NA 
HETATM   20  C   UNL     1      -7.857   2.326  68.402  1.00  0.00    -0.053 C  
HETATM   21  C   UNL     1      -5.772   3.342  67.838  1.00  0.00    -0.022 C  
ENDBRANCH   9  19
ENDBRANCH   2   3
TORSDOF 2
ENDMDL
MODEL      190
REMARK 921   NORMALIZED FREE ENERGY PREDICTED BY IDOCK:   -1.81 KCAL/MOL
REMARK 922        TOTAL FREE ENERGY PREDICTED BY IDOCK:   -2.27 KCAL/MOL
REMARK 923 INTER-LIGAND FREE ENERGY PREDICTED BY IDOCK:   -3.22 KCAL/MOL
REMARK 924 INTRA-LIGAND FREE ENERGY PREDICTED BY IDOCK:    0.95 KCAL/MOL
REMARK 927      BINDING AFFINITY PREDICTED BY RF-SCORE:    0.00 PKD
ROOT
HETATM    1  C   UNL     1     -12.243   7.434  72.392  1.00  0.00    -0.096 C  
HETATM    2  O   UNL     1     -12.103   6.602  71.246  1.00  0.00    -0.348 OA 
ENDROOT
BRANCH   2   3
HETATM    3  C   UNL     1     -11.171   6.984  70.322  1.00  0.00    -0.298 A  
HETATM    4  C   UNL     1     -10.885   8.291  69.946  1.00  0.00    -0.213 A  
HETATM    5  C   UNL     1      -9.888   8.554  69.000  1.00  0.00    -0.184 A  
HETATM    6  C   UNL     1      -9.170   7.518  68.377  1.00  0.00    -0.139 A  
HETATM    7  C   UNL     1      -9.472   6.206  68.762  1.00  0.00    -0.128 A  
HETATM    8  C   UNL     1      -8.103   7.867  67.321  1.00  0.00    -0.118 C  
HETATM    9  C   UNL     1      -6.870   6.900  67.336  1.00  0.00    -0.076 C  
HETATM   10  C   UNL     1     -10.454   5.944  69.728  1.00  0.00    -0.340 A  
HETATM   11  C   UNL     1      -8.705   8.032  65.862  1.00  0.00    -0.157 C  
HETATM   12  O   UNL     1      -9.322   6.799  65.460  1.00  0.00    -0.367 OA 
HETATM   13  C   UNL     1      -9.760   9.160  65.751  1.00  0.00    -0.299 C  
HETATM   14  C   UNL     1      -7.639   8.345  64.782  1.00  0.00    -0.102 C  
HETATM   15  C   UNL     1      -6.974   9.705  64.987  1.00  0.00    -0.111 C  
HETATM   16  C   UNL     1      -8.002  10.833  65.010  1.00  0.00     0.075 C  
HETATM   17  C   UNL     1      -9.162  10.555  65.963  1.00  0.00    -0.205 C  
HETATM   18  H   UNL     1      -9.682   6.897  64.586  1.00  0.00     0.000 HD 
BRANCH   9  19
HETATM   19  N   UNL     1      -6.150   6.785  68.625  1.00  0.00    -0.025 NA 
HETATM   20  C   UNL     1      -6.564   5.599  69.379  1.00  0.00    -0.054 C  
HETATM   21  C   UNL     1      -6.391   7.979  69.442  1.00  0.00    -0.035 C  
ENDBRANCH   9  19
ENDBRANCH   2   3
TORSDOF 2
ENDMDL
MODEL      191
REMARK 921   NORMALIZED FREE ENERGY PREDICTED BY IDOCK:   -1.74 KCAL/MOL
REMARK 922        TOTAL FREE ENERGY PREDICTED BY IDOCK:   -2.19 KCAL/MOL
REMARK 923 INTER-LIGAND FREE ENERGY PREDICTED BY IDOCK:   -1.98 KCAL/MOL
REMARK 924 INTRA-LIGAND FREE ENERGY PREDICTED BY IDOCK:   -0.21 KCAL/MOL
REMARK 927      BINDING AFFINITY PREDICTED BY RF-SCORE:    0.00 PKD
ROOT
HETATM    1  C   UNL     1      -5.951  12.686  70.218  1.00  0.00    -0.122 C  
HETATM    2  O   UNL     1      -5.231  11.478  70.007  1.00  0.00    -0.066 OA 
ENDROOT
BRANCH   2   3
HETATM    3  C   UNL     1      -5.820  10.328  70.453  1.00  0.00    -0.087 A  
HETATM    4  C   UNL     1      -5.486   9.639  71.614  1.00  0.00    -0.072 A  
HETATM    5  C   UNL     1      -6.182   8.480  71.975  1.00  0.00    -0.069 A  
HETATM    6  C   UNL     1      -7.209   7.956  71.171  1.00  0.00    -0.058 A  
HETATM    7  C   UNL     1      -7.532   8.657  70.002  1.00  0.00    -0.056 A  
HETATM    8  C   UNL     1      -7.922   6.660  71.605  1.00  0.00    -0.103 C  
HETATM    9  C   UNL     1      -9.444   6.630  71.235  1.00  0.00    -0.162 C  
HETATM   10  C   UNL     1      -6.851   9.833  69.654  1.00  0.00    -0.072 A  
HETATM   11  C   UNL     1      -7.171   5.348  71.120  1.00  0.00    -0.078 C  
HETATM   12  O   UNL     1      -7.102   5.341  69.686  1.00  0.00    -0.056 OA 
HETATM   13  C   UNL     1      -5.731   5.217  71.675  1.00  0.00    -0.016 C  
HETATM   14  C   UNL     1      -7.895   4.037  71.516  1.00  0.00    -0.065 C  
HETATM   15  C   UNL     1      -7.935   3.817  73.027  1.00  0.00    -0.079 C  
HETATM   16  C   UNL     1      -6.533   3.810  73.629  1.00  0.00    -0.033 C  
HETATM   17  C   UNL     1      -5.697   5.011  73.193  1.00  0.00    -0.021 C  
HETATM   18  H   UNL     1      -6.653   4.557  69.395  1.00  0.00     0.000 HD 
BRANCH   9  19
HETATM   19  N   UNL     1     -10.263   7.744  71.763  1.00  0.00    -0.187 NA 
HETATM   20  C   UNL     1     -10.210   7.816  73.225  1.00  0.00    -0.303 C  
HETATM   21  C   UNL     1     -11.659   7.584  71.343  1.00  0.00    -0.275 C  
ENDBRANCH   9  19
ENDBRANCH   2   3
TORSDOF 2
ENDMDL
MODEL      192
REMARK 921   NORMALIZED FREE ENERGY PREDICTED BY IDOCK:   -1.72 KCAL/MOL
REMARK 922        TOTAL FREE ENERGY PREDICTED BY IDOCK:   -2.16 KCAL/MOL
REMARK 923 INTER-LIGAND FREE ENERGY PREDICTED BY IDOCK:   -1.97 KCAL/MOL
REMARK 924 INTRA-LIGAND FREE ENERGY PREDICTED BY IDOCK:   -0.19 KCAL/MOL
REMARK 927      BINDING AFFINITY PREDICTED BY RF-SCORE:    0.00 PKD
ROOT
HETATM    1  C   UNL     1      -5.676  13.382  70.526  1.00  0.00    -0.175 C  
HETATM    2  O   UNL     1      -5.811  12.430  69.477  1.00  0.00    -0.083 OA 
ENDROOT
BRANCH   2   3
HETATM    3  C   UNL     1      -6.254  11.186  69.833  1.00  0.00    -0.133 A  
HETATM    4  C   UNL     1      -7.582  10.783  69.899  1.00  0.00     0.128 A  
HETATM    5  C   UNL     1      -7.908   9.470  70.257  1.00  0.00    -0.180 A  
HETATM    6  C   UNL     1      -6.917   8.530  70.590  1.00  0.00    -0.043 A  
HETATM    7  C   UNL     1      -5.583   8.951  70.524  1.00  0.00    -0.027 A  
HETATM    8  C   UNL     1      -7.336   7.105  71.004  1.00  0.00    -0.075 C  
HETATM    9  C   UNL     1      -6.334   5.997  70.533  1.00  0.00    -0.036 C  
HETATM   10  C   UNL     1      -5.257  10.260  70.141  1.00  0.00    -0.040 A  
HETATM   11  C   UNL     1      -7.665   6.982  72.552  1.00  0.00    -0.093 C  
HETATM   12  O   UNL     1      -6.500   7.326  73.316  1.00  0.00    -0.063 OA 
HETATM   13  C   UNL     1      -8.832   7.891  73.012  1.00  0.00    -0.277 C  
HETATM   14  C   UNL     1      -8.051   5.547  72.992  1.00  0.00    -0.111 C  
HETATM   15  C   UNL     1      -9.362   5.071  72.368  1.00  0.00    -0.157 C  
HETATM   16  C   UNL     1     -10.514   6.017  72.696  1.00  0.00    -0.233 C  
HETATM   17  C   UNL     1     -10.179   7.478  72.408  1.00  0.00    -0.261 C  
HETATM   18  H   UNL     1      -6.696   7.252  74.243  1.00  0.00     0.000 HD 
BRANCH   9  19
HETATM   19  N   UNL     1      -6.067   5.940  69.077  1.00  0.00    -0.030 NA 
HETATM   20  C   UNL     1      -7.296   5.742  68.304  1.00  0.00    -0.080 C  
HETATM   21  C   UNL     1      -5.135   4.847  68.781  1.00  0.00     0.000 C  
ENDBRANCH   9  19
ENDBRANCH   2   3
TORSDOF 2
ENDMDL
MODEL      193
REMARK 921   NORMALIZED FREE ENERGY PREDICTED BY IDOCK:   -1.70 KCAL/MOL
REMARK 922        TOTAL FREE ENERGY PREDICTED BY IDOCK:   -2.14 KCAL/MOL
REMARK 923 INTER-LIGAND FREE ENERGY PREDICTED BY IDOCK:   -1.91 KCAL/MOL
REMARK 924 INTRA-LIGAND FREE ENERGY PREDICTED BY IDOCK:   -0.23 KCAL/MOL
REMARK 927      BINDING AFFINITY PREDICTED BY RF-SCORE:    0.00 PKD
ROOT
HETATM    1  C   UNL     1      -9.490   2.062  68.276  1.00  0.00    -0.174 C  
HETATM    2  O   UNL     1      -8.503   2.529  67.363  1.00  0.00    -0.085 OA 
ENDROOT
BRANCH   2   3
HETATM    3  C   UNL     1      -8.434   3.881  67.173  1.00  0.00    -0.100 A  
HETATM    4  C   UNL     1      -9.191   4.615  66.268  1.00  0.00    -0.135 A  
HETATM    5  C   UNL     1      -9.043   6.004  66.183  1.00  0.00    -0.159 A  
HETATM    6  C   UNL     1      -8.113   6.696  66.978  1.00  0.00    -0.113 A  
HETATM    7  C   UNL     1      -7.354   5.943  67.883  1.00  0.00    -0.077 A  
HETATM    8  C   UNL     1      -7.974   8.224  66.821  1.00  0.00    -0.099 C  
HETATM    9  C   UNL     1      -7.654   8.963  68.165  1.00  0.00    -0.093 C  
HETATM   10  C   UNL     1      -7.521   4.555  67.984  1.00  0.00    -0.069 A  
HETATM   11  C   UNL     1      -6.968   8.639  65.666  1.00  0.00    -0.075 C  
HETATM   12  O   UNL     1      -5.663   8.116  65.959  1.00  0.00    -0.036 OA 
HETATM   13  C   UNL     1      -7.390   8.130  64.265  1.00  0.00    -0.094 C  
HETATM   14  C   UNL     1      -6.788  10.171  65.521  1.00  0.00    -0.130 C  
HETATM   15  C   UNL     1      -8.067  10.876  65.072  1.00  0.00     0.130 C  
HETATM   16  C   UNL     1      -8.584  10.310  63.752  1.00  0.00    -0.190 C  
HETATM   17  C   UNL     1      -8.679   8.786  63.759  1.00  0.00     0.015 C  
HETATM   18  H   UNL     1      -5.061   8.365  65.268  1.00  0.00     0.000 HD 
BRANCH   9  19
HETATM   19  N   UNL     1      -8.617   8.750  69.269  1.00  0.00    -0.129 NA 
HETATM   20  C   UNL     1      -9.532   9.884  69.422  1.00  0.00    -0.213 C  
HETATM   21  C   UNL     1      -7.897   8.544  70.530  1.00  0.00    -0.086 C  
ENDBRANCH   9  19
ENDBRANCH   2   3
TORSDOF 2
ENDMDL
MODEL      194
REMARK 921   NORMALIZED FREE ENERGY PREDICTED BY IDOCK:   -1.69 KCAL/MOL
REMARK 922        TOTAL FREE ENERGY PREDICTED BY IDOCK:   -2.13 KCAL/MOL
REMARK 923 INTER-LIGAND FREE ENERGY PREDICTED BY IDOCK:   -1.90 KCAL/MOL
REMARK 924 INTRA-LIGAND FREE ENERGY PREDICTED BY IDOCK:   -0.22 KCAL/MOL
REMARK 927      BINDING AFFINITY PREDICTED BY RF-SCORE:    0.00 PKD
ROOT
HETATM    1  C   UNL     1      -9.932  12.553  67.849  1.00  0.00    -0.212 C  
HETATM    2  O   UNL     1      -8.591  12.084  67.762  1.00  0.00    -0.143 OA 
ENDROOT
BRANCH   2   3
HETATM    3  C   UNL     1      -8.327  10.872  68.337  1.00  0.00    -0.136 A  
HETATM    4  C   UNL     1      -9.181  10.165  69.174  1.00  0.00    -0.204 A  
HETATM    5  C   UNL     1      -8.802   8.918  69.683  1.00  0.00    -0.142 A  
HETATM    6  C   UNL     1      -7.546   8.355  69.398  1.00  0.00    -0.091 A  
HETATM    7  C   UNL     1      -6.693   9.081  68.556  1.00  0.00    -0.059 A  
HETATM    8  C   UNL     1      -7.172   6.991  70.010  1.00  0.00    -0.079 C  
HETATM    9  C   UNL     1      -6.289   6.104  69.067  1.00  0.00    -0.041 C  
HETATM   10  C   UNL     1      -7.084  10.319  68.026  1.00  0.00    -0.083 A  
HETATM   11  C   UNL     1      -6.542   7.115  71.461  1.00  0.00    -0.048 C  
HETATM   12  O   UNL     1      -5.342   7.900  71.395  1.00  0.00    -0.033 OA 
HETATM   13  C   UNL     1      -7.493   7.769  72.495  1.00  0.00    -0.101 C  
HETATM   14  C   UNL     1      -6.126   5.755  72.076  1.00  0.00    -0.036 C  
HETATM   15  C   UNL     1      -7.318   4.838  72.344  1.00  0.00    -0.083 C  
HETATM   16  C   UNL     1      -8.340   5.503  73.261  1.00  0.00    -0.117 C  
HETATM   17  C   UNL     1      -8.723   6.908  72.799  1.00  0.00    -0.133 C  
HETATM   18  H   UNL     1      -4.965   7.975  72.264  1.00  0.00     0.000 HD 
BRANCH   9  19
HETATM   19  N   UNL     1      -6.857   5.812  67.731  1.00  0.00    -0.059 NA 
HETATM   20  C   UNL     1      -7.839   4.726  67.780  1.00  0.00    -0.086 C  
HETATM   21  C   UNL     1      -5.785   5.445  66.800  1.00  0.00    -0.017 C  
ENDBRANCH   9  19
ENDBRANCH   2   3
TORSDOF 2
ENDMDL
MODEL      195
REMARK 921   NORMALIZED FREE ENERGY PREDICTED BY IDOCK:   -1.66 KCAL/MOL
REMARK 922        TOTAL FREE ENERGY PREDICTED BY IDOCK:   -2.10 KCAL/MOL
REMARK 923 INTER-LIGAND FREE ENERGY PREDICTED BY IDOCK:   -3.07 KCAL/MOL
REMARK 924 INTRA-LIGAND FREE ENERGY PREDICTED BY IDOCK:    0.97 KCAL/MOL
REMARK 927      BINDING AFFINITY PREDICTED BY RF-SCORE:    0.00 PKD
ROOT
HETATM    1  C   UNL     1      -6.544   5.236  73.316  1.00  0.00    -0.071 C  
HETATM    2  O   UNL     1      -6.385   4.788  71.975  1.00  0.00    -0.027 OA 
ENDROOT
BRANCH   2   3
HETATM    3  C   UNL     1      -7.040   5.500  71.010  1.00  0.00    -0.069 A  
HETATM    4  C   UNL     1      -6.511   6.556  70.277  1.00  0.00    -0.040 A  
HETATM    5  C   UNL     1      -7.280   7.193  69.296  1.00  0.00    -0.085 A  
HETATM    6  C   UNL     1      -8.610   6.815  69.041  1.00  0.00    -0.131 A  
HETATM    7  C   UNL     1      -9.132   5.753  69.790  1.00  0.00    -0.151 A  
HETATM    8  C   UNL     1      -9.417   7.572  67.967  1.00  0.00    -0.149 C  
HETATM    9  C   UNL     1     -10.419   6.659  67.180  1.00  0.00    -0.288 C  
HETATM   10  C   UNL     1      -8.352   5.099  70.754  1.00  0.00    -0.113 A  
HETATM   11  C   UNL     1     -10.125   8.876  68.530  1.00  0.00    -0.188 C  
HETATM   12  O   UNL     1     -11.038   8.509  69.575  1.00  0.00    -0.422 OA 
HETATM   13  C   UNL     1      -9.135   9.923  69.097  1.00  0.00    -0.175 C  
HETATM   14  C   UNL     1     -10.973   9.627  67.472  1.00  0.00    -0.166 C  
HETATM   15  C   UNL     1     -10.125  10.210  66.343  1.00  0.00    -0.300 C  
HETATM   16  C   UNL     1      -9.051  11.153  66.879  1.00  0.00    -0.166 C  
HETATM   17  C   UNL     1      -8.239  10.538  68.016  1.00  0.00    -0.112 C  
HETATM   18  H   UNL     1     -11.462   9.289  69.913  1.00  0.00     0.000 HD 
BRANCH   9  19
HETATM   19  N   UNL     1      -9.829   5.485  66.498  1.00  0.00    -0.161 NA 
HETATM   20  C   UNL     1      -9.880   4.284  67.335  1.00  0.00    -0.126 C  
HETATM   21  C   UNL     1      -8.433   5.761  66.142  1.00  0.00    -0.130 C  
ENDBRANCH   9  19
ENDBRANCH   2   3
TORSDOF 2
ENDMDL
MODEL      196
REMARK 921   NORMALIZED FREE ENERGY PREDICTED BY IDOCK:   -1.57 KCAL/MOL
REMARK 922        TOTAL FREE ENERGY PREDICTED BY IDOCK:   -1.99 KCAL/MOL
REMARK 923 INTER-LIGAND FREE ENERGY PREDICTED BY IDOCK:   -1.75 KCAL/MOL
REMARK 924 INTRA-LIGAND FREE ENERGY PREDICTED BY IDOCK:   -0.24 KCAL/MOL
REMARK 927      BINDING AFFINITY PREDICTED BY RF-SCORE:    0.00 PKD
ROOT
HETATM    1  C   UNL     1     -10.995   7.521  67.564  1.00  0.00    -0.063 C  
HETATM    2  O   UNL     1     -10.006   6.506  67.443  1.00  0.00    -0.127 OA 
ENDROOT
BRANCH   2   3
HETATM    3  C   UNL     1      -9.435   6.066  68.605  1.00  0.00    -0.124 A  
HETATM    4  C   UNL     1      -8.525   5.022  68.721  1.00  0.00    -0.087 A  
HETATM    5  C   UNL     1      -7.993   4.681  69.969  1.00  0.00    -0.064 A  
HETATM    6  C   UNL     1      -8.380   5.350  71.143  1.00  0.00    -0.124 A  
HETATM    7  C   UNL     1      -9.301   6.397  71.013  1.00  0.00    -0.171 A  
HETATM    8  C   UNL     1      -7.782   4.912  72.495  1.00  0.00    -0.093 C  
HETATM    9  C   UNL     1      -7.554   6.099  73.492  1.00  0.00    -0.095 C  
HETATM   10  C   UNL     1      -9.814   6.755  69.758  1.00  0.00    -0.175 A  
HETATM   11  C   UNL     1      -8.585   3.721  73.170  1.00  0.00    -0.094 C  
HETATM   12  O   UNL     1      -9.937   4.135  73.413  1.00  0.00    -0.123 OA 
HETATM   13  C   UNL     1      -8.619   2.432  72.312  1.00  0.00    -0.080 C  
HETATM   14  C   UNL     1      -8.019   3.293  74.548  1.00  0.00    -0.065 C  
HETATM   15  C   UNL     1      -6.618   2.692  74.450  1.00  0.00    -0.029 C  
HETATM   16  C   UNL     1      -6.588   1.492  73.508  1.00  0.00    -0.013 C  
HETATM   17  C   UNL     1      -7.239   1.784  72.158  1.00  0.00    -0.034 C  
HETATM   18  H   UNL     1     -10.418   3.423  73.817  1.00  0.00     0.000 HD 
BRANCH   9  19
HETATM   19  N   UNL     1      -6.697   7.202  73.003  1.00  0.00    -0.064 NA 
HETATM   20  C   UNL     1      -5.280   6.961  73.288  1.00  0.00    -0.038 C  
HETATM   21  C   UNL     1      -7.101   8.466  73.627  1.00  0.00    -0.084 C  
ENDBRANCH   9  19
ENDBRANCH   2   3
TORSDOF 2
ENDMDL
MODEL      197
REMARK 921   NORMALIZED FREE ENERGY PREDICTED BY IDOCK:   -1.41 KCAL/MOL
REMARK 922        TOTAL FREE ENERGY PREDICTED BY IDOCK:   -1.82 KCAL/MOL
REMARK 923 INTER-LIGAND FREE ENERGY PREDICTED BY IDOCK:   -1.58 KCAL/MOL
REMARK 924 INTRA-LIGAND FREE ENERGY PREDICTED BY IDOCK:   -0.24 KCAL/MOL
REMARK 927      BINDING AFFINITY PREDICTED BY RF-SCORE:    0.00 PKD
ROOT
HETATM    1  C   UNL     1      -6.933  15.657  69.244  1.00  0.00    -0.179 C  
HETATM    2  O   UNL     1      -5.826  14.766  69.306  1.00  0.00    -0.098 OA 
ENDROOT
BRANCH   2   3
HETATM    3  C   UNL     1      -6.050  13.481  68.897  1.00  0.00    -0.089 A  
HETATM    4  C   UNL     1      -5.137  12.663  68.244  1.00  0.00    -0.066 A  
HETATM    5  C   UNL     1      -5.481  11.352  67.895  1.00  0.00    -0.044 A  
HETATM    6  C   UNL     1      -6.760  10.831  68.158  1.00  0.00    -0.063 A  
HETATM    7  C   UNL     1      -7.673  11.668  68.813  1.00  0.00    -0.111 A  
HETATM    8  C   UNL     1      -7.093   9.389  67.726  1.00  0.00    -0.082 C  
HETATM    9  C   UNL     1      -8.054   8.646  68.715  1.00  0.00    -0.116 C  
HETATM   10  C   UNL     1      -7.318  12.973  69.185  1.00  0.00     0.143 A  
HETATM   11  C   UNL     1      -7.603   9.295  66.226  1.00  0.00    -0.096 C  
HETATM   12  O   UNL     1      -8.800  10.075  66.080  1.00  0.00    -0.140 OA 
HETATM   13  C   UNL     1      -6.569   9.795  65.187  1.00  0.00    -0.100 C  
HETATM   14  C   UNL     1      -7.978   7.857  65.787  1.00  0.00    -0.109 C  
HETATM   15  C   UNL     1      -6.774   6.918  65.753  1.00  0.00    -0.052 C  
HETATM   16  C   UNL     1      -5.677   7.446  64.833  1.00  0.00    -0.037 C  
HETATM   17  C   UNL     1      -5.324   8.905  65.113  1.00  0.00    -0.038 C  
HETATM   18  H   UNL     1      -9.106  10.019  65.182  1.00  0.00     0.000 HD 
BRANCH   9  19
HETATM   19  N   UNL     1      -7.597   8.557  70.121  1.00  0.00    -0.065 NA 
HETATM   20  C   UNL     1      -6.835   7.332  70.371  1.00  0.00    -0.053 C  
HETATM   21  C   UNL     1      -8.750   8.595  71.026  1.00  0.00    -0.186 C  
ENDBRANCH   9  19
ENDBRANCH   2   3
TORSDOF 2
ENDMDL
MODEL      198
REMARK 921   NORMALIZED FREE ENERGY PREDICTED BY IDOCK:   -1.31 KCAL/MOL
REMARK 922        TOTAL FREE ENERGY PREDICTED BY IDOCK:   -1.71 KCAL/MOL
REMARK 923 INTER-LIGAND FREE ENERGY PREDICTED BY IDOCK:   -1.48 KCAL/MOL
REMARK 924 INTRA-LIGAND FREE ENERGY PREDICTED BY IDOCK:   -0.23 KCAL/MOL
REMARK 927      BINDING AFFINITY PREDICTED BY RF-SCORE:    0.00 PKD
ROOT
HETATM    1  C   UNL     1     -13.984  15.338  72.083  1.00  0.00    -0.549 C  
HETATM    2  O   UNL     1     -13.456  15.948  70.911  1.00  0.00    -0.462 OA 
ENDROOT
BRANCH   2   3
HETATM    3  C   UNL     1     -12.583  15.201  70.171  1.00  0.00    -0.279 A  
HETATM    4  C   UNL     1     -11.807  14.150  70.645  1.00  0.00    -0.333 A  
HETATM    5  C   UNL     1     -10.963  13.445  69.780  1.00  0.00     0.184 A  
HETATM    6  C   UNL     1     -10.845  13.790  68.422  1.00  0.00    -0.268 A  
HETATM    7  C   UNL     1     -11.629  14.854  67.958  1.00  0.00    -0.363 A  
HETATM    8  C   UNL     1      -9.878  12.996  67.522  1.00  0.00    -0.209 C  
HETATM    9  C   UNL     1     -10.391  12.826  66.051  1.00  0.00    -0.276 C  
HETATM   10  C   UNL     1     -12.493  15.544  68.822  1.00  0.00     0.331 A  
HETATM   11  C   UNL     1      -8.392  13.552  67.567  1.00  0.00    -0.184 C  
HETATM   12  O   UNL     1      -8.379  14.914  67.115  1.00  0.00    -0.195 OA 
HETATM   13  C   UNL     1      -7.755  13.503  68.978  1.00  0.00     0.118 C  
HETATM   14  C   UNL     1      -7.415  12.788  66.638  1.00  0.00     0.600 C  
HETATM   15  C   UNL     1      -7.206  11.337  67.067  1.00  0.00    -0.129 C  
HETATM   16  C   UNL     1      -6.697  11.246  68.503  1.00  0.00    -0.063 C  
HETATM   17  C   UNL     1      -7.531  12.072  69.479  1.00  0.00     0.430 C  
HETATM   18  H   UNL     1      -7.490  15.247  67.142  1.00  0.00     0.000 HD 
BRANCH   9  19
HETATM   19  N   UNL     1     -11.716  12.184  65.895  1.00  0.00    -0.482 NA 
HETATM   20  C   UNL     1     -11.612  10.724  65.829  1.00  0.00     1.126 C  
HETATM   21  C   UNL     1     -12.370  12.672  64.676  1.00  0.00    -0.476 C  
ENDBRANCH   9  19
ENDBRANCH   2   3
TORSDOF 2
ENDMDL
MODEL      199
REMARK 921   NORMALIZED FREE ENERGY PREDICTED BY IDOCK:   -1.24 KCAL/MOL
REMARK 922        TOTAL FREE ENERGY PREDICTED BY IDOCK:   -1.63 KCAL/MOL
REMARK 923 INTER-LIGAND FREE ENERGY PREDICTED BY IDOCK:   -2.57 KCAL/MOL
REMARK 924 INTRA-LIGAND FREE ENERGY PREDICTED BY IDOCK:    0.94 KCAL/MOL
REMARK 927      BINDING AFFINITY PREDICTED BY RF-SCORE:    0.00 PKD
ROOT
HETATM    1  C   UNL     1      -7.233   5.440  74.489  1.00  0.00    -0.082 C  
HETATM    2  O   UNL     1      -6.579   5.092  73.274  1.00  0.00    -0.061 OA 
ENDROOT
BRANCH   2   3
HETATM    3  C   UNL     1      -7.058   5.673  72.133  1.00  0.00    -0.087 A  
HETATM    4  C   UNL     1      -6.548   5.495  70.853  1.00  0.00    -0.043 A  
HETATM    5  C   UNL     1      -7.143   6.132  69.758  1.00  0.00    -0.072 A  
HETATM    6  C   UNL     1      -8.245   6.990  69.914  1.00  0.00    -0.130 A  
HETATM    7  C   UNL     1      -8.746   7.165  71.210  1.00  0.00    -0.128 A  
HETATM    8  C   UNL     1      -8.842   7.686  68.674  1.00  0.00    -0.127 C  
HETATM    9  C   UNL     1     -10.397   7.864  68.746  1.00  0.00    -0.203 C  
HETATM   10  C   UNL     1      -8.165   6.506  72.303  1.00  0.00    -0.106 A  
HETATM   11  C   UNL     1      -8.109   9.048  68.316  1.00  0.00    -0.109 C  
HETATM   12  O   UNL     1      -8.229   9.958  69.420  1.00  0.00    -0.118 OA 
HETATM   13  C   UNL     1      -6.605   8.875  67.991  1.00  0.00    -0.061 C  
HETATM   14  C   UNL     1      -8.722   9.780  67.095  1.00  0.00    -0.137 C  
HETATM   15  C   UNL     1      -8.555   8.998  65.794  1.00  0.00    -0.180 C  
HETATM   16  C   UNL     1      -7.086   8.698  65.506  1.00  0.00    -0.083 C  
HETATM   17  C   UNL     1      -6.363   8.082  66.702  1.00  0.00    -0.054 C  
HETATM   18  H   UNL     1      -7.790  10.773  69.206  1.00  0.00     0.000 HD 
BRANCH   9  19
HETATM   19  N   UNL     1     -11.184   6.625  68.939  1.00  0.00    -0.238 NA 
HETATM   20  C   UNL     1     -11.528   6.409  70.347  1.00  0.00    -0.393 C  
HETATM   21  C   UNL     1     -10.427   5.468  68.449  1.00  0.00    -0.157 C  
ENDBRANCH   9  19
ENDBRANCH   2   3
TORSDOF 2
ENDMDL
MODEL      200
REMARK 921   NORMALIZED FREE ENERGY PREDICTED BY IDOCK:   -1.04 KCAL/MOL
REMARK 922        TOTAL FREE ENERGY PREDICTED BY IDOCK:   -1.41 KCAL/MOL
REMARK 923 INTER-LIGAND FREE ENERGY PREDICTED BY IDOCK:   -3.30 KCAL/MOL
REMARK 924 INTRA-LIGAND FREE ENERGY PREDICTED BY IDOCK:    1.89 KCAL/MOL
REMARK 927      BINDING AFFINITY PREDICTED BY RF-SCORE:    0.00 PKD
ROOT
HETATM    1  C   UNL     1     -11.527  13.186  63.298  1.00  0.00     0.016 C  
HETATM    2  O   UNL     1     -11.201  13.994  64.423  1.00  0.00    -0.368 OA 
ENDROOT
BRANCH   2   3
HETATM    3  C   UNL     1     -10.972  13.340  65.601  1.00  0.00    -0.277 A  
HETATM    4  C   UNL     1      -9.727  13.074  66.156  1.00  0.00    -0.255 A  
HETATM    5  C   UNL     1      -9.625  12.413  67.385  1.00  0.00    -0.184 A  
HETATM    6  C   UNL     1     -10.763  11.969  68.081  1.00  0.00    -0.246 A  
HETATM    7  C   UNL     1     -12.013  12.240  67.508  1.00  0.00    -0.210 A  
HETATM    8  C   UNL     1     -10.589  11.221  69.417  1.00  0.00    -0.142 C  
HETATM    9  C   UNL     1     -11.722  11.525  70.456  1.00  0.00    -0.150 C  
HETATM   10  C   UNL     1     -12.114  12.925  66.288  1.00  0.00    -0.433 A  
HETATM   11  C   UNL     1     -10.365   9.661  69.229  1.00  0.00    -0.209 C  
HETATM   12  O   UNL     1     -11.503   9.093  68.564  1.00  0.00    -0.234 OA 
HETATM   13  C   UNL     1      -9.099   9.312  68.408  1.00  0.00    -0.128 C  
HETATM   14  C   UNL     1     -10.226   8.889  70.565  1.00  0.00    -0.247 C  
HETATM   15  C   UNL     1      -8.972   9.279  71.345  1.00  0.00    -0.012 C  
HETATM   16  C   UNL     1      -7.708   9.067  70.516  1.00  0.00    -0.123 C  
HETATM   17  C   UNL     1      -7.801   9.693  69.126  1.00  0.00    -0.090 C  
HETATM   18  H   UNL     1     -11.370   8.160  68.451  1.00  0.00     0.000 HD 
BRANCH   9  19
HETATM   19  N   UNL     1     -11.916  12.951  70.806  1.00  0.00    -0.161 NA 
HETATM   20  C   UNL     1     -13.335  13.314  70.851  1.00  0.00     0.215 C  
HETATM   21  C   UNL     1     -11.235  13.805  69.828  1.00  0.00    -0.059 C  
ENDBRANCH   9  19
ENDBRANCH   2   3
TORSDOF 2
ENDMDL
MODEL      201
REMARK 921   NORMALIZED FREE ENERGY PREDICTED BY IDOCK:   -0.97 KCAL/MOL
REMARK 922        TOTAL FREE ENERGY PREDICTED BY IDOCK:   -1.32 KCAL/MOL
REMARK 923 INTER-LIGAND FREE ENERGY PREDICTED BY IDOCK:   -2.27 KCAL/MOL
REMARK 924 INTRA-LIGAND FREE ENERGY PREDICTED BY IDOCK:    0.95 KCAL/MOL
REMARK 927      BINDING AFFINITY PREDICTED BY RF-SCORE:    0.00 PKD
ROOT
HETATM    1  C   UNL     1      -5.463  14.984  70.587  1.00  0.00    -0.137 C  
HETATM    2  O   UNL     1      -5.843  15.535  69.332  1.00  0.00    -0.107 OA 
ENDROOT
BRANCH   2   3
HETATM    3  C   UNL     1      -6.694  14.786  68.567  1.00  0.00    -0.097 A  
HETATM    4  C   UNL     1      -7.048  15.047  67.249  1.00  0.00    -0.134 A  
HETATM    5  C   UNL     1      -7.915  14.189  66.565  1.00  0.00     0.840 A  
HETATM    6  C   UNL     1      -8.480  13.062  67.186  1.00  0.00    -0.176 A  
HETATM    7  C   UNL     1      -8.119  12.813  68.517  1.00  0.00    -0.080 A  
HETATM    8  C   UNL     1      -9.452  12.167  66.391  1.00  0.00    -0.238 C  
HETATM    9  C   UNL     1      -9.342  10.648  66.755  1.00  0.00    -0.157 C  
HETATM   10  C   UNL     1      -7.230  13.660  69.194  1.00  0.00     0.005 A  
HETATM   11  C   UNL     1     -10.953  12.680  66.448  1.00  0.00    -0.272 C  
HETATM   12  O   UNL     1     -11.400  12.694  67.812  1.00  0.00    -0.259 OA 
HETATM   13  C   UNL     1     -11.146  14.100  65.860  1.00  0.00    -0.306 C  
HETATM   14  C   UNL     1     -11.949  11.770  65.685  1.00  0.00     0.164 C  
HETATM   15  C   UNL     1     -11.696  11.752  64.179  1.00  0.00    -0.376 C  
HETATM   16  C   UNL     1     -11.752  13.156  63.584  1.00  0.00    -0.505 C  
HETATM   17  C   UNL     1     -10.890  14.157  64.350  1.00  0.00    -0.218 C  
HETATM   18  H   UNL     1     -12.299  13.001  67.847  1.00  0.00     0.000 HD 
BRANCH   9  19
HETATM   19  N   UNL     1      -8.002  10.038  66.599  1.00  0.00    -0.113 NA 
HETATM   20  C   UNL     1      -7.252  10.035  67.858  1.00  0.00    -0.087 C  
HETATM   21  C   UNL     1      -7.233  10.769  65.586  1.00  0.00    -0.018 C  
ENDBRANCH   9  19
ENDBRANCH   2   3
TORSDOF 2
ENDMDL
MODEL      202
REMARK 921   NORMALIZED FREE ENERGY PREDICTED BY IDOCK:   -0.67 KCAL/MOL
REMARK 922        TOTAL FREE ENERGY PREDICTED BY IDOCK:   -1.00 KCAL/MOL
REMARK 923 INTER-LIGAND FREE ENERGY PREDICTED BY IDOCK:   -0.86 KCAL/MOL
REMARK 924 INTRA-LIGAND FREE ENERGY PREDICTED BY IDOCK:   -0.13 KCAL/MOL
REMARK 927      BINDING AFFINITY PREDICTED BY RF-SCORE:    0.00 PKD
ROOT
HETATM    1  C   UNL     1      -6.511  13.294  70.594  1.00  0.00     0.537 C  
HETATM    2  O   UNL     1      -5.563  12.251  70.397  1.00  0.00    -0.133 OA 
ENDROOT
BRANCH   2   3
HETATM    3  C   UNL     1      -6.066  10.995  70.202  1.00  0.00    -0.138 A  
HETATM    4  C   UNL     1      -6.456  10.110  71.200  1.00  0.00     0.216 A  
HETATM    5  C   UNL     1      -6.978   8.855  70.870  1.00  0.00    -0.080 A  
HETATM    6  C   UNL     1      -7.096   8.433  69.534  1.00  0.00    -0.053 A  
HETATM    7  C   UNL     1      -6.694   9.333  68.538  1.00  0.00    -0.058 A  
HETATM    8  C   UNL     1      -7.652   7.028  69.231  1.00  0.00    -0.096 C  
HETATM    9  C   UNL     1      -8.510   6.965  67.921  1.00  0.00    -0.120 C  
HETATM   10  C   UNL     1      -6.195  10.601  68.870  1.00  0.00    -0.044 A  
HETATM   11  C   UNL     1      -6.536   5.901  69.260  1.00  0.00    -0.042 C  
HETATM   12  O   UNL     1      -5.539   6.191  68.268  1.00  0.00    -0.010 OA 
HETATM   13  C   UNL     1      -5.829   5.763  70.631  1.00  0.00    -0.024 C  
HETATM   14  C   UNL     1      -7.072   4.487  68.920  1.00  0.00    -0.052 C  
HETATM   15  C   UNL     1      -8.055   3.962  69.964  1.00  0.00    -0.060 C  
HETATM   16  C   UNL     1      -7.430   3.933  71.356  1.00  0.00    -0.051 C  
HETATM   17  C   UNL     1      -6.765   5.255  71.733  1.00  0.00    -0.052 C  
HETATM   18  H   UNL     1      -4.871   5.517  68.285  1.00  0.00     0.000 HD 
BRANCH   9  19
HETATM   19  N   UNL     1      -9.667   7.886  67.857  1.00  0.00    -0.150 NA 
HETATM   20  C   UNL     1     -10.475   7.835  69.078  1.00  0.00    -0.205 C  
HETATM   21  C   UNL     1     -10.514   7.548  66.709  1.00  0.00    -0.249 C  
ENDBRANCH   9  19
ENDBRANCH   2   3
TORSDOF 2
ENDMDL
MODEL      203
REMARK 921   NORMALIZED FREE ENERGY PREDICTED BY IDOCK:   -0.44 KCAL/MOL
REMARK 922        TOTAL FREE ENERGY PREDICTED BY IDOCK:   -0.74 KCAL/MOL
REMARK 923 INTER-LIGAND FREE ENERGY PREDICTED BY IDOCK:   -1.70 KCAL/MOL
REMARK 924 INTRA-LIGAND FREE ENERGY PREDICTED BY IDOCK:    0.96 KCAL/MOL
REMARK 927      BINDING AFFINITY PREDICTED BY RF-SCORE:    0.00 PKD
ROOT
HETATM    1  C   UNL     1     -10.806  19.800  65.873  1.00  0.00    -0.284 C  
HETATM    2  O   UNL     1     -10.743  19.327  67.214  1.00  0.00    -0.455 OA 
ENDROOT
BRANCH   2   3
HETATM    3  C   UNL     1      -9.968  18.224  67.438  1.00  0.00    -0.334 A  
HETATM    4  C   UNL     1      -9.668  17.236  66.507  1.00  0.00    -0.298 A  
HETATM    5  C   UNL     1      -8.841  16.162  66.855  1.00  0.00    -0.246 A  
HETATM    6  C   UNL     1      -8.316  16.025  68.152  1.00  0.00    -0.160 A  
HETATM    7  C   UNL     1      -8.629  17.025  69.081  1.00  0.00    -0.024 A  
HETATM    8  C   UNL     1      -7.433  14.806  68.485  1.00  0.00    -0.117 C  
HETATM    9  C   UNL     1      -6.284  15.126  69.501  1.00  0.00    -0.125 C  
HETATM   10  C   UNL     1      -9.437  18.114  68.724  1.00  0.00    -0.285 A  
HETATM   11  C   UNL     1      -8.275  13.536  68.928  1.00  0.00     0.149 C  
HETATM   12  O   UNL     1      -9.033  13.852  70.105  1.00  0.00     1.247 OA 
HETATM   13  C   UNL     1      -9.257  13.033  67.840  1.00  0.00    -0.208 C  
HETATM   14  C   UNL     1      -7.401  12.312  69.303  1.00  0.00     0.183 C  
HETATM   15  C   UNL     1      -6.622  11.756  68.113  1.00  0.00    -0.056 C  
HETATM   16  C   UNL     1      -7.553  11.367  66.968  1.00  0.00    -0.151 C  
HETATM   17  C   UNL     1      -8.540  12.474  66.606  1.00  0.00    -0.057 C  
HETATM   18  H   UNL     1      -9.537  13.092  70.371  1.00  0.00     0.000 HD 
BRANCH   9  19
HETATM   19  N   UNL     1      -5.354  16.209  69.109  1.00  0.00    -0.110 NA 
HETATM   20  C   UNL     1      -5.758  17.503  69.667  1.00  0.00    -0.231 C  
HETATM   21  C   UNL     1      -5.295  16.316  67.648  1.00  0.00    -0.136 C  
ENDBRANCH   9  19
ENDBRANCH   2   3
TORSDOF 2
ENDMDL
MODEL      204
REMARK 921   NORMALIZED FREE ENERGY PREDICTED BY IDOCK:   -0.30 KCAL/MOL
REMARK 922        TOTAL FREE ENERGY PREDICTED BY IDOCK:   -0.57 KCAL/MOL
REMARK 923 INTER-LIGAND FREE ENERGY PREDICTED BY IDOCK:   -0.50 KCAL/MOL
REMARK 924 INTRA-LIGAND FREE ENERGY PREDICTED BY IDOCK:   -0.07 KCAL/MOL
REMARK 927      BINDING AFFINITY PREDICTED BY RF-SCORE:    0.00 PKD
ROOT
HETATM    1  C   UNL     1      -5.620  20.178  71.335  1.00  0.00    -0.354 C  
HETATM    2  O   UNL     1      -5.769  19.996  69.932  1.00  0.00    -0.242 OA 
ENDROOT
BRANCH   2   3
HETATM    3  C   UNL     1      -6.720  19.101  69.527  1.00  0.00    -0.241 A  
HETATM    4  C   UNL     1      -6.483  17.911  68.852  1.00  0.00    -0.228 A  
HETATM    5  C   UNL     1      -7.545  17.066  68.510  1.00  0.00    -0.231 A  
HETATM    6  C   UNL     1      -8.878  17.401  68.805  1.00  0.00    -0.220 A  
HETATM    7  C   UNL     1      -9.103  18.607  69.483  1.00  0.00     0.471 A  
HETATM    8  C   UNL     1     -10.010  16.445  68.380  1.00  0.00    -0.238 C  
HETATM    9  C   UNL     1     -11.205  16.402  69.393  1.00  0.00    -0.267 C  
HETATM   10  C   UNL     1      -8.036  19.440  69.847  1.00  0.00     0.618 A  
HETATM   11  C   UNL     1     -10.506  16.695  66.893  1.00  0.00    -0.271 C  
HETATM   12  O   UNL     1     -11.009  18.034  66.777  1.00  0.00    -0.120 OA 
HETATM   13  C   UNL     1      -9.397  16.500  65.829  1.00  0.00    -0.110 C  
HETATM   14  C   UNL     1     -11.670  15.767  66.463  1.00  0.00     0.551 C  
HETATM   15  C   UNL     1     -11.260  14.297  66.399  1.00  0.00    -0.337 C  
HETATM   16  C   UNL     1     -10.081  14.085  65.452  1.00  0.00    -0.343 C  
HETATM   17  C   UNL     1      -8.926  15.045  65.724  1.00  0.00     0.320 C  
HETATM   18  H   UNL     1     -11.306  18.185  65.888  1.00  0.00     0.000 HD 
BRANCH   9  19
HETATM   19  N   UNL     1     -10.863  16.038  70.786  1.00  0.00    -0.180 NA 
HETATM   20  C   UNL     1     -11.566  14.829  71.224  1.00  0.00    -0.259 C  
HETATM   21  C   UNL     1     -11.202  17.142  71.691  1.00  0.00     1.176 C  
ENDBRANCH   9  19
ENDBRANCH   2   3
TORSDOF 2
ENDMDL
MODEL      205
REMARK 921   NORMALIZED FREE ENERGY PREDICTED BY IDOCK:    0.63 KCAL/MOL
REMARK 922        TOTAL FREE ENERGY PREDICTED BY IDOCK:    0.46 KCAL/MOL
REMARK 923 INTER-LIGAND FREE ENERGY PREDICTED BY IDOCK:    0.70 KCAL/MOL
REMARK 924 INTRA-LIGAND FREE ENERGY PREDICTED BY IDOCK:   -0.24 KCAL/MOL
REMARK 927      BINDING AFFINITY PREDICTED BY RF-SCORE:    0.00 PKD
ROOT
HETATM    1  C   UNL     1      -5.920  12.153  67.897  1.00  0.00    -0.072 C  
HETATM    2  O   UNL     1      -7.153  12.612  67.356  1.00  0.00    -0.142 OA 
ENDROOT
BRANCH   2   3
HETATM    3  C   UNL     1      -7.404  13.952  67.454  1.00  0.00    -0.109 A  
HETATM    4  C   UNL     1      -8.659  14.539  67.569  1.00  0.00    -0.198 A  
HETATM    5  C   UNL     1      -8.783  15.928  67.685  1.00  0.00    -0.174 A  
HETATM    6  C   UNL     1      -7.660  16.774  67.658  1.00  0.00    -0.183 A  
HETATM    7  C   UNL     1      -6.403  16.169  67.538  1.00  0.00    -0.195 A  
HETATM    8  C   UNL     1      -7.861  18.299  67.762  1.00  0.00    -0.245 C  
HETATM    9  C   UNL     1      -6.717  19.026  68.549  1.00  0.00    -0.266 C  
HETATM   10  C   UNL     1      -6.278  14.775  67.447  1.00  0.00     0.128 A  
HETATM   11  C   UNL     1      -8.138  18.984  66.358  1.00  0.00    -0.297 C  
HETATM   12  O   UNL     1      -7.020  18.756  65.487  1.00  0.00    -0.433 OA 
HETATM   13  C   UNL     1      -9.415  18.461  65.655  1.00  0.00     0.619 C  
HETATM   14  C   UNL     1      -8.304  20.522  66.440  1.00  0.00    -0.041 C  
HETATM   15  C   UNL     1      -9.543  20.941  67.228  1.00  0.00    -0.386 C  
HETATM   16  C   UNL     1     -10.814  20.337  66.636  1.00  0.00     0.112 C  
HETATM   17  C   UNL     1     -10.700  18.833  66.403  1.00  0.00    -0.324 C  
HETATM   18  H   UNL     1      -7.186  19.165  64.646  1.00  0.00     0.000 HD 
BRANCH   9  19
HETATM   19  N   UNL     1      -6.474  18.550  69.929  1.00  0.00    -0.097 NA 
HETATM   20  C   UNL     1      -7.568  18.913  70.834  1.00  0.00     3.212 C  
HETATM   21  C   UNL     1      -5.222  19.117  70.442  1.00  0.00    -0.214 C  
ENDBRANCH   9  19
ENDBRANCH   2   3
TORSDOF 2
ENDMDL
MODEL      206
REMARK 921   NORMALIZED FREE ENERGY PREDICTED BY IDOCK:    1.39 KCAL/MOL
REMARK 922        TOTAL FREE ENERGY PREDICTED BY IDOCK:    1.31 KCAL/MOL
REMARK 923 INTER-LIGAND FREE ENERGY PREDICTED BY IDOCK:    1.54 KCAL/MOL
REMARK 924 INTRA-LIGAND FREE ENERGY PREDICTED BY IDOCK:   -0.22 KCAL/MOL
REMARK 927      BINDING AFFINITY PREDICTED BY RF-SCORE:    0.00 PKD
ROOT
HETATM    1  C   UNL     1      -5.926  12.153  67.901  1.00  0.00    -0.072 C  
HETATM    2  O   UNL     1      -7.179  12.579  67.380  1.00  0.00    -0.138 OA 
ENDROOT
BRANCH   2   3
HETATM    3  C   UNL     1      -7.485  13.903  67.526  1.00  0.00    -0.169 A  
HETATM    4  C   UNL     1      -7.809  14.537  68.720  1.00  0.00    -0.145 A  
HETATM    5  C   UNL     1      -8.082  15.909  68.742  1.00  0.00    -0.190 A  
HETATM    6  C   UNL     1      -8.072  16.683  67.568  1.00  0.00    -0.184 A  
HETATM    7  C   UNL     1      -7.748  16.030  66.371  1.00  0.00    -0.049 A  
HETATM    8  C   UNL     1      -8.408  18.185  67.650  1.00  0.00    -0.244 C  
HETATM    9  C   UNL     1      -7.598  19.062  66.635  1.00  0.00    -0.243 C  
HETATM   10  C   UNL     1      -7.450  14.660  66.354  1.00  0.00     1.828 A  
HETATM   11  C   UNL     1      -9.966  18.476  67.566  1.00  0.00    -0.332 C  
HETATM   12  O   UNL     1     -10.476  17.988  66.317  1.00  0.00    -0.375 OA 
HETATM   13  C   UNL     1     -10.780  17.822  68.711  1.00  0.00    -0.004 C  
HETATM   14  C   UNL     1     -10.319  19.984  67.608  1.00  0.00    -0.510 C  
HETATM   15  C   UNL     1      -9.963  20.636  68.943  1.00  0.00     0.343 C  
HETATM   16  C   UNL     1     -10.651  19.934  70.111  1.00  0.00     1.086 C  
HETATM   17  C   UNL     1     -10.459  18.420  70.085  1.00  0.00     1.459 C  
HETATM   18  H   UNL     1     -11.409  18.162  66.266  1.00  0.00     0.000 HD 
BRANCH   9  19
HETATM   19  N   UNL     1      -6.123  18.967  66.728  1.00  0.00    -0.169 NA 
HETATM   20  C   UNL     1      -5.587  19.817  67.794  1.00  0.00    -0.190 C  
HETATM   21  C   UNL     1      -5.514  19.359  65.452  1.00  0.00    -0.165 C  
ENDBRANCH   9  19
ENDBRANCH   2   3
TORSDOF 2
ENDMDL
MODEL      207
REMARK 921   NORMALIZED FREE ENERGY PREDICTED BY IDOCK:    2.15 KCAL/MOL
REMARK 922        TOTAL FREE ENERGY PREDICTED BY IDOCK:    2.15 KCAL/MOL
REMARK 923 INTER-LIGAND FREE ENERGY PREDICTED BY IDOCK:    0.88 KCAL/MOL
REMARK 924 INTRA-LIGAND FREE ENERGY PREDICTED BY IDOCK:    1.28 KCAL/MOL
REMARK 927      BINDING AFFINITY PREDICTED BY RF-SCORE:    0.00 PKD
ROOT
HETATM    1  C   UNL     1     -13.941   8.575  71.976  1.00  0.00    -0.433 C  
HETATM    2  O   UNL     1     -12.683   9.216  72.152  1.00  0.00    -0.368 OA 
ENDROOT
BRANCH   2   3
HETATM    3  C   UNL     1     -12.205   9.930  71.089  1.00  0.00    -0.373 A  
HETATM    4  C   UNL     1     -12.578   9.762  69.761  1.00  0.00     0.675 A  
HETATM    5  C   UNL     1     -12.031  10.573  68.762  1.00  0.00     0.031 A  
HETATM    6  C   UNL     1     -11.069  11.556  69.055  1.00  0.00    -0.302 A  
HETATM    7  C   UNL     1     -10.698  11.713  70.397  1.00  0.00     1.441 A  
HETATM    8  C   UNL     1     -10.480  12.403  67.909  1.00  0.00    -0.227 C  
HETATM    9  C   UNL     1     -10.164  13.881  68.323  1.00  0.00    -0.247 C  
HETATM   10  C   UNL     1     -11.267  10.915  71.400  1.00  0.00     1.408 A  
HETATM   11  C   UNL     1      -9.238  11.710  67.204  1.00  0.00    -0.176 C  
HETATM   12  O   UNL     1      -8.194  11.506  68.168  1.00  0.00    -0.134 OA 
HETATM   13  C   UNL     1      -9.575  10.343  66.558  1.00  0.00    -0.224 C  
HETATM   14  C   UNL     1      -8.609  12.565  66.075  1.00  0.00     0.478 C  
HETATM   15  C   UNL     1      -9.554  12.765  64.891  1.00  0.00     0.192 C  
HETATM   16  C   UNL     1     -10.009  11.431  64.307  1.00  0.00    -0.329 C  
HETATM   17  C   UNL     1     -10.535  10.469  65.370  1.00  0.00    -0.222 C  
HETATM   18  H   UNL     1      -7.451  11.091  67.747  1.00  0.00     0.000 HD 
BRANCH   9  19
HETATM   19  N   UNL     1     -11.300  14.660  68.865  1.00  0.00    -0.268 NA 
HETATM   20  C   UNL     1     -12.521  13.856  68.954  1.00  0.00     0.167 C  
HETATM   21  C   UNL     1     -11.557  15.828  68.017  1.00  0.00    -0.210 C  
ENDBRANCH   9  19
ENDBRANCH   2   3
TORSDOF 2
ENDMDL
MODEL      208
REMARK 921   NORMALIZED FREE ENERGY PREDICTED BY IDOCK:    2.61 KCAL/MOL
REMARK 922        TOTAL FREE ENERGY PREDICTED BY IDOCK:    2.67 KCAL/MOL
REMARK 923 INTER-LIGAND FREE ENERGY PREDICTED BY IDOCK:    1.53 KCAL/MOL
REMARK 924 INTRA-LIGAND FREE ENERGY PREDICTED BY IDOCK:    1.14 KCAL/MOL
REMARK 927      BINDING AFFINITY PREDICTED BY RF-SCORE:    0.00 PKD
ROOT
HETATM    1  C   UNL     1      -7.346  16.233  67.716  1.00  0.00    -0.132 C  
HETATM    2  O   UNL     1      -6.818  15.585  68.867  1.00  0.00    -0.112 OA 
ENDROOT
BRANCH   2   3
HETATM    3  C   UNL     1      -7.143  14.267  69.031  1.00  0.00    -0.116 A  
HETATM    4  C   UNL     1      -6.736  13.453  70.082  1.00  0.00     0.328 A  
HETATM    5  C   UNL     1      -7.156  12.120  70.149  1.00  0.00     1.123 A  
HETATM    6  C   UNL     1      -7.967  11.551  69.151  1.00  0.00     0.102 A  
HETATM    7  C   UNL     1      -8.366  12.381  68.096  1.00  0.00    -0.178 A  
HETATM    8  C   UNL     1      -8.375  10.069  69.264  1.00  0.00    -0.154 C  
HETATM    9  C   UNL     1      -9.815   9.774  68.720  1.00  0.00    -0.169 C  
HETATM   10  C   UNL     1      -7.965  13.724  68.043  1.00  0.00    -0.156 A  
HETATM   11  C   UNL     1      -7.298   9.081  68.643  1.00  0.00    -0.077 C  
HETATM   12  O   UNL     1      -7.128   9.376  67.249  1.00  0.00    -0.084 OA 
HETATM   13  C   UNL     1      -5.912   9.167  69.329  1.00  0.00    -0.038 C  
HETATM   14  C   UNL     1      -7.711   7.590  68.714  1.00  0.00    -0.119 C  
HETATM   15  C   UNL     1      -7.804   7.070  70.147  1.00  0.00    -0.109 C  
HETATM   16  C   UNL     1      -6.487   7.255  70.896  1.00  0.00    -0.043 C  
HETATM   17  C   UNL     1      -5.936   8.675  70.780  1.00  0.00    -0.034 C  
HETATM   18  H   UNL     1      -6.484   8.786  66.877  1.00  0.00     0.000 HD 
BRANCH   9  19
HETATM   19  N   UNL     1     -10.914  10.550  69.339  1.00  0.00    -0.233 NA 
HETATM   20  C   UNL     1     -11.531  11.478  68.388  1.00  0.00    -0.298 C  
HETATM   21  C   UNL     1     -10.407  11.309  70.487  1.00  0.00     2.029 C  
ENDBRANCH   9  19
ENDBRANCH   2   3
TORSDOF 2
ENDMDL
MODEL      209
REMARK 921   NORMALIZED FREE ENERGY PREDICTED BY IDOCK:    4.43 KCAL/MOL
REMARK 922        TOTAL FREE ENERGY PREDICTED BY IDOCK:    4.71 KCAL/MOL
REMARK 923 INTER-LIGAND FREE ENERGY PREDICTED BY IDOCK:    4.87 KCAL/MOL
REMARK 924 INTRA-LIGAND FREE ENERGY PREDICTED BY IDOCK:   -0.17 KCAL/MOL
REMARK 927      BINDING AFFINITY PREDICTED BY RF-SCORE:    0.00 PKD
ROOT
HETATM    1  C   UNL     1     -11.661  17.525  73.694  1.00  0.00     0.746 C  
HETATM    2  O   UNL     1     -11.410  17.995  72.375  1.00  0.00     1.484 OA 
ENDROOT
BRANCH   2   3
HETATM    3  C   UNL     1     -11.114  17.049  71.434  1.00  0.00     1.025 A  
HETATM    4  C   UNL     1     -11.269  17.190  70.060  1.00  0.00     0.770 A  
HETATM    5  C   UNL     1     -10.908  16.151  69.195  1.00  0.00    -0.298 A  
HETATM    6  C   UNL     1     -10.410  14.928  69.679  1.00  0.00    -0.144 A  
HETATM    7  C   UNL     1     -10.262  14.798  71.066  1.00  0.00     1.192 A  
HETATM    8  C   UNL     1     -10.054  13.809  68.680  1.00  0.00    -0.195 C  
HETATM    9  C   UNL     1      -8.820  12.950  69.120  1.00  0.00     0.728 C  
HETATM   10  C   UNL     1     -10.602  15.849  71.930  1.00  0.00     1.324 A  
HETATM   11  C   UNL     1     -11.298  12.901  68.299  1.00  0.00    -0.291 C  
HETATM   12  O   UNL     1     -11.812  12.273  69.483  1.00  0.00    -0.305 OA 
HETATM   13  C   UNL     1     -12.453  13.684  67.626  1.00  0.00     0.177 C  
HETATM   14  C   UNL     1     -10.949  11.747  67.325  1.00  0.00    -0.318 C  
HETATM   15  C   UNL     1     -10.511  12.248  65.950  1.00  0.00    -0.288 C  
HETATM   16  C   UNL     1     -11.577  13.131  65.309  1.00  0.00    -0.350 C  
HETATM   17  C   UNL     1     -12.075  14.230  66.245  1.00  0.00    -0.433 C  
HETATM   18  H   UNL     1     -12.556  11.730  69.255  1.00  0.00     0.000 HD 
BRANCH   9  19
HETATM   19  N   UNL     1      -7.564  13.695  69.365  1.00  0.00     0.242 NA 
HETATM   20  C   UNL     1      -7.236  14.594  68.256  1.00  0.00    -0.117 C  
HETATM   21  C   UNL     1      -6.454  12.756  69.562  1.00  0.00    -0.077 C  
ENDBRANCH   9  19
ENDBRANCH   2   3
TORSDOF 2
ENDMDL
MODEL      210
REMARK 921   NORMALIZED FREE ENERGY PREDICTED BY IDOCK:    6.33 KCAL/MOL
REMARK 922        TOTAL FREE ENERGY PREDICTED BY IDOCK:    6.82 KCAL/MOL
REMARK 923 INTER-LIGAND FREE ENERGY PREDICTED BY IDOCK:    5.86 KCAL/MOL
REMARK 924 INTRA-LIGAND FREE ENERGY PREDICTED BY IDOCK:    0.96 KCAL/MOL
REMARK 927      BINDING AFFINITY PREDICTED BY RF-SCORE:    0.00 PKD
ROOT
HETATM    1  C   UNL     1     -12.962  13.659  70.972  1.00  0.00    -0.232 C  
HETATM    2  O   UNL     1     -11.640  13.177  71.181  1.00  0.00     0.587 OA 
ENDROOT
BRANCH   2   3
HETATM    3  C   UNL     1     -10.913  12.880  70.062  1.00  0.00     0.662 A  
HETATM    4  C   UNL     1     -11.409  12.793  68.767  1.00  0.00    -0.332 A  
HETATM    5  C   UNL     1     -10.555  12.502  67.699  1.00  0.00    -0.234 A  
HETATM    6  C   UNL     1      -9.184  12.257  67.896  1.00  0.00    -0.190 A  
HETATM    7  C   UNL     1      -8.698  12.343  69.207  1.00  0.00     0.907 A  
HETATM    8  C   UNL     1      -8.296  11.913  66.684  1.00  0.00    -0.117 C  
HETATM    9  C   UNL     1      -6.840  12.481  66.795  1.00  0.00     0.429 C  
HETATM   10  C   UNL     1      -9.551  12.660  70.274  1.00  0.00     4.403 A  
HETATM   11  C   UNL     1      -8.299  10.365  66.333  1.00  0.00    -0.139 C  
HETATM   12  O   UNL     1      -7.802   9.621  67.455  1.00  0.00    -0.095 OA 
HETATM   13  C   UNL     1      -9.701   9.815  65.969  1.00  0.00    -0.319 C  
HETATM   14  C   UNL     1      -7.381   9.997  65.140  1.00  0.00    -0.139 C  
HETATM   15  C   UNL     1      -7.855  10.605  63.821  1.00  0.00     0.116 C  
HETATM   16  C   UNL     1      -9.286  10.184  63.493  1.00  0.00    -0.322 C  
HETATM   17  C   UNL     1     -10.246  10.397  64.661  1.00  0.00    -0.305 C  
HETATM   18  H   UNL     1      -7.804   8.695  67.245  1.00  0.00     0.000 HD 
BRANCH   9  19
HETATM   19  N   UNL     1      -6.727  13.946  66.984  1.00  0.00     0.144 NA 
HETATM   20  C   UNL     1      -6.635  14.308  68.400  1.00  0.00    -0.105 C  
HETATM   21  C   UNL     1      -7.889  14.619  66.393  1.00  0.00     1.139 C  
ENDBRANCH   9  19
ENDBRANCH   2   3
TORSDOF 2
ENDMDL
MODEL      211
REMARK 921   NORMALIZED FREE ENERGY PREDICTED BY IDOCK:    8.52 KCAL/MOL
REMARK 922        TOTAL FREE ENERGY PREDICTED BY IDOCK:    9.27 KCAL/MOL
REMARK 923 INTER-LIGAND FREE ENERGY PREDICTED BY IDOCK:    9.51 KCAL/MOL
REMARK 924 INTRA-LIGAND FREE ENERGY PREDICTED BY IDOCK:   -0.24 KCAL/MOL
REMARK 927      BINDING AFFINITY PREDICTED BY RF-SCORE:    0.00 PKD
ROOT
HETATM    1  C   UNL     1     -13.054  20.472  67.267  1.00  0.00     5.847 C  
HETATM    2  O   UNL     1     -12.855  19.168  67.800  1.00  0.00     4.060 OA 
ENDROOT
BRANCH   2   3
HETATM    3  C   UNL     1     -11.578  18.683  67.771  1.00  0.00     1.344 A  
HETATM    4  C   UNL     1     -11.188  17.445  67.275  1.00  0.00     0.327 A  
HETATM    5  C   UNL     1      -9.840  17.071  67.281  1.00  0.00    -0.260 A  
HETATM    6  C   UNL     1      -8.845  17.909  67.813  1.00  0.00    -0.251 A  
HETATM    7  C   UNL     1      -9.251  19.153  68.313  1.00  0.00    -0.385 A  
HETATM    8  C   UNL     1      -7.379  17.432  67.818  1.00  0.00    -0.184 C  
HETATM    9  C   UNL     1      -6.345  18.588  67.592  1.00  0.00    -0.199 C  
HETATM   10  C   UNL     1     -10.600  19.537  68.283  1.00  0.00    -0.318 A  
HETATM   11  C   UNL     1      -7.016  16.560  69.093  1.00  0.00    -0.225 C  
HETATM   12  O   UNL     1      -7.218  17.342  70.280  1.00  0.00     1.119 OA 
HETATM   13  C   UNL     1      -7.858  15.265  69.217  1.00  0.00    -0.221 C  
HETATM   14  C   UNL     1      -5.536  16.104  69.133  1.00  0.00    -0.112 C  
HETATM   15  C   UNL     1      -5.184  15.141  68.001  1.00  0.00    -0.127 C  
HETATM   16  C   UNL     1      -6.082  13.908  68.016  1.00  0.00    -0.142 C  
HETATM   17  C   UNL     1      -7.566  14.258  68.100  1.00  0.00    -0.134 C  
HETATM   18  H   UNL     1      -7.002  16.820  71.043  1.00  0.00     0.000 HD 
BRANCH   9  19
HETATM   19  N   UNL     1      -6.515  19.377  66.350  1.00  0.00    -0.184 NA 
HETATM   20  C   UNL     1      -5.560  18.977  65.314  1.00  0.00    -0.192 C  
HETATM   21  C   UNL     1      -6.340  20.805  66.635  1.00  0.00    -0.256 C  
ENDBRANCH   9  19
ENDBRANCH   2   3
TORSDOF 2
ENDMDL
MODEL      212
REMARK 921   NORMALIZED FREE ENERGY PREDICTED BY IDOCK:   11.21 KCAL/MOL
REMARK 922        TOTAL FREE ENERGY PREDICTED BY IDOCK:   12.27 KCAL/MOL
REMARK 923 INTER-LIGAND FREE ENERGY PREDICTED BY IDOCK:   12.43 KCAL/MOL
REMARK 924 INTRA-LIGAND FREE ENERGY PREDICTED BY IDOCK:   -0.16 KCAL/MOL
REMARK 927      BINDING AFFINITY PREDICTED BY RF-SCORE:    0.00 PKD
ROOT
HETATM    1  C   UNL     1      -5.719  18.083  73.252  1.00  0.00     5.619 C  
HETATM    2  O   UNL     1      -5.376  18.892  72.132  1.00  0.00    -0.695 OA 
ENDROOT
BRANCH   2   3
HETATM    3  C   UNL     1      -6.125  18.721  71.001  1.00  0.00     0.471 A  
HETATM    4  C   UNL     1      -6.176  19.590  69.919  1.00  0.00    -0.328 A  
HETATM    5  C   UNL     1      -6.968  19.291  68.806  1.00  0.00    -0.365 A  
HETATM    6  C   UNL     1      -7.759  18.130  68.754  1.00  0.00    -0.277 A  
HETATM    7  C   UNL     1      -7.703  17.264  69.854  1.00  0.00     1.265 A  
HETATM    8  C   UNL     1      -8.635  17.866  67.513  1.00  0.00    -0.239 C  
HETATM    9  C   UNL     1      -8.756  16.348  67.145  1.00  0.00    -0.186 C  
HETATM   10  C   UNL     1      -6.889  17.553  70.958  1.00  0.00     3.289 A  
HETATM   11  C   UNL     1     -10.056  18.567  67.597  1.00  0.00    -0.364 C  
HETATM   12  O   UNL     1     -10.768  18.067  68.739  1.00  0.00    -0.329 OA 
HETATM   13  C   UNL     1      -9.980  20.111  67.712  1.00  0.00    -0.549 C  
HETATM   14  C   UNL     1     -10.963  18.281  66.374  1.00  0.00     0.205 C  
HETATM   15  C   UNL     1     -10.413  18.875  65.079  1.00  0.00     1.422 C  
HETATM   16  C   UNL     1     -10.204  20.382  65.199  1.00  0.00     0.567 C  
HETATM   17  C   UNL     1      -9.419  20.772  66.449  1.00  0.00     0.081 C  
HETATM   18  H   UNL     1     -11.618  18.486  68.790  1.00  0.00     0.000 HD 
BRANCH   9  19
HETATM   19  N   UNL     1      -7.481  15.634  66.907  1.00  0.00    -0.186 NA 
HETATM   20  C   UNL     1      -6.608  16.367  65.987  1.00  0.00     1.434 C  
HETATM   21  C   UNL     1      -7.748  14.302  66.353  1.00  0.00     1.598 C  
ENDBRANCH   9  19
ENDBRANCH   2   3
TORSDOF 2
ENDMDL
MODEL      213
REMARK 921   NORMALIZED FREE ENERGY PREDICTED BY IDOCK:   14.58 KCAL/MOL
REMARK 922        TOTAL FREE ENERGY PREDICTED BY IDOCK:   16.05 KCAL/MOL
REMARK 923 INTER-LIGAND FREE ENERGY PREDICTED BY IDOCK:   14.21 KCAL/MOL
REMARK 924 INTRA-LIGAND FREE ENERGY PREDICTED BY IDOCK:    1.84 KCAL/MOL
REMARK 927      BINDING AFFINITY PREDICTED BY RF-SCORE:    0.00 PKD
ROOT
HETATM    1  C   UNL     1     -10.033  14.612  71.627  1.00  0.00     3.374 C  
HETATM    2  O   UNL     1     -10.095  15.838  70.909  1.00  0.00     0.403 OA 
ENDROOT
BRANCH   2   3
HETATM    3  C   UNL     1     -10.470  15.762  69.597  1.00  0.00    -0.289 A  
HETATM    4  C   UNL     1     -11.674  15.256  69.122  1.00  0.00    -0.355 A  
HETATM    5  C   UNL     1     -11.950  15.252  67.751  1.00  0.00     0.020 A  
HETATM    6  C   UNL     1     -11.019  15.724  66.810  1.00  0.00    -0.192 A  
HETATM    7  C   UNL     1      -9.807  16.227  67.301  1.00  0.00    -0.243 A  
HETATM    8  C   UNL     1     -11.367  15.670  65.309  1.00  0.00    -0.139 C  
HETATM    9  C   UNL     1     -10.789  16.874  64.490  1.00  0.00     0.621 C  
HETATM   10  C   UNL     1      -9.542  16.253  68.678  1.00  0.00    -0.237 A  
HETATM   11  C   UNL     1     -11.007  14.276  64.640  1.00  0.00    -0.367 C  
HETATM   12  O   UNL     1      -9.597  14.037  64.764  1.00  0.00    -0.446 OA 
HETATM   13  C   UNL     1     -11.759  13.076  65.268  1.00  0.00    -0.388 C  
HETATM   14  C   UNL     1     -11.316  14.218  63.123  1.00  0.00     2.187 C  
HETATM   15  C   UNL     1     -12.810  14.320  62.820  1.00  0.00     2.577 C  
HETATM   16  C   UNL     1     -13.600  13.223  63.528  1.00  0.00     3.061 C  
HETATM   17  C   UNL     1     -13.269  13.123  65.016  1.00  0.00     0.232 C  
HETATM   18  H   UNL     1      -9.382  13.203  64.364  1.00  0.00     0.000 HD 
BRANCH   9  19
HETATM   19  N   UNL     1     -11.184  18.224  64.953  1.00  0.00    -0.112 NA 
HETATM   20  C   UNL     1     -10.042  19.141  65.002  1.00  0.00     1.906 C  
HETATM   21  C   UNL     1     -11.786  18.140  66.288  1.00  0.00     2.595 C  
ENDBRANCH   9  19
ENDBRANCH   2   3
TORSDOF 2
ENDMDL
MODEL      214
REMARK 921   NORMALIZED FREE ENERGY PREDICTED BY IDOCK:   16.57 KCAL/MOL
REMARK 922        TOTAL FREE ENERGY PREDICTED BY IDOCK:   18.26 KCAL/MOL
REMARK 923 INTER-LIGAND FREE ENERGY PREDICTED BY IDOCK:   17.79 KCAL/MOL
REMARK 924 INTRA-LIGAND FREE ENERGY PREDICTED BY IDOCK:    0.47 KCAL/MOL
REMARK 927      BINDING AFFINITY PREDICTED BY RF-SCORE:    0.00 PKD
ROOT
HETATM    1  C   UNL     1     -11.596  11.005  69.760  1.00  0.00    -0.325 C  
HETATM    2  O   UNL     1     -12.492  11.833  69.029  1.00  0.00    -0.175 OA 
ENDROOT
BRANCH   2   3
HETATM    3  C   UNL     1     -12.076  13.111  68.775  1.00  0.00    -0.191 A  
HETATM    4  C   UNL     1     -12.849  14.124  68.221  1.00  0.00     1.341 A  
HETATM    5  C   UNL     1     -12.313  15.402  68.031  1.00  0.00     0.567 A  
HETATM    6  C   UNL     1     -10.978  15.697  68.358  1.00  0.00    -0.308 A  
HETATM    7  C   UNL     1     -10.208  14.666  68.911  1.00  0.00    -0.241 A  
HETATM    8  C   UNL     1     -10.433  17.116  68.101  1.00  0.00    -0.366 C  
HETATM    9  C   UNL     1      -9.394  17.590  69.174  1.00  0.00     0.015 C  
HETATM   10  C   UNL     1     -10.755  13.392  69.125  1.00  0.00    -0.097 A  
HETATM   11  C   UNL     1      -9.884  17.309  66.624  1.00  0.00    -0.295 C  
HETATM   12  O   UNL     1      -8.809  16.387  66.390  1.00  0.00    -0.254 OA 
HETATM   13  C   UNL     1     -10.959  17.090  65.530  1.00  0.00     0.025 C  
HETATM   14  C   UNL     1      -9.297  18.719  66.360  1.00  0.00    -0.321 C  
HETATM   15  C   UNL     1     -10.352  19.821  66.434  1.00  0.00    -0.619 C  
HETATM   16  C   UNL     1     -11.495  19.569  65.455  1.00  0.00     1.278 C  
HETATM   17  C   UNL     1     -12.061  18.154  65.558  1.00  0.00     5.387 C  
HETATM   18  H   UNL     1      -8.481  16.502  65.506  1.00  0.00     0.000 HD 
BRANCH   9  19
HETATM   19  N   UNL     1      -9.861  17.580  70.579  1.00  0.00     2.097 NA 
HETATM   20  C   UNL     1      -9.385  18.749  71.322  1.00  0.00     5.320 C  
HETATM   21  C   UNL     1      -9.397  16.363  71.253  1.00  0.00     4.950 C  
ENDBRANCH   9  19
ENDBRANCH   2   3
TORSDOF 2
ENDMDL
MODEL      215
REMARK 921   NORMALIZED FREE ENERGY PREDICTED BY IDOCK:   43.61 KCAL/MOL
REMARK 922        TOTAL FREE ENERGY PREDICTED BY IDOCK:   48.47 KCAL/MOL
REMARK 923 INTER-LIGAND FREE ENERGY PREDICTED BY IDOCK:   47.99 KCAL/MOL
REMARK 924 INTRA-LIGAND FREE ENERGY PREDICTED BY IDOCK:    0.48 KCAL/MOL
REMARK 927      BINDING AFFINITY PREDICTED BY RF-SCORE:    0.00 PKD
ROOT
HETATM    1  C   UNL     1     -11.616  11.066  69.646  1.00  0.00    -0.318 C  
HETATM    2  O   UNL     1     -12.585  11.588  68.745  1.00  0.00    -0.183 OA 
ENDROOT
BRANCH   2   3
HETATM    3  C   UNL     1     -12.223  12.696  68.030  1.00  0.00     0.119 A  
HETATM    4  C   UNL     1     -13.066  13.467  67.240  1.00  0.00     2.547 A  
HETATM    5  C   UNL     1     -12.577  14.595  66.572  1.00  0.00     0.273 A  
HETATM    6  C   UNL     1     -11.223  14.967  66.648  1.00  0.00    -0.311 A  
HETATM    7  C   UNL     1     -10.383  14.179  67.444  1.00  0.00    -0.256 A  
HETATM    8  C   UNL     1     -10.735  16.204  65.868  1.00  0.00    -0.261 C  
HETATM    9  C   UNL     1      -9.610  17.005  66.607  1.00  0.00    -0.266 C  
HETATM   10  C   UNL     1     -10.880  13.063  68.133  1.00  0.00    -0.267 A  
HETATM   11  C   UNL     1     -10.334  15.872  64.369  1.00  0.00     1.188 C  
HETATM   12  O   UNL     1      -9.267  14.911  64.362  1.00  0.00     1.109 OA 
HETATM   13  C   UNL     1     -11.503  15.304  63.525  1.00  0.00     1.535 C  
HETATM   14  C   UNL     1      -9.805  17.097  63.582  1.00  0.00    10.521 C  
HETATM   15  C   UNL     1     -10.871  18.172  63.375  1.00  0.00    11.932 C  
HETATM   16  C   UNL     1     -12.096  17.613  62.657  1.00  0.00    16.930 C  
HETATM   17  C   UNL     1     -12.619  16.327  63.293  1.00  0.00     4.581 C  
HETATM   18  H   UNL     1      -9.027  14.712  63.465  1.00  0.00     0.000 HD 
BRANCH   9  19
HETATM   19  N   UNL     1      -9.941  17.483  67.969  1.00  0.00    -0.294 NA 
HETATM   20  C   UNL     1      -9.413  18.827  68.219  1.00  0.00    -0.349 C  
HETATM   21  C   UNL     1      -9.396  16.562  68.971  1.00  0.00    -0.239 C  
ENDBRANCH   9  19
ENDBRANCH   2   3
TORSDOF 2
ENDMDL
