MODEL        1
REMARK 921   NORMALIZED FREE ENERGY PREDICTED BY IDOCK:   -6.81 KCAL/MOL
REMARK 922        TOTAL FREE ENERGY PREDICTED BY IDOCK:  -13.80 KCAL/MOL
REMARK 923 INTER-LIGAND FREE ENERGY PREDICTED BY IDOCK:  -11.58 KCAL/MOL
REMARK 924 INTRA-LIGAND FREE ENERGY PREDICTED BY IDOCK:   -2.22 KCAL/MOL
REMARK 927      BINDING AFFINITY PREDICTED BY RF-SCORE:    0.00 PKD
ROOT
HETATM    1  C   UNL     1      -9.727   8.985  69.782  1.00  0.00    -0.175 C  
HETATM    2  O   UNL     1     -11.149   8.930  69.791  1.00  0.00    -0.200 OA 
ENDROOT
BRANCH   2   3
HETATM    3  C   UNL     1     -11.791   9.898  70.527  1.00  0.00    -0.270 A  
HETATM    4  C   UNL     1     -12.677   9.698  71.597  1.00  0.00    -0.407 A  
HETATM    5  C   UNL     1     -12.165  12.299  70.672  1.00  0.00    -0.378 A  
HETATM    6  C   UNL     1     -13.288  10.813  72.198  1.00  0.00    -0.314 A  
HETATM    7  C   UNL     1     -13.038  12.118  71.752  1.00  0.00    -0.457 A  
HETATM    8  C   UNL     1     -11.555  11.197  70.064  1.00  0.00    -0.421 A  
BRANCH   4   9
HETATM    9  O   UNL     1     -12.948   8.408  71.971  1.00  0.00    -0.335 OA 
HETATM   10  C   UNL     1     -14.198   7.856  71.584  1.00  0.00    -0.459 C  
ENDBRANCH   4   9
BRANCH   7  11
HETATM   11  C   UNL     1     -13.851  13.279  72.324  1.00  0.00    -0.637 C  
BRANCH  11  12
HETATM   12  C   UNL     1     -13.607  14.492  71.416  1.00  0.00    -0.381 C  
BRANCH  12  13
HETATM   13  N   UNL     1     -12.940  15.715  71.874  1.00  0.00    -0.445 NA 
HETATM   14  C   UNL     1     -12.821  15.783  73.329  1.00  0.00    -0.542 C  
BRANCH  13  15
HETATM   15  C   UNL     1     -11.611  15.897  71.231  1.00  0.00    -0.452 C  
BRANCH  15  16
HETATM   16  C   UNL     1     -11.496  16.070  69.683  1.00  0.00    -0.326 C  
BRANCH  16  17
HETATM   17  C   UNL     1     -10.122  15.691  69.084  1.00  0.00    -0.237 C  
BRANCH  17  18
HETATM   18  C   UNL     1      -9.877  15.862  67.559  1.00  0.00    -0.230 C  
HETATM   19  N   UNL     1     -10.310  18.442  67.040  1.00  0.00    -0.376 NA 
HETATM   20  C   UNL     1      -8.340  15.592  67.189  1.00  0.00    -0.237 C  
HETATM   21  C   UNL     1     -10.124  17.314  67.251  1.00  0.00    -0.300 C  
HETATM   22  C   UNL     1      -7.814  14.171  67.451  1.00  0.00    -0.195 C  
HETATM   23  C   UNL     1      -7.363  16.545  67.911  1.00  0.00    -0.148 C  
BRANCH  18  24
HETATM   24  C   UNL     1     -10.855  14.938  66.825  1.00  0.00    -0.320 A  
HETATM   25  C   UNL     1     -11.015  13.591  67.193  1.00  0.00    -0.302 A  
HETATM   26  C   UNL     1     -11.756  12.695  66.416  1.00  0.00    -0.405 A  
HETATM   27  C   UNL     1     -11.515  15.376  65.663  1.00  0.00    -0.049 A  
HETATM   28  C   UNL     1     -12.389  13.160  65.252  1.00  0.00    -0.481 A  
HETATM   29  C   UNL     1     -12.284  14.502  64.902  1.00  0.00    -0.409 A  
BRANCH  26  30
HETATM   30  O   UNL     1     -11.884  11.360  66.704  1.00  0.00    -0.399 OA 
HETATM   31  C   UNL     1     -10.736  10.540  66.514  1.00  0.00    -0.121 C  
ENDBRANCH  26  30
BRANCH  28  32
HETATM   32  O   UNL     1     -13.062  12.226  64.500  1.00  0.00    -0.791 OA 
HETATM   33  C   UNL     1     -12.491  11.888  63.242  1.00  0.00    -0.384 C  
ENDBRANCH  28  32
ENDBRANCH  18  24
ENDBRANCH  17  18
ENDBRANCH  16  17
ENDBRANCH  15  16
ENDBRANCH  13  15
ENDBRANCH  12  13
ENDBRANCH  11  12
ENDBRANCH   7  11
ENDBRANCH   2   3
TORSDOF 12
ENDMDL
MODEL        2
REMARK 921   NORMALIZED FREE ENERGY PREDICTED BY IDOCK:   -6.48 KCAL/MOL
REMARK 922        TOTAL FREE ENERGY PREDICTED BY IDOCK:  -13.25 KCAL/MOL
REMARK 923 INTER-LIGAND FREE ENERGY PREDICTED BY IDOCK:  -10.42 KCAL/MOL
REMARK 924 INTRA-LIGAND FREE ENERGY PREDICTED BY IDOCK:   -2.83 KCAL/MOL
REMARK 927      BINDING AFFINITY PREDICTED BY RF-SCORE:    0.00 PKD
ROOT
HETATM    1  C   UNL     1     -13.185  16.061  73.337  1.00  0.00    -0.543 C  
HETATM    2  O   UNL     1     -13.950  15.388  72.342  1.00  0.00    -0.500 OA 
ENDROOT
BRANCH   2   3
HETATM    3  C   UNL     1     -13.361  14.290  71.762  1.00  0.00    -0.371 A  
HETATM    4  C   UNL     1     -12.591  14.264  70.588  1.00  0.00    -0.355 A  
HETATM    5  C   UNL     1     -13.178  11.867  71.929  1.00  0.00    -0.467 A  
HETATM    6  C   UNL     1     -12.114  13.032  70.109  1.00  0.00    -0.377 A  
HETATM    7  C   UNL     1     -12.394  11.827  70.770  1.00  0.00    -0.433 A  
HETATM    8  C   UNL     1     -13.661  13.088  72.414  1.00  0.00    -0.628 A  
BRANCH   4   9
HETATM    9  O   UNL     1     -12.385  15.449  69.932  1.00  0.00    -0.341 OA 
HETATM   10  C   UNL     1     -11.131  16.092  70.105  1.00  0.00    -0.371 C  
ENDBRANCH   4   9
BRANCH   7  11
HETATM   11  C   UNL     1     -11.998  10.502  70.120  1.00  0.00    -0.398 C  
BRANCH  11  12
HETATM   12  C   UNL     1     -11.343   9.642  71.210  1.00  0.00    -0.388 C  
BRANCH  12  13
HETATM   13  N   UNL     1     -11.091   8.206  71.055  1.00  0.00    -0.249 NA 
HETATM   14  C   UNL     1     -11.986   7.384  71.868  1.00  0.00    -0.302 C  
BRANCH  13  15
HETATM   15  C   UNL     1     -11.141   7.782  69.630  1.00  0.00    -0.042 C  
BRANCH  15  16
HETATM   16  C   UNL     1      -9.857   7.828  68.744  1.00  0.00    -0.171 C  
BRANCH  16  17
HETATM   17  C   UNL     1      -9.864   8.910  67.640  1.00  0.00    -0.229 C  
BRANCH  17  18
HETATM   18  C   UNL     1      -8.871  10.103  67.728  1.00  0.00    -0.125 C  
HETATM   19  N   UNL     1      -7.919  10.071  70.219  1.00  0.00    -0.184 NA 
HETATM   20  C   UNL     1      -7.605   9.871  66.771  1.00  0.00    -0.095 C  
HETATM   21  C   UNL     1      -8.330  10.100  69.132  1.00  0.00    -0.154 C  
HETATM   22  C   UNL     1      -7.894   9.792  65.263  1.00  0.00    -0.120 C  
HETATM   23  C   UNL     1      -6.806   8.595  67.116  1.00  0.00    -0.067 C  
BRANCH  18  24
HETATM   24  C   UNL     1      -9.654  11.382  67.409  1.00  0.00    -0.185 A  
HETATM   25  C   UNL     1     -10.814  11.359  66.617  1.00  0.00    -0.339 A  
HETATM   26  C   UNL     1     -11.424  12.533  66.163  1.00  0.00    -0.377 A  
HETATM   27  C   UNL     1      -9.146  12.640  67.779  1.00  0.00    -0.192 A  
HETATM   28  C   UNL     1     -10.883  13.774  66.538  1.00  0.00    -0.287 A  
HETATM   29  C   UNL     1      -9.765  13.814  67.364  1.00  0.00    -0.235 A  
BRANCH  26  30
HETATM   30  O   UNL     1     -12.519  12.555  65.337  1.00  0.00    -0.630 OA 
HETATM   31  C   UNL     1     -12.306  12.241  63.965  1.00  0.00    -0.475 C  
ENDBRANCH  26  30
BRANCH  28  32
HETATM   32  O   UNL     1     -11.492  14.893  66.024  1.00  0.00    -0.343 OA 
HETATM   33  C   UNL     1     -10.807  15.568  64.976  1.00  0.00    -0.450 C  
ENDBRANCH  28  32
ENDBRANCH  18  24
ENDBRANCH  17  18
ENDBRANCH  16  17
ENDBRANCH  15  16
ENDBRANCH  13  15
ENDBRANCH  12  13
ENDBRANCH  11  12
ENDBRANCH   7  11
ENDBRANCH   2   3
TORSDOF 12
ENDMDL
MODEL        3
REMARK 921   NORMALIZED FREE ENERGY PREDICTED BY IDOCK:   -6.47 KCAL/MOL
REMARK 922        TOTAL FREE ENERGY PREDICTED BY IDOCK:  -13.23 KCAL/MOL
REMARK 923 INTER-LIGAND FREE ENERGY PREDICTED BY IDOCK:  -10.86 KCAL/MOL
REMARK 924 INTRA-LIGAND FREE ENERGY PREDICTED BY IDOCK:   -2.37 KCAL/MOL
REMARK 927      BINDING AFFINITY PREDICTED BY RF-SCORE:    0.00 PKD
ROOT
HETATM    1  C   UNL     1     -10.653  15.852  70.107  1.00  0.00    -0.295 C  
HETATM    2  O   UNL     1     -12.050  15.573  70.136  1.00  0.00    -0.340 OA 
ENDROOT
BRANCH   2   3
HETATM    3  C   UNL     1     -12.414  14.342  70.626  1.00  0.00    -0.358 A  
HETATM    4  C   UNL     1     -13.113  14.078  71.815  1.00  0.00    -0.370 A  
HETATM    5  C   UNL     1     -12.191  11.949  70.232  1.00  0.00    -0.353 A  
HETATM    6  C   UNL     1     -13.349  12.743  72.188  1.00  0.00    -0.593 A  
HETATM    7  C   UNL     1     -12.901  11.670  71.406  1.00  0.00    -0.461 A  
HETATM    8  C   UNL     1     -11.946  13.273  69.853  1.00  0.00    -0.400 A  
BRANCH   4   9
HETATM    9  O   UNL     1     -13.485  15.146  72.588  1.00  0.00    -0.399 OA 
HETATM   10  C   UNL     1     -12.605  15.548  73.629  1.00  0.00    -0.582 C  
ENDBRANCH   4   9
BRANCH   7  11
HETATM   11  C   UNL     1     -13.034  10.243  71.937  1.00  0.00    -0.554 C  
BRANCH  11  12
HETATM   12  C   UNL     1     -11.695   9.539  71.682  1.00  0.00    -0.390 C  
BRANCH  12  13
HETATM   13  N   UNL     1     -11.587   8.114  71.350  1.00  0.00    -0.270 NA 
HETATM   14  C   UNL     1     -12.876   7.426  71.390  1.00  0.00    -0.365 C  
BRANCH  13  15
HETATM   15  C   UNL     1     -10.918   7.897  70.040  1.00  0.00    -0.207 C  
BRANCH  15  16
HETATM   16  C   UNL     1      -9.864   8.919  69.509  1.00  0.00    -0.180 C  
BRANCH  16  17
HETATM   17  C   UNL     1     -10.161   9.493  68.105  1.00  0.00    -0.214 C  
BRANCH  17  18
HETATM   18  C   UNL     1      -9.171  10.506  67.464  1.00  0.00    -0.152 C  
HETATM   19  N   UNL     1      -7.471  11.183  69.404  1.00  0.00    -0.075 NA 
HETATM   20  C   UNL     1      -8.284   9.804  66.327  1.00  0.00    -0.116 C  
HETATM   21  C   UNL     1      -8.208  10.902  68.551  1.00  0.00    -0.140 C  
HETATM   22  C   UNL     1      -9.043   9.265  65.104  1.00  0.00    -0.263 C  
HETATM   23  C   UNL     1      -7.440   8.624  66.856  1.00  0.00    -0.083 C  
BRANCH  18  24
HETATM   24  C   UNL     1      -9.992  11.696  66.954  1.00  0.00    -0.225 A  
HETATM   25  C   UNL     1     -11.176  11.515  66.219  1.00  0.00    -0.286 A  
HETATM   26  C   UNL     1     -11.826  12.581  65.588  1.00  0.00    -0.438 A  
HETATM   27  C   UNL     1      -9.500  13.008  67.079  1.00  0.00    -0.237 A  
HETATM   28  C   UNL     1     -11.300  13.877  65.720  1.00  0.00    -0.307 A  
HETATM   29  C   UNL     1     -10.158  14.080  66.487  1.00  0.00    -0.287 A  
BRANCH  26  30
HETATM   30  O   UNL     1     -12.946  12.439  64.810  1.00  0.00    -0.786 OA 
HETATM   31  C   UNL     1     -12.755  12.020  63.464  1.00  0.00    -0.443 C  
ENDBRANCH  26  30
BRANCH  28  32
HETATM   32  O   UNL     1     -11.950  14.879  65.039  1.00  0.00    -0.336 OA 
HETATM   33  C   UNL     1     -11.151  15.966  64.587  1.00  0.00    -0.354 C  
ENDBRANCH  28  32
ENDBRANCH  18  24
ENDBRANCH  17  18
ENDBRANCH  16  17
ENDBRANCH  15  16
ENDBRANCH  13  15
ENDBRANCH  12  13
ENDBRANCH  11  12
ENDBRANCH   7  11
ENDBRANCH   2   3
TORSDOF 12
ENDMDL
MODEL        4
REMARK 921   NORMALIZED FREE ENERGY PREDICTED BY IDOCK:   -6.34 KCAL/MOL
REMARK 922        TOTAL FREE ENERGY PREDICTED BY IDOCK:  -13.01 KCAL/MOL
REMARK 923 INTER-LIGAND FREE ENERGY PREDICTED BY IDOCK:  -11.32 KCAL/MOL
REMARK 924 INTRA-LIGAND FREE ENERGY PREDICTED BY IDOCK:   -1.69 KCAL/MOL
REMARK 927      BINDING AFFINITY PREDICTED BY RF-SCORE:    0.00 PKD
ROOT
HETATM    1  C   UNL     1     -11.112   6.113  72.193  1.00  0.00    -0.275 C  
HETATM    2  O   UNL     1     -11.884   6.674  71.136  1.00  0.00    -0.332 OA 
ENDROOT
BRANCH   2   3
HETATM    3  C   UNL     1     -12.131   8.024  71.213  1.00  0.00    -0.291 A  
HETATM    4  C   UNL     1     -11.293   9.063  70.776  1.00  0.00    -0.277 A  
HETATM    5  C   UNL     1     -13.706   9.666  72.080  1.00  0.00    -0.396 A  
HETATM    6  C   UNL     1     -11.686  10.395  70.991  1.00  0.00    -0.430 A  
HETATM    7  C   UNL     1     -12.891  10.713  71.635  1.00  0.00    -0.570 A  
HETATM    8  C   UNL     1     -13.324   8.336  71.875  1.00  0.00    -0.364 A  
BRANCH   4   9
HETATM    9  O   UNL     1     -10.095   8.722  70.205  1.00  0.00    -0.181 OA 
HETATM   10  C   UNL     1      -8.911   9.243  70.791  1.00  0.00    -0.225 C  
ENDBRANCH   4   9
BRANCH   7  11
HETATM   11  C   UNL     1     -13.192  12.167  71.994  1.00  0.00    -0.496 C  
BRANCH  11  12
HETATM   12  C   UNL     1     -12.519  13.044  70.930  1.00  0.00    -0.310 C  
BRANCH  12  13
HETATM   13  N   UNL     1     -12.845  14.461  70.735  1.00  0.00    -0.351 NA 
HETATM   14  C   UNL     1     -14.068  14.861  71.428  1.00  0.00    -0.467 C  
BRANCH  13  15
HETATM   15  C   UNL     1     -11.714  15.349  71.114  1.00  0.00    -0.368 C  
BRANCH  15  16
HETATM   16  C   UNL     1     -11.191  16.436  70.123  1.00  0.00    -0.260 C  
BRANCH  16  17
HETATM   17  C   UNL     1      -9.941  16.031  69.309  1.00  0.00    -0.252 C  
BRANCH  17  18
HETATM   18  C   UNL     1      -9.812  16.476  67.826  1.00  0.00    -0.240 C  
HETATM   19  N   UNL     1     -10.832  18.938  67.718  1.00  0.00    -0.345 NA 
HETATM   20  C   UNL     1      -8.273  16.619  67.398  1.00  0.00    -0.189 C  
HETATM   21  C   UNL     1     -10.390  17.864  67.749  1.00  0.00    -0.387 C  
HETATM   22  C   UNL     1      -7.433  15.332  67.430  1.00  0.00    -0.239 C  
HETATM   23  C   UNL     1      -7.499  17.652  68.246  1.00  0.00    -0.251 C  
BRANCH  18  24
HETATM   24  C   UNL     1     -10.596  15.473  66.971  1.00  0.00    -0.311 A  
HETATM   25  C   UNL     1     -11.120  14.289  67.517  1.00  0.00    -0.309 A  
HETATM   26  C   UNL     1     -11.666  13.282  66.715  1.00  0.00    -0.385 A  
HETATM   27  C   UNL     1     -10.683  15.639  65.577  1.00  0.00    -0.403 A  
HETATM   28  C   UNL     1     -11.724  13.472  65.324  1.00  0.00    -0.322 A  
HETATM   29  C   UNL     1     -11.256  14.660  64.773  1.00  0.00    -0.395 A  
BRANCH  26  30
HETATM   30  O   UNL     1     -12.130  12.086  67.200  1.00  0.00    -0.587 OA 
HETATM   31  C   UNL     1     -11.159  11.114  67.571  1.00  0.00    -0.291 C  
ENDBRANCH  26  30
BRANCH  28  32
HETATM   32  O   UNL     1     -12.224  12.430  64.579  1.00  0.00    -0.417 OA 
HETATM   33  C   UNL     1     -11.791  12.346  63.227  1.00  0.00    -0.402 C  
ENDBRANCH  28  32
ENDBRANCH  18  24
ENDBRANCH  17  18
ENDBRANCH  16  17
ENDBRANCH  15  16
ENDBRANCH  13  15
ENDBRANCH  12  13
ENDBRANCH  11  12
ENDBRANCH   7  11
ENDBRANCH   2   3
TORSDOF 12
ENDMDL
MODEL        5
REMARK 921   NORMALIZED FREE ENERGY PREDICTED BY IDOCK:   -6.23 KCAL/MOL
REMARK 922        TOTAL FREE ENERGY PREDICTED BY IDOCK:  -12.82 KCAL/MOL
REMARK 923 INTER-LIGAND FREE ENERGY PREDICTED BY IDOCK:  -10.82 KCAL/MOL
REMARK 924 INTRA-LIGAND FREE ENERGY PREDICTED BY IDOCK:   -2.00 KCAL/MOL
REMARK 927      BINDING AFFINITY PREDICTED BY RF-SCORE:    0.00 PKD
ROOT
HETATM    1  C   UNL     1     -13.857  15.749  72.818  1.00  0.00    -0.523 C  
HETATM    2  O   UNL     1     -13.619  15.471  71.441  1.00  0.00    -0.501 OA 
ENDROOT
BRANCH   2   3
HETATM    3  C   UNL     1     -13.095  14.234  71.152  1.00  0.00    -0.343 A  
HETATM    4  C   UNL     1     -12.264  13.899  70.070  1.00  0.00    -0.344 A  
HETATM    5  C   UNL     1     -13.128  11.899  71.842  1.00  0.00    -0.474 A  
HETATM    6  C   UNL     1     -11.868  12.561  69.900  1.00  0.00    -0.373 A  
HETATM    7  C   UNL     1     -12.286  11.552  70.779  1.00  0.00    -0.472 A  
HETATM    8  C   UNL     1     -13.532  13.227  72.020  1.00  0.00    -0.596 A  
BRANCH   4   9
HETATM    9  O   UNL     1     -11.922  14.895  69.195  1.00  0.00    -0.304 OA 
HETATM   10  C   UNL     1     -10.780  15.682  69.501  1.00  0.00    -0.271 C  
ENDBRANCH   4   9
BRANCH   7  11
HETATM   11  C   UNL     1     -11.969  10.092  70.456  1.00  0.00    -0.400 C  
BRANCH  11  12
HETATM   12  C   UNL     1     -10.446   9.984  70.302  1.00  0.00    -0.272 C  
BRANCH  12  13
HETATM   13  N   UNL     1      -9.800   9.293  69.182  1.00  0.00    -0.162 NA 
HETATM   14  C   UNL     1     -10.535   8.106  68.751  1.00  0.00    -0.174 C  
BRANCH  13  15
HETATM   15  C   UNL     1      -9.556  10.204  68.032  1.00  0.00    -0.145 C  
BRANCH  15  16
HETATM   16  C   UNL     1     -10.579  10.288  66.856  1.00  0.00    -0.282 C  
BRANCH  16  17
HETATM   17  C   UNL     1     -11.212  11.681  66.640  1.00  0.00    -0.362 C  
BRANCH  17  18
HETATM   18  C   UNL     1     -10.719  12.576  65.468  1.00  0.00    -0.303 C  
HETATM   19  N   UNL     1      -9.258  10.983  63.906  1.00  0.00    -0.191 NA 
HETATM   20  C   UNL     1     -11.947  13.071  64.564  1.00  0.00    -0.450 C  
HETATM   21  C   UNL     1      -9.887  11.690  64.581  1.00  0.00    -0.227 C  
HETATM   22  C   UNL     1     -12.984  13.973  65.254  1.00  0.00    -0.315 C  
HETATM   23  C   UNL     1     -12.748  11.910  63.936  1.00  0.00    -0.413 C  
BRANCH  18  24
HETATM   24  C   UNL     1      -9.902  13.723  66.074  1.00  0.00    -0.298 A  
HETATM   25  C   UNL     1     -10.074  15.053  65.654  1.00  0.00    -0.390 A  
HETATM   26  C   UNL     1      -9.208  16.075  66.057  1.00  0.00    -0.340 A  
HETATM   27  C   UNL     1      -8.847  13.456  66.964  1.00  0.00    -0.217 A  
HETATM   28  C   UNL     1      -8.154  15.771  66.935  1.00  0.00    -0.257 A  
HETATM   29  C   UNL     1      -8.001  14.470  67.400  1.00  0.00    -0.221 A  
BRANCH  26  30
HETATM   30  O   UNL     1      -9.302  17.372  65.621  1.00  0.00    -0.496 OA 
HETATM   31  C   UNL     1     -10.378  18.153  66.128  1.00  0.00    -0.385 C  
ENDBRANCH  26  30
BRANCH  28  32
HETATM   32  O   UNL     1      -7.305  16.802  67.259  1.00  0.00    -0.151 OA 
HETATM   33  C   UNL     1      -5.916  16.494  67.307  1.00  0.00    -0.166 C  
ENDBRANCH  28  32
ENDBRANCH  18  24
ENDBRANCH  17  18
ENDBRANCH  16  17
ENDBRANCH  15  16
ENDBRANCH  13  15
ENDBRANCH  12  13
ENDBRANCH  11  12
ENDBRANCH   7  11
ENDBRANCH   2   3
TORSDOF 12
ENDMDL
MODEL        6
REMARK 921   NORMALIZED FREE ENERGY PREDICTED BY IDOCK:   -6.17 KCAL/MOL
REMARK 922        TOTAL FREE ENERGY PREDICTED BY IDOCK:  -12.72 KCAL/MOL
REMARK 923 INTER-LIGAND FREE ENERGY PREDICTED BY IDOCK:  -10.87 KCAL/MOL
REMARK 924 INTRA-LIGAND FREE ENERGY PREDICTED BY IDOCK:   -1.86 KCAL/MOL
REMARK 927      BINDING AFFINITY PREDICTED BY RF-SCORE:    0.00 PKD
ROOT
HETATM    1  C   UNL     1     -11.464   6.359  69.977  1.00  0.00    -0.428 C  
HETATM    2  O   UNL     1     -10.706   7.427  70.535  1.00  0.00    -0.224 OA 
ENDROOT
BRANCH   2   3
HETATM    3  C   UNL     1     -11.376   8.610  70.734  1.00  0.00    -0.263 A  
HETATM    4  C   UNL     1     -11.175   9.822  70.052  1.00  0.00    -0.251 A  
HETATM    5  C   UNL     1     -13.029   9.693  72.158  1.00  0.00    -0.493 A  
HETATM    6  C   UNL     1     -11.919  10.953  70.431  1.00  0.00    -0.453 A  
HETATM    7  C   UNL     1     -12.852  10.903  71.477  1.00  0.00    -0.560 A  
HETATM    8  C   UNL     1     -12.292   8.562  71.792  1.00  0.00    -0.388 A  
BRANCH   4   9
HETATM    9  O   UNL     1     -10.214   9.854  69.077  1.00  0.00    -0.181 OA 
HETATM   10  C   UNL     1     -10.609   9.544  67.748  1.00  0.00    -0.261 C  
ENDBRANCH   4   9
BRANCH   7  11
HETATM   11  C   UNL     1     -13.510  12.195  71.961  1.00  0.00    -0.388 C  
BRANCH  11  12
HETATM   12  C   UNL     1     -12.744  13.360  71.321  1.00  0.00    -0.338 C  
BRANCH  12  13
HETATM   13  N   UNL     1     -13.369  14.644  70.987  1.00  0.00    -0.379 NA 
HETATM   14  C   UNL     1     -13.956  15.307  72.150  1.00  0.00    -0.549 C  
BRANCH  13  15
HETATM   15  C   UNL     1     -12.426  15.556  70.285  1.00  0.00    -0.367 C  
BRANCH  15  16
HETATM   16  C   UNL     1     -11.290  14.980  69.383  1.00  0.00    -0.314 C  
BRANCH  16  17
HETATM   17  C   UNL     1     -11.596  14.980  67.868  1.00  0.00    -0.350 C  
BRANCH  17  18
HETATM   18  C   UNL     1     -10.446  14.726  66.852  1.00  0.00    -0.277 C  
HETATM   19  N   UNL     1      -8.792  13.009  68.045  1.00  0.00    -0.185 NA 
HETATM   20  C   UNL     1     -10.989  13.975  65.543  1.00  0.00    -0.309 C  
HETATM   21  C   UNL     1      -9.501  13.761  67.516  1.00  0.00    -0.220 C  
HETATM   22  C   UNL     1     -12.018  14.740  64.694  1.00  0.00    -0.448 C  
HETATM   23  C   UNL     1     -11.630  12.604  65.849  1.00  0.00    -0.443 C  
BRANCH  18  24
HETATM   24  C   UNL     1      -9.784  16.076  66.554  1.00  0.00    -0.284 A  
HETATM   25  C   UNL     1      -8.402  16.186  66.327  1.00  0.00    -0.322 A  
HETATM   26  C   UNL     1      -7.762  17.427  66.245  1.00  0.00    -0.305 A  
HETATM   27  C   UNL     1     -10.523  17.269  66.648  1.00  0.00    -0.257 A  
HETATM   28  C   UNL     1      -8.526  18.600  66.358  1.00  0.00    -0.272 A  
HETATM   29  C   UNL     1      -9.903  18.508  66.532  1.00  0.00    -0.380 A  
BRANCH  26  30
HETATM   30  O   UNL     1      -6.408  17.578  66.088  1.00  0.00    -0.221 OA 
HETATM   31  C   UNL     1      -5.570  17.042  67.106  1.00  0.00    -0.163 C  
ENDBRANCH  26  30
BRANCH  28  32
HETATM   32  O   UNL     1      -7.839  19.790  66.320  1.00  0.00    -0.299 OA 
HETATM   33  C   UNL     1      -7.709  20.491  67.551  1.00  0.00    -0.297 C  
ENDBRANCH  28  32
ENDBRANCH  18  24
ENDBRANCH  17  18
ENDBRANCH  16  17
ENDBRANCH  15  16
ENDBRANCH  13  15
ENDBRANCH  12  13
ENDBRANCH  11  12
ENDBRANCH   7  11
ENDBRANCH   2   3
TORSDOF 12
ENDMDL
MODEL        7
REMARK 921   NORMALIZED FREE ENERGY PREDICTED BY IDOCK:   -6.15 KCAL/MOL
REMARK 922        TOTAL FREE ENERGY PREDICTED BY IDOCK:  -12.68 KCAL/MOL
REMARK 923 INTER-LIGAND FREE ENERGY PREDICTED BY IDOCK:  -10.49 KCAL/MOL
REMARK 924 INTRA-LIGAND FREE ENERGY PREDICTED BY IDOCK:   -2.19 KCAL/MOL
REMARK 927      BINDING AFFINITY PREDICTED BY RF-SCORE:    0.00 PKD
ROOT
HETATM    1  C   UNL     1     -11.761  15.844  71.331  1.00  0.00    -0.467 C  
HETATM    2  O   UNL     1     -11.113  16.751  70.445  1.00  0.00    -0.196 OA 
ENDROOT
BRANCH   2   3
HETATM    3  C   UNL     1     -10.982  16.339  69.141  1.00  0.00    -0.324 A  
HETATM    4  C   UNL     1     -10.309  17.009  68.106  1.00  0.00    -0.347 A  
HETATM    5  C   UNL     1     -11.686  14.622  67.565  1.00  0.00    -0.403 A  
HETATM    6  C   UNL     1     -10.328  16.462  66.811  1.00  0.00    -0.293 A  
HETATM    7  C   UNL     1     -11.006  15.268  66.526  1.00  0.00    -0.295 A  
HETATM    8  C   UNL     1     -11.678  15.159  68.857  1.00  0.00    -0.357 A  
BRANCH   4   9
HETATM    9  O   UNL     1      -9.707  18.203  68.402  1.00  0.00    -0.319 OA 
HETATM   10  C   UNL     1     -10.365  19.395  67.994  1.00  0.00    -0.425 C  
ENDBRANCH   4   9
BRANCH   7  11
HETATM   11  C   UNL     1     -11.138  14.805  65.076  1.00  0.00    -0.412 C  
BRANCH  11  12
HETATM   12  C   UNL     1     -12.295  13.798  65.027  1.00  0.00    -0.428 C  
BRANCH  12  13
HETATM   13  N   UNL     1     -12.101  12.364  64.787  1.00  0.00    -0.419 NA 
HETATM   14  C   UNL     1     -12.518  11.955  63.447  1.00  0.00    -0.463 C  
BRANCH  13  15
HETATM   15  C   UNL     1     -10.701  11.940  65.052  1.00  0.00    -0.292 C  
BRANCH  15  16
HETATM   16  C   UNL     1     -10.405  10.585  65.770  1.00  0.00    -0.270 C  
BRANCH  16  17
HETATM   17  C   UNL     1      -9.555  10.699  67.056  1.00  0.00    -0.196 C  
BRANCH  17  18
HETATM   18  C   UNL     1      -9.662   9.597  68.147  1.00  0.00    -0.164 C  
HETATM   19  N   UNL     1     -10.680   7.459  66.921  1.00  0.00    -0.334 NA 
HETATM   20  C   UNL     1      -8.210   9.157  68.665  1.00  0.00    -0.114 C  
HETATM   21  C   UNL     1     -10.241   8.385  67.469  1.00  0.00    -0.243 C  
HETATM   22  C   UNL     1      -7.378  10.241  69.371  1.00  0.00    -0.115 C  
HETATM   23  C   UNL     1      -7.308   8.593  67.545  1.00  0.00    -0.089 C  
BRANCH  18  24
HETATM   24  C   UNL     1     -10.573  10.132  69.258  1.00  0.00    -0.254 A  
HETATM   25  C   UNL     1     -11.070   9.295  70.272  1.00  0.00    -0.289 A  
HETATM   26  C   UNL     1     -12.049   9.725  71.174  1.00  0.00    -0.370 A  
HETATM   27  C   UNL     1     -11.060  11.450  69.209  1.00  0.00    -0.313 A  
HETATM   28  C   UNL     1     -12.526  11.044  71.088  1.00  0.00    -0.397 A  
HETATM   29  C   UNL     1     -12.006  11.900  70.123  1.00  0.00    -0.413 A  
BRANCH  26  30
HETATM   30  O   UNL     1     -12.606   8.923  72.136  1.00  0.00    -0.359 OA 
HETATM   31  C   UNL     1     -13.379   7.814  71.691  1.00  0.00    -0.342 C  
ENDBRANCH  26  30
BRANCH  28  32
HETATM   32  O   UNL     1     -13.521  11.398  71.966  1.00  0.00    -0.393 OA 
HETATM   33  C   UNL     1     -13.687  12.789  72.217  1.00  0.00    -0.400 C  
ENDBRANCH  28  32
ENDBRANCH  18  24
ENDBRANCH  17  18
ENDBRANCH  16  17
ENDBRANCH  15  16
ENDBRANCH  13  15
ENDBRANCH  12  13
ENDBRANCH  11  12
ENDBRANCH   7  11
ENDBRANCH   2   3
TORSDOF 12
ENDMDL
MODEL        8
REMARK 921   NORMALIZED FREE ENERGY PREDICTED BY IDOCK:   -6.06 KCAL/MOL
REMARK 922        TOTAL FREE ENERGY PREDICTED BY IDOCK:  -12.53 KCAL/MOL
REMARK 923 INTER-LIGAND FREE ENERGY PREDICTED BY IDOCK:  -10.07 KCAL/MOL
REMARK 924 INTRA-LIGAND FREE ENERGY PREDICTED BY IDOCK:   -2.46 KCAL/MOL
REMARK 927      BINDING AFFINITY PREDICTED BY RF-SCORE:    0.00 PKD
ROOT
HETATM    1  C   UNL     1     -10.574  15.705  69.945  1.00  0.00    -0.321 C  
HETATM    2  O   UNL     1     -11.981  15.541  70.093  1.00  0.00    -0.319 OA 
ENDROOT
BRANCH   2   3
HETATM    3  C   UNL     1     -12.401  14.350  70.634  1.00  0.00    -0.351 A  
HETATM    4  C   UNL     1     -13.164  14.172  71.800  1.00  0.00    -0.373 A  
HETATM    5  C   UNL     1     -12.219  11.934  70.391  1.00  0.00    -0.399 A  
HETATM    6  C   UNL     1     -13.453  12.867  72.236  1.00  0.00    -0.631 A  
HETATM    7  C   UNL     1     -12.993  11.739  71.541  1.00  0.00    -0.446 A  
HETATM    8  C   UNL     1     -11.922  13.227  69.948  1.00  0.00    -0.400 A  
BRANCH   4   9
HETATM    9  O   UNL     1     -13.547  15.291  72.490  1.00  0.00    -0.422 OA 
HETATM   10  C   UNL     1     -12.775  15.665  73.623  1.00  0.00    -0.596 C  
ENDBRANCH   4   9
BRANCH   7  11
HETATM   11  C   UNL     1     -13.189  10.350  72.146  1.00  0.00    -0.418 C  
BRANCH  11  12
HETATM   12  C   UNL     1     -12.499   9.349  71.210  1.00  0.00    -0.335 C  
BRANCH  12  13
HETATM   13  N   UNL     1     -11.377   8.502  71.628  1.00  0.00    -0.275 NA 
HETATM   14  C   UNL     1     -11.399   7.183  70.997  1.00  0.00    -0.279 C  
BRANCH  13  15
HETATM   15  C   UNL     1     -10.065   9.167  71.406  1.00  0.00    -0.322 C  
BRANCH  15  16
HETATM   16  C   UNL     1      -9.213   8.837  70.139  1.00  0.00    -0.179 C  
BRANCH  16  17
HETATM   17  C   UNL     1      -9.740   9.448  68.821  1.00  0.00    -0.161 C  
BRANCH  17  18
HETATM   18  C   UNL     1      -8.761  10.207  67.881  1.00  0.00    -0.122 C  
HETATM   19  N   UNL     1      -6.824  11.143  69.456  1.00  0.00    -0.127 NA 
HETATM   20  C   UNL     1      -8.047   9.199  66.859  1.00  0.00    -0.112 C  
HETATM   21  C   UNL     1      -7.664  10.746  68.759  1.00  0.00    -0.121 C  
HETATM   22  C   UNL     1      -8.965   8.472  65.862  1.00  0.00    -0.235 C  
HETATM   23  C   UNL     1      -7.228   8.095  67.563  1.00  0.00    -0.091 C  
BRANCH  18  24
HETATM   24  C   UNL     1      -9.553  11.322  67.189  1.00  0.00    -0.194 A  
HETATM   25  C   UNL     1      -8.975  12.572  66.908  1.00  0.00    -0.212 A  
HETATM   26  C   UNL     1      -9.737  13.654  66.455  1.00  0.00    -0.292 A  
HETATM   27  C   UNL     1     -10.931  11.176  66.950  1.00  0.00    -0.333 A  
HETATM   28  C   UNL     1     -11.114  13.480  66.241  1.00  0.00    -0.300 A  
HETATM   29  C   UNL     1     -11.691  12.234  66.466  1.00  0.00    -0.420 A  
BRANCH  26  30
HETATM   30  O   UNL     1      -9.225  14.907  66.230  1.00  0.00    -0.287 OA 
HETATM   31  C   UNL     1      -8.079  15.287  66.982  1.00  0.00    -0.218 C  
ENDBRANCH  26  30
BRANCH  28  32
HETATM   32  O   UNL     1     -11.823  14.589  65.844  1.00  0.00    -0.369 OA 
HETATM   33  C   UNL     1     -12.405  14.543  64.547  1.00  0.00    -0.414 C  
ENDBRANCH  28  32
ENDBRANCH  18  24
ENDBRANCH  17  18
ENDBRANCH  16  17
ENDBRANCH  15  16
ENDBRANCH  13  15
ENDBRANCH  12  13
ENDBRANCH  11  12
ENDBRANCH   7  11
ENDBRANCH   2   3
TORSDOF 12
ENDMDL
MODEL        9
REMARK 921   NORMALIZED FREE ENERGY PREDICTED BY IDOCK:   -6.05 KCAL/MOL
REMARK 922        TOTAL FREE ENERGY PREDICTED BY IDOCK:  -12.52 KCAL/MOL
REMARK 923 INTER-LIGAND FREE ENERGY PREDICTED BY IDOCK:  -10.72 KCAL/MOL
REMARK 924 INTRA-LIGAND FREE ENERGY PREDICTED BY IDOCK:   -1.80 KCAL/MOL
REMARK 927      BINDING AFFINITY PREDICTED BY RF-SCORE:    0.00 PKD
ROOT
HETATM    1  C   UNL     1     -12.530  15.798  74.254  1.00  0.00    -0.654 C  
HETATM    2  O   UNL     1     -13.253  14.959  73.359  1.00  0.00    -0.530 OA 
ENDROOT
BRANCH   2   3
HETATM    3  C   UNL     1     -12.690  14.763  72.121  1.00  0.00    -0.326 A  
HETATM    4  C   UNL     1     -12.695  13.578  71.367  1.00  0.00    -0.336 A  
HETATM    5  C   UNL     1     -11.317  15.834  70.418  1.00  0.00    -0.389 A  
HETATM    6  C   UNL     1     -12.014  13.546  70.138  1.00  0.00    -0.399 A  
HETATM    7  C   UNL     1     -11.327  14.665  69.647  1.00  0.00    -0.317 A  
HETATM    8  C   UNL     1     -11.988  15.877  71.645  1.00  0.00    -0.553 A  
BRANCH   4   9
HETATM    9  O   UNL     1     -13.323  12.484  71.900  1.00  0.00    -0.467 OA 
HETATM   10  C   UNL     1     -12.897  11.200  71.466  1.00  0.00    -0.437 C  
ENDBRANCH   4   9
BRANCH   7  11
HETATM   11  C   UNL     1     -10.465  14.530  68.393  1.00  0.00    -0.246 C  
BRANCH  11  12
HETATM   12  C   UNL     1     -11.106  15.405  67.307  1.00  0.00    -0.302 C  
BRANCH  12  13
HETATM   13  N   UNL     1     -11.516  14.887  65.998  1.00  0.00    -0.318 NA 
HETATM   14  C   UNL     1     -10.397  14.749  65.069  1.00  0.00    -0.389 C  
BRANCH  13  15
HETATM   15  C   UNL     1     -12.261  13.605  66.115  1.00  0.00    -0.444 C  
BRANCH  15  16
HETATM   16  C   UNL     1     -11.553  12.246  65.813  1.00  0.00    -0.443 C  
BRANCH  16  17
HETATM   17  C   UNL     1     -11.051  11.480  67.057  1.00  0.00    -0.365 C  
BRANCH  17  18
HETATM   18  C   UNL     1      -9.956  10.389  66.897  1.00  0.00    -0.254 C  
HETATM   19  N   UNL     1      -9.736   9.963  64.273  1.00  0.00    -0.175 NA 
HETATM   20  C   UNL     1      -8.525  10.934  67.375  1.00  0.00    -0.120 C  
HETATM   21  C   UNL     1      -9.825  10.134  65.419  1.00  0.00    -0.307 C  
HETATM   22  C   UNL     1      -8.399  11.312  68.859  1.00  0.00    -0.074 C  
HETATM   23  C   UNL     1      -8.048  12.169  66.581  1.00  0.00     0.016 C  
BRANCH  18  24
HETATM   24  C   UNL     1     -10.424   9.145  67.661  1.00  0.00    -0.323 A  
HETATM   25  C   UNL     1     -10.660   9.176  69.046  1.00  0.00    -0.219 A  
HETATM   26  C   UNL     1     -10.900   8.011  69.782  1.00  0.00    -0.194 A  
HETATM   27  C   UNL     1     -10.489   7.895  67.020  1.00  0.00    -0.419 A  
HETATM   28  C   UNL     1     -10.943   6.776  69.114  1.00  0.00    -0.244 A  
HETATM   29  C   UNL     1     -10.763   6.735  67.735  1.00  0.00    -0.334 A  
BRANCH  26  30
HETATM   30  O   UNL     1     -11.072   7.989  71.143  1.00  0.00    -0.243 OA 
HETATM   31  C   UNL     1     -10.157   8.746  71.927  1.00  0.00    -0.339 C  
ENDBRANCH  26  30
BRANCH  28  32
HETATM   32  O   UNL     1     -11.133   5.659  69.892  1.00  0.00    -0.321 OA 
HETATM   33  C   UNL     1      -9.981   4.872  70.171  1.00  0.00    -0.255 C  
ENDBRANCH  28  32
ENDBRANCH  18  24
ENDBRANCH  17  18
ENDBRANCH  16  17
ENDBRANCH  15  16
ENDBRANCH  13  15
ENDBRANCH  12  13
ENDBRANCH  11  12
ENDBRANCH   7  11
ENDBRANCH   2   3
TORSDOF 12
ENDMDL
MODEL       10
REMARK 921   NORMALIZED FREE ENERGY PREDICTED BY IDOCK:   -6.04 KCAL/MOL
REMARK 922        TOTAL FREE ENERGY PREDICTED BY IDOCK:  -12.50 KCAL/MOL
REMARK 923 INTER-LIGAND FREE ENERGY PREDICTED BY IDOCK:  -10.50 KCAL/MOL
REMARK 924 INTRA-LIGAND FREE ENERGY PREDICTED BY IDOCK:   -1.99 KCAL/MOL
REMARK 927      BINDING AFFINITY PREDICTED BY RF-SCORE:    0.00 PKD
ROOT
HETATM    1  C   UNL     1     -10.967   7.354  73.102  1.00  0.00    -0.359 C  
HETATM    2  O   UNL     1     -11.427   7.245  71.759  1.00  0.00    -0.254 OA 
ENDROOT
BRANCH   2   3
HETATM    3  C   UNL     1     -11.518   8.419  71.051  1.00  0.00    -0.268 A  
HETATM    4  C   UNL     1     -10.926   8.706  69.810  1.00  0.00    -0.127 A  
HETATM    5  C   UNL     1     -12.376  10.695  71.162  1.00  0.00    -0.505 A  
HETATM    6  C   UNL     1     -11.081   9.990  69.258  1.00  0.00    -0.248 A  
HETATM    7  C   UNL     1     -11.806  10.992  69.918  1.00  0.00    -0.431 A  
HETATM    8  C   UNL     1     -12.225   9.423  71.723  1.00  0.00    -0.465 A  
BRANCH   4   9
HETATM    9  O   UNL     1     -10.173   7.727  69.219  1.00  0.00    -0.201 OA 
HETATM   10  C   UNL     1     -10.713   7.076  68.077  1.00  0.00    -0.194 C  
ENDBRANCH   4   9
BRANCH   7  11
HETATM   11  C   UNL     1     -11.804  12.415  69.360  1.00  0.00    -0.365 C  
BRANCH  11  12
HETATM   12  C   UNL     1     -12.356  13.332  70.460  1.00  0.00    -0.316 C  
BRANCH  12  13
HETATM   13  N   UNL     1     -12.778  14.715  70.215  1.00  0.00    -0.313 NA 
HETATM   14  C   UNL     1     -13.431  15.320  71.374  1.00  0.00    -0.505 C  
BRANCH  13  15
HETATM   15  C   UNL     1     -11.651  15.565  69.746  1.00  0.00    -0.334 C  
BRANCH  15  16
HETATM   16  C   UNL     1     -11.489  15.901  68.230  1.00  0.00    -0.320 C  
BRANCH  16  17
HETATM   17  C   UNL     1     -10.073  16.357  67.809  1.00  0.00    -0.262 C  
BRANCH  17  18
HETATM   18  C   UNL     1      -9.559  16.042  66.376  1.00  0.00    -0.309 C  
HETATM   19  N   UNL     1     -11.229  17.294  64.716  1.00  0.00    -0.832 NA 
HETATM   20  C   UNL     1      -8.117  16.696  66.125  1.00  0.00    -0.273 C  
HETATM   21  C   UNL     1     -10.497  16.738  65.428  1.00  0.00    -0.193 C  
HETATM   22  C   UNL     1      -6.969  16.180  67.008  1.00  0.00    -0.234 C  
HETATM   23  C   UNL     1      -8.110  18.233  66.277  1.00  0.00    -0.254 C  
BRANCH  18  24
HETATM   24  C   UNL     1      -9.580  14.519  66.200  1.00  0.00    -0.325 A  
HETATM   25  C   UNL     1     -10.308  13.906  65.166  1.00  0.00    -0.403 A  
HETATM   26  C   UNL     1     -10.490  12.520  65.110  1.00  0.00    -0.293 A  
HETATM   27  C   UNL     1      -8.991  13.681  67.164  1.00  0.00    -0.235 A  
HETATM   28  C   UNL     1      -9.901  11.712  66.097  1.00  0.00    -0.223 A  
HETATM   29  C   UNL     1      -9.135  12.300  67.098  1.00  0.00    -0.193 A  
BRANCH  26  30
HETATM   30  O   UNL     1     -11.244  11.887  64.155  1.00  0.00    -0.332 OA 
HETATM   31  C   UNL     1     -12.281  12.642  63.538  1.00  0.00    -0.547 C  
ENDBRANCH  26  30
BRANCH  28  32
HETATM   32  O   UNL     1     -10.153  10.363  66.021  1.00  0.00    -0.230 OA 
HETATM   33  C   UNL     1      -9.021   9.503  65.987  1.00  0.00    -0.163 C  
ENDBRANCH  28  32
ENDBRANCH  18  24
ENDBRANCH  17  18
ENDBRANCH  16  17
ENDBRANCH  15  16
ENDBRANCH  13  15
ENDBRANCH  12  13
ENDBRANCH  11  12
ENDBRANCH   7  11
ENDBRANCH   2   3
TORSDOF 12
ENDMDL
MODEL       11
REMARK 921   NORMALIZED FREE ENERGY PREDICTED BY IDOCK:   -6.00 KCAL/MOL
REMARK 922        TOTAL FREE ENERGY PREDICTED BY IDOCK:  -12.43 KCAL/MOL
REMARK 923 INTER-LIGAND FREE ENERGY PREDICTED BY IDOCK:  -10.20 KCAL/MOL
REMARK 924 INTRA-LIGAND FREE ENERGY PREDICTED BY IDOCK:   -2.23 KCAL/MOL
REMARK 927      BINDING AFFINITY PREDICTED BY RF-SCORE:    0.00 PKD
ROOT
HETATM    1  C   UNL     1     -10.396  18.459  67.518  1.00  0.00    -0.393 C  
HETATM    2  O   UNL     1      -9.754  17.205  67.312  1.00  0.00    -0.245 OA 
ENDROOT
BRANCH   2   3
HETATM    3  C   UNL     1     -10.527  16.208  66.768  1.00  0.00    -0.294 A  
HETATM    4  C   UNL     1     -11.149  15.151  67.453  1.00  0.00    -0.325 A  
HETATM    5  C   UNL     1     -11.314  15.293  64.653  1.00  0.00    -0.364 A  
HETATM    6  C   UNL     1     -11.858  14.184  66.720  1.00  0.00    -0.449 A  
HETATM    7  C   UNL     1     -11.955  14.244  65.322  1.00  0.00    -0.389 A  
HETATM    8  C   UNL     1     -10.602  16.260  65.372  1.00  0.00    -0.371 A  
BRANCH   4   9
HETATM    9  O   UNL     1     -10.987  15.086  68.812  1.00  0.00    -0.237 OA 
HETATM   10  C   UNL     1     -12.099  15.426  69.628  1.00  0.00    -0.327 C  
ENDBRANCH   4   9
BRANCH   7  11
HETATM   11  C   UNL     1     -12.590  13.082  64.560  1.00  0.00    -0.387 C  
BRANCH  11  12
HETATM   12  C   UNL     1     -11.562  12.603  63.527  1.00  0.00    -0.514 C  
BRANCH  12  13
HETATM   13  N   UNL     1     -10.906  11.293  63.594  1.00  0.00    -0.373 NA 
HETATM   14  C   UNL     1      -9.555  11.308  63.037  1.00  0.00    -0.377 C  
BRANCH  13  15
HETATM   15  C   UNL     1     -10.895  10.747  64.978  1.00  0.00     0.015 C  
BRANCH  15  16
HETATM   16  C   UNL     1      -9.578  10.182  65.597  1.00  0.00    -0.302 C  
BRANCH  16  17
HETATM   17  C   UNL     1      -9.349  10.540  67.083  1.00  0.00    -0.173 C  
BRANCH  17  18
HETATM   18  C   UNL     1      -9.563   9.457  68.176  1.00  0.00    -0.158 C  
HETATM   19  N   UNL     1     -10.735   7.404  66.942  1.00  0.00    -0.334 NA 
HETATM   20  C   UNL     1      -8.161   8.900  68.719  1.00  0.00    -0.114 C  
HETATM   21  C   UNL     1     -10.230   8.293  67.494  1.00  0.00    -0.243 C  
HETATM   22  C   UNL     1      -7.253   9.915  69.434  1.00  0.00    -0.083 C  
HETATM   23  C   UNL     1      -7.292   8.259  67.615  1.00  0.00    -0.093 C  
BRANCH  18  24
HETATM   24  C   UNL     1     -10.444  10.070  69.271  1.00  0.00    -0.245 A  
HETATM   25  C   UNL     1     -10.865   9.324  70.385  1.00  0.00    -0.302 A  
HETATM   26  C   UNL     1     -11.818   9.811  71.285  1.00  0.00    -0.399 A  
HETATM   27  C   UNL     1     -10.981  11.361  69.115  1.00  0.00    -0.289 A  
HETATM   28  C   UNL     1     -12.347  11.098  71.092  1.00  0.00    -0.346 A  
HETATM   29  C   UNL     1     -11.902  11.869  70.023  1.00  0.00    -0.407 A  
BRANCH  26  30
HETATM   30  O   UNL     1     -12.302   9.091  72.347  1.00  0.00    -0.349 OA 
HETATM   31  C   UNL     1     -11.764   7.790  72.552  1.00  0.00    -0.339 C  
ENDBRANCH  26  30
BRANCH  28  32
HETATM   32  O   UNL     1     -13.315  11.506  71.977  1.00  0.00    -0.476 OA 
HETATM   33  C   UNL     1     -13.454  12.909  72.169  1.00  0.00    -0.522 C  
ENDBRANCH  28  32
ENDBRANCH  18  24
ENDBRANCH  17  18
ENDBRANCH  16  17
ENDBRANCH  15  16
ENDBRANCH  13  15
ENDBRANCH  12  13
ENDBRANCH  11  12
ENDBRANCH   7  11
ENDBRANCH   2   3
TORSDOF 12
ENDMDL
MODEL       12
REMARK 921   NORMALIZED FREE ENERGY PREDICTED BY IDOCK:   -5.95 KCAL/MOL
REMARK 922        TOTAL FREE ENERGY PREDICTED BY IDOCK:  -12.35 KCAL/MOL
REMARK 923 INTER-LIGAND FREE ENERGY PREDICTED BY IDOCK:  -10.43 KCAL/MOL
REMARK 924 INTRA-LIGAND FREE ENERGY PREDICTED BY IDOCK:   -1.92 KCAL/MOL
REMARK 927      BINDING AFFINITY PREDICTED BY RF-SCORE:    0.00 PKD
ROOT
HETATM    1  C   UNL     1     -10.510   8.055  67.999  1.00  0.00    -0.184 C  
HETATM    2  O   UNL     1     -10.465   7.906  69.415  1.00  0.00    -0.218 OA 
ENDROOT
BRANCH   2   3
HETATM    3  C   UNL     1     -11.157   8.841  70.147  1.00  0.00    -0.202 A  
HETATM    4  C   UNL     1     -11.897   8.618  71.319  1.00  0.00    -0.295 A  
HETATM    5  C   UNL     1     -11.841  11.178  70.165  1.00  0.00    -0.449 A  
HETATM    6  C   UNL     1     -12.592   9.692  71.904  1.00  0.00    -0.481 A  
HETATM    7  C   UNL     1     -12.569  10.976  71.343  1.00  0.00    -0.498 A  
HETATM    8  C   UNL     1     -11.149  10.117  69.572  1.00  0.00    -0.295 A  
BRANCH   4   9
HETATM    9  O   UNL     1     -11.950   7.341  71.810  1.00  0.00    -0.283 OA 
HETATM   10  C   UNL     1     -11.111   7.020  72.911  1.00  0.00    -0.278 C  
ENDBRANCH   4   9
BRANCH   7  11
HETATM   11  C   UNL     1     -13.474  12.066  71.918  1.00  0.00    -0.305 C  
BRANCH  11  12
HETATM   12  C   UNL     1     -12.714  13.393  71.799  1.00  0.00    -0.223 C  
BRANCH  12  13
HETATM   13  N   UNL     1     -13.373  14.672  71.513  1.00  0.00    -0.343 NA 
HETATM   14  C   UNL     1     -13.500  15.519  72.697  1.00  0.00    -0.547 C  
BRANCH  13  15
HETATM   15  C   UNL     1     -12.699  15.410  70.411  1.00  0.00    -0.362 C  
BRANCH  15  16
HETATM   16  C   UNL     1     -11.473  14.787  69.672  1.00  0.00    -0.327 C  
BRANCH  16  17
HETATM   17  C   UNL     1     -11.667  14.568  68.154  1.00  0.00    -0.369 C  
BRANCH  17  18
HETATM   18  C   UNL     1     -10.426  14.334  67.248  1.00  0.00    -0.269 C  
HETATM   19  N   UNL     1      -8.945  12.507  68.504  1.00  0.00    -0.111 NA 
HETATM   20  C   UNL     1     -10.850  13.671  65.850  1.00  0.00    -0.276 C  
HETATM   21  C   UNL     1      -9.578  13.308  67.949  1.00  0.00    -0.217 C  
HETATM   22  C   UNL     1     -11.767  14.511  64.946  1.00  0.00    -0.402 C  
HETATM   23  C   UNL     1     -11.552  12.305  66.013  1.00  0.00    -0.451 C  
BRANCH  18  24
HETATM   24  C   UNL     1      -9.704  15.678  67.094  1.00  0.00    -0.226 A  
HETATM   25  C   UNL     1     -10.347  16.897  67.369  1.00  0.00    -0.309 A  
HETATM   26  C   UNL     1      -9.765  18.129  67.052  1.00  0.00    -0.307 A  
HETATM   27  C   UNL     1      -8.419  15.736  66.527  1.00  0.00    -0.335 A  
HETATM   28  C   UNL     1      -8.486  18.152  66.472  1.00  0.00    -0.262 A  
HETATM   29  C   UNL     1      -7.816  16.956  66.240  1.00  0.00    -0.346 A  
BRANCH  26  30
HETATM   30  O   UNL     1     -10.384  19.337  67.246  1.00  0.00    -0.377 OA 
HETATM   31  C   UNL     1     -10.368  19.873  68.564  1.00  0.00    -0.338 C  
ENDBRANCH  26  30
BRANCH  28  32
HETATM   32  O   UNL     1      -7.984  19.386  66.135  1.00  0.00    -0.302 OA 
HETATM   33  C   UNL     1      -6.811  19.400  65.330  1.00  0.00    -0.239 C  
ENDBRANCH  28  32
ENDBRANCH  18  24
ENDBRANCH  17  18
ENDBRANCH  16  17
ENDBRANCH  15  16
ENDBRANCH  13  15
ENDBRANCH  12  13
ENDBRANCH  11  12
ENDBRANCH   7  11
ENDBRANCH   2   3
TORSDOF 12
ENDMDL
MODEL       13
REMARK 921   NORMALIZED FREE ENERGY PREDICTED BY IDOCK:   -5.91 KCAL/MOL
REMARK 922        TOTAL FREE ENERGY PREDICTED BY IDOCK:  -12.27 KCAL/MOL
REMARK 923 INTER-LIGAND FREE ENERGY PREDICTED BY IDOCK:  -10.67 KCAL/MOL
REMARK 924 INTRA-LIGAND FREE ENERGY PREDICTED BY IDOCK:   -1.60 KCAL/MOL
REMARK 927      BINDING AFFINITY PREDICTED BY RF-SCORE:    0.00 PKD
ROOT
HETATM    1  C   UNL     1     -11.061   6.264  68.696  1.00  0.00    -0.325 C  
HETATM    2  O   UNL     1     -10.290   6.938  69.686  1.00  0.00    -0.194 OA 
ENDROOT
BRANCH   2   3
HETATM    3  C   UNL     1     -10.843   8.080  70.214  1.00  0.00    -0.241 A  
HETATM    4  C   UNL     1     -11.600   8.187  71.392  1.00  0.00    -0.278 A  
HETATM    5  C   UNL     1     -11.200  10.449  69.776  1.00  0.00    -0.353 A  
HETATM    6  C   UNL     1     -12.138   9.436  71.749  1.00  0.00    -0.454 A  
HETATM    7  C   UNL     1     -11.942  10.576  70.956  1.00  0.00    -0.466 A  
HETATM    8  C   UNL     1     -10.663   9.210  69.408  1.00  0.00    -0.210 A  
BRANCH   4   9
HETATM    9  O   UNL     1     -11.824   7.045  72.114  1.00  0.00    -0.283 OA 
HETATM   10  C   UNL     1     -10.965   6.777  73.213  1.00  0.00    -0.218 C  
ENDBRANCH   4   9
BRANCH   7  11
HETATM   11  C   UNL     1     -12.685  11.867  71.297  1.00  0.00    -0.401 C  
BRANCH  11  12
HETATM   12  C   UNL     1     -12.143  12.959  70.366  1.00  0.00    -0.306 C  
BRANCH  12  13
HETATM   13  N   UNL     1     -12.742  14.294  70.260  1.00  0.00    -0.314 NA 
HETATM   14  C   UNL     1     -13.385  14.724  71.499  1.00  0.00    -0.374 C  
BRANCH  13  15
HETATM   15  C   UNL     1     -11.758  15.310  69.800  1.00  0.00    -0.323 C  
BRANCH  15  16
HETATM   16  C   UNL     1     -11.484  15.516  68.277  1.00  0.00    -0.359 C  
BRANCH  16  17
HETATM   17  C   UNL     1     -10.072  16.041  67.932  1.00  0.00    -0.241 C  
BRANCH  17  18
HETATM   18  C   UNL     1      -9.511  15.851  66.495  1.00  0.00    -0.299 C  
HETATM   19  N   UNL     1     -11.014  17.393  64.922  1.00  0.00    -0.851 NA 
HETATM   20  C   UNL     1      -8.019  16.427  66.378  1.00  0.00    -0.329 C  
HETATM   21  C   UNL     1     -10.355  16.713  65.595  1.00  0.00    -0.290 C  
HETATM   22  C   UNL     1      -6.951  15.737  67.242  1.00  0.00    -0.232 C  
HETATM   23  C   UNL     1      -7.919  17.933  66.703  1.00  0.00    -0.278 C  
BRANCH  18  24
HETATM   24  C   UNL     1      -9.623  14.363  66.146  1.00  0.00    -0.309 A  
HETATM   25  C   UNL     1     -10.248  13.926  64.965  1.00  0.00    -0.383 A  
HETATM   26  C   UNL     1     -10.525  12.576  64.730  1.00  0.00    -0.311 A  
HETATM   27  C   UNL     1      -9.235  13.381  67.075  1.00  0.00    -0.242 A  
HETATM   28  C   UNL     1     -10.137  11.621  65.686  1.00  0.00    -0.240 A  
HETATM   29  C   UNL     1      -9.472  12.032  66.836  1.00  0.00    -0.206 A  
BRANCH  26  30
HETATM   30  O   UNL     1     -11.188  12.114  63.622  1.00  0.00    -0.395 OA 
HETATM   31  C   UNL     1     -12.599  12.300  63.584  1.00  0.00    -0.490 C  
ENDBRANCH  26  30
BRANCH  28  32
HETATM   32  O   UNL     1     -10.478  10.315  65.427  1.00  0.00    -0.217 OA 
HETATM   33  C   UNL     1      -9.438   9.351  65.532  1.00  0.00    -0.260 C  
ENDBRANCH  28  32
ENDBRANCH  18  24
ENDBRANCH  17  18
ENDBRANCH  16  17
ENDBRANCH  15  16
ENDBRANCH  13  15
ENDBRANCH  12  13
ENDBRANCH  11  12
ENDBRANCH   7  11
ENDBRANCH   2   3
TORSDOF 12
ENDMDL
MODEL       14
REMARK 921   NORMALIZED FREE ENERGY PREDICTED BY IDOCK:   -5.89 KCAL/MOL
REMARK 922        TOTAL FREE ENERGY PREDICTED BY IDOCK:  -12.24 KCAL/MOL
REMARK 923 INTER-LIGAND FREE ENERGY PREDICTED BY IDOCK:  -10.57 KCAL/MOL
REMARK 924 INTRA-LIGAND FREE ENERGY PREDICTED BY IDOCK:   -1.67 KCAL/MOL
REMARK 927      BINDING AFFINITY PREDICTED BY RF-SCORE:    0.00 PKD
ROOT
HETATM    1  C   UNL     1      -9.774   6.470  67.438  1.00  0.00    -0.126 C  
HETATM    2  O   UNL     1      -8.991   7.659  67.398  1.00  0.00    -0.126 OA 
ENDROOT
BRANCH   2   3
HETATM    3  C   UNL     1      -9.175   8.472  66.306  1.00  0.00    -0.207 A  
HETATM    4  C   UNL     1      -8.492   8.409  65.080  1.00  0.00    -0.141 A  
HETATM    5  C   UNL     1     -10.372  10.446  65.531  1.00  0.00    -0.265 A  
HETATM    6  C   UNL     1      -8.774   9.367  64.090  1.00  0.00    -0.224 A  
HETATM    7  C   UNL     1      -9.713  10.386  64.297  1.00  0.00    -0.389 A  
HETATM    8  C   UNL     1     -10.098   9.501  66.526  1.00  0.00    -0.326 A  
BRANCH   4   9
HETATM    9  O   UNL     1      -7.537   7.439  64.929  1.00  0.00    -0.090 OA 
HETATM   10  C   UNL     1      -7.879   6.286  64.173  1.00  0.00    -0.117 C  
ENDBRANCH   4   9
BRANCH   7  11
HETATM   11  C   UNL     1      -9.860  11.498  63.260  1.00  0.00    -0.431 C  
BRANCH  11  12
HETATM   12  C   UNL     1     -10.480  12.705  63.976  1.00  0.00    -0.416 C  
BRANCH  12  13
HETATM   13  N   UNL     1     -11.856  13.156  63.744  1.00  0.00    -0.473 NA 
HETATM   14  C   UNL     1     -12.774  12.052  63.469  1.00  0.00    -0.443 C  
BRANCH  13  15
HETATM   15  C   UNL     1     -12.363  13.993  64.865  1.00  0.00    -0.427 C  
BRANCH  15  16
HETATM   16  C   UNL     1     -12.158  13.543  66.346  1.00  0.00    -0.467 C  
BRANCH  16  17
HETATM   17  C   UNL     1     -11.483  14.592  67.259  1.00  0.00    -0.381 C  
BRANCH  17  18
HETATM   18  C   UNL     1     -10.569  14.120  68.424  1.00  0.00    -0.263 C  
HETATM   19  N   UNL     1      -8.454  12.978  67.270  1.00  0.00    -0.196 NA 
HETATM   20  C   UNL     1      -9.997  15.370  69.250  1.00  0.00    -0.256 C  
HETATM   21  C   UNL     1      -9.372  13.467  67.786  1.00  0.00    -0.213 C  
HETATM   22  C   UNL     1     -11.035  16.242  69.976  1.00  0.00    -0.356 C  
HETATM   23  C   UNL     1      -9.160  16.339  68.387  1.00  0.00    -0.203 C  
BRANCH  18  24
HETATM   24  C   UNL     1     -11.378  13.139  69.280  1.00  0.00    -0.312 A  
HETATM   25  C   UNL     1     -12.231  13.583  70.305  1.00  0.00    -0.417 A  
HETATM   26  C   UNL     1     -12.822  12.697  71.211  1.00  0.00    -0.250 A  
HETATM   27  C   UNL     1     -11.174  11.752  69.161  1.00  0.00    -0.324 A  
HETATM   28  C   UNL     1     -12.586  11.319  71.075  1.00  0.00    -0.394 A  
HETATM   29  C   UNL     1     -11.786  10.860  70.034  1.00  0.00    -0.427 A  
BRANCH  26  30
HETATM   30  O   UNL     1     -13.608  13.093  72.263  1.00  0.00    -0.542 OA 
HETATM   31  C   UNL     1     -13.392  14.400  72.782  1.00  0.00    -0.513 C  
ENDBRANCH  26  30
BRANCH  28  32
HETATM   32  O   UNL     1     -13.151  10.499  72.022  1.00  0.00    -0.467 OA 
HETATM   33  C   UNL     1     -13.543   9.201  71.590  1.00  0.00    -0.390 C  
ENDBRANCH  28  32
ENDBRANCH  18  24
ENDBRANCH  17  18
ENDBRANCH  16  17
ENDBRANCH  15  16
ENDBRANCH  13  15
ENDBRANCH  12  13
ENDBRANCH  11  12
ENDBRANCH   7  11
ENDBRANCH   2   3
TORSDOF 12
ENDMDL
MODEL       15
REMARK 921   NORMALIZED FREE ENERGY PREDICTED BY IDOCK:   -5.86 KCAL/MOL
REMARK 922        TOTAL FREE ENERGY PREDICTED BY IDOCK:  -12.20 KCAL/MOL
REMARK 923 INTER-LIGAND FREE ENERGY PREDICTED BY IDOCK:  -10.53 KCAL/MOL
REMARK 924 INTRA-LIGAND FREE ENERGY PREDICTED BY IDOCK:   -1.67 KCAL/MOL
REMARK 927      BINDING AFFINITY PREDICTED BY RF-SCORE:    0.00 PKD
ROOT
HETATM    1  C   UNL     1      -9.966  15.647  69.258  1.00  0.00    -0.265 C  
HETATM    2  O   UNL     1     -10.950  16.114  68.340  1.00  0.00    -0.309 OA 
ENDROOT
BRANCH   2   3
HETATM    3  C   UNL     1     -11.028  15.446  67.141  1.00  0.00    -0.317 A  
HETATM    4  C   UNL     1     -10.418  15.809  65.930  1.00  0.00    -0.352 A  
HETATM    5  C   UNL     1     -12.111  13.570  66.028  1.00  0.00    -0.489 A  
HETATM    6  C   UNL     1     -10.658  15.032  64.783  1.00  0.00    -0.319 A  
HETATM    7  C   UNL     1     -11.496  13.909  64.817  1.00  0.00    -0.368 A  
HETATM    8  C   UNL     1     -11.882  14.338  67.175  1.00  0.00    -0.454 A  
BRANCH   4   9
HETATM    9  O   UNL     1      -9.654  16.945  65.914  1.00  0.00    -0.469 OA 
HETATM   10  C   UNL     1      -8.295  16.835  66.314  1.00  0.00    -0.318 C  
ENDBRANCH   4   9
BRANCH   7  11
HETATM   11  C   UNL     1     -11.858  13.199  63.512  1.00  0.00    -0.539 C  
BRANCH  11  12
HETATM   12  C   UNL     1     -11.872  11.693  63.806  1.00  0.00    -0.279 C  
BRANCH  12  13
HETATM   13  N   UNL     1     -10.652  10.890  63.940  1.00  0.00    -0.313 NA 
HETATM   14  C   UNL     1      -9.584  11.331  63.044  1.00  0.00    -0.377 C  
BRANCH  13  15
HETATM   15  C   UNL     1     -10.169  10.843  65.346  1.00  0.00    -0.277 C  
BRANCH  15  16
HETATM   16  C   UNL     1      -9.732   9.489  65.989  1.00  0.00    -0.341 C  
BRANCH  16  17
HETATM   17  C   UNL     1      -9.244   9.588  67.452  1.00  0.00    -0.152 C  
BRANCH  17  18
HETATM   18  C   UNL     1      -9.764   8.571  68.506  1.00  0.00    -0.174 C  
HETATM   19  N   UNL     1     -11.144   6.748  67.134  1.00  0.00    -0.385 NA 
HETATM   20  C   UNL     1      -8.549   7.778  69.191  1.00  0.00    -0.138 C  
HETATM   21  C   UNL     1     -10.551   7.538  67.745  1.00  0.00    -0.206 C  
HETATM   22  C   UNL     1      -7.557   8.622  70.008  1.00  0.00    -0.068 C  
HETATM   23  C   UNL     1      -7.696   6.981  68.180  1.00  0.00    -0.113 C  
BRANCH  18  24
HETATM   24  C   UNL     1     -10.633   9.343  69.505  1.00  0.00    -0.237 A  
HETATM   25  C   UNL     1     -11.382   8.683  70.495  1.00  0.00    -0.241 A  
HETATM   26  C   UNL     1     -12.321   9.356  71.284  1.00  0.00    -0.341 A  
HETATM   27  C   UNL     1     -10.823  10.729  69.364  1.00  0.00    -0.289 A  
HETATM   28  C   UNL     1     -12.498  10.739  71.107  1.00  0.00    -0.414 A  
HETATM   29  C   UNL     1     -11.728  11.415  70.167  1.00  0.00    -0.414 A  
BRANCH  26  30
HETATM   30  O   UNL     1     -13.117   8.740  72.216  1.00  0.00    -0.373 OA 
HETATM   31  C   UNL     1     -14.157   7.899  71.730  1.00  0.00    -0.428 C  
ENDBRANCH  26  30
BRANCH  28  32
HETATM   32  O   UNL     1     -13.468  11.339  71.874  1.00  0.00    -0.350 OA 
HETATM   33  C   UNL     1     -13.268  12.710  72.196  1.00  0.00    -0.421 C  
ENDBRANCH  28  32
ENDBRANCH  18  24
ENDBRANCH  17  18
ENDBRANCH  16  17
ENDBRANCH  15  16
ENDBRANCH  13  15
ENDBRANCH  12  13
ENDBRANCH  11  12
ENDBRANCH   7  11
ENDBRANCH   2   3
TORSDOF 12
ENDMDL
MODEL       16
REMARK 921   NORMALIZED FREE ENERGY PREDICTED BY IDOCK:   -5.81 KCAL/MOL
REMARK 922        TOTAL FREE ENERGY PREDICTED BY IDOCK:  -12.12 KCAL/MOL
REMARK 923 INTER-LIGAND FREE ENERGY PREDICTED BY IDOCK:  -10.17 KCAL/MOL
REMARK 924 INTRA-LIGAND FREE ENERGY PREDICTED BY IDOCK:   -1.94 KCAL/MOL
REMARK 927      BINDING AFFINITY PREDICTED BY RF-SCORE:    0.00 PKD
ROOT
HETATM    1  C   UNL     1     -12.406  16.299  74.473  1.00  0.00    -0.450 C  
HETATM    2  O   UNL     1     -12.577  14.991  73.938  1.00  0.00    -0.535 OA 
ENDROOT
BRANCH   2   3
HETATM    3  C   UNL     1     -12.505  14.880  72.570  1.00  0.00    -0.346 A  
HETATM    4  C   UNL     1     -12.980  13.818  71.782  1.00  0.00    -0.355 A  
HETATM    5  C   UNL     1     -11.604  15.950  70.577  1.00  0.00    -0.402 A  
HETATM    6  C   UNL     1     -12.765  13.849  70.392  1.00  0.00    -0.286 A  
HETATM    7  C   UNL     1     -12.085  14.908  69.775  1.00  0.00    -0.357 A  
HETATM    8  C   UNL     1     -11.807  15.929  71.961  1.00  0.00    -0.609 A  
BRANCH   4   9
HETATM    9  O   UNL     1     -13.586  12.769  72.420  1.00  0.00    -0.565 OA 
HETATM   10  C   UNL     1     -13.392  11.468  71.883  1.00  0.00    -0.303 C  
ENDBRANCH   4   9
BRANCH   7  11
HETATM   11  C   UNL     1     -11.731  14.814  68.292  1.00  0.00    -0.340 C  
BRANCH  11  12
HETATM   12  C   UNL     1     -10.200  14.834  68.191  1.00  0.00    -0.228 C  
BRANCH  12  13
HETATM   13  N   UNL     1      -9.471  14.451  66.977  1.00  0.00    -0.238 NA 
HETATM   14  C   UNL     1      -8.689  15.551  66.417  1.00  0.00    -0.298 C  
BRANCH  13  15
HETATM   15  C   UNL     1      -8.612  13.257  67.199  1.00  0.00    -0.193 C  
BRANCH  15  16
HETATM   16  C   UNL     1      -8.885  12.295  68.398  1.00  0.00    -0.137 C  
BRANCH  16  17
HETATM   17  C   UNL     1      -8.665  10.795  68.096  1.00  0.00    -0.130 C  
BRANCH  17  18
HETATM   18  C   UNL     1      -9.879   9.825  68.102  1.00  0.00    -0.170 C  
HETATM   19  N   UNL     1     -12.006  11.320  67.513  1.00  0.00    -0.533 NA 
HETATM   20  C   UNL     1      -9.760   8.745  66.922  1.00  0.00    -0.273 C  
HETATM   21  C   UNL     1     -11.089  10.658  67.777  1.00  0.00    -0.321 C  
HETATM   22  C   UNL     1      -8.565   7.781  66.996  1.00  0.00    -0.129 C  
HETATM   23  C   UNL     1      -9.703   9.383  65.517  1.00  0.00    -0.300 C  
BRANCH  18  24
HETATM   24  C   UNL     1      -9.964   9.199  69.499  1.00  0.00    -0.193 A  
HETATM   25  C   UNL     1     -11.199   8.903  70.101  1.00  0.00    -0.175 A  
HETATM   26  C   UNL     1     -11.295   8.513  71.441  1.00  0.00    -0.271 A  
HETATM   27  C   UNL     1      -8.806   9.040  70.282  1.00  0.00    -0.210 A  
HETATM   28  C   UNL     1     -10.120   8.379  72.200  1.00  0.00    -0.306 A  
HETATM   29  C   UNL     1      -8.887   8.618  71.604  1.00  0.00    -0.292 A  
BRANCH  26  30
HETATM   30  O   UNL     1     -12.483   8.276  72.084  1.00  0.00    -0.329 OA 
HETATM   31  C   UNL     1     -13.367   7.331  71.492  1.00  0.00    -0.369 C  
ENDBRANCH  26  30
BRANCH  28  32
HETATM   32  O   UNL     1     -10.276   8.042  73.523  1.00  0.00    -0.182 OA 
HETATM   33  C   UNL     1     -10.330   6.652  73.826  1.00  0.00    -0.349 C  
ENDBRANCH  28  32
ENDBRANCH  18  24
ENDBRANCH  17  18
ENDBRANCH  16  17
ENDBRANCH  15  16
ENDBRANCH  13  15
ENDBRANCH  12  13
ENDBRANCH  11  12
ENDBRANCH   7  11
ENDBRANCH   2   3
TORSDOF 12
ENDMDL
MODEL       17
REMARK 921   NORMALIZED FREE ENERGY PREDICTED BY IDOCK:   -5.79 KCAL/MOL
REMARK 922        TOTAL FREE ENERGY PREDICTED BY IDOCK:  -12.07 KCAL/MOL
REMARK 923 INTER-LIGAND FREE ENERGY PREDICTED BY IDOCK:   -9.35 KCAL/MOL
REMARK 924 INTRA-LIGAND FREE ENERGY PREDICTED BY IDOCK:   -2.72 KCAL/MOL
REMARK 927      BINDING AFFINITY PREDICTED BY RF-SCORE:    0.00 PKD
ROOT
HETATM    1  C   UNL     1     -11.733   5.974  72.229  1.00  0.00    -0.284 C  
HETATM    2  O   UNL     1     -11.636   6.310  70.849  1.00  0.00    -0.331 OA 
ENDROOT
BRANCH   2   3
HETATM    3  C   UNL     1     -10.712   7.273  70.520  1.00  0.00    -0.232 A  
HETATM    4  C   UNL     1     -10.297   7.641  69.230  1.00  0.00    -0.217 A  
HETATM    5  C   UNL     1      -9.102   8.829  71.477  1.00  0.00    -0.322 A  
HETATM    6  C   UNL     1      -9.291   8.613  69.087  1.00  0.00    -0.153 A  
HETATM    7  C   UNL     1      -8.689   9.220  70.198  1.00  0.00    -0.224 A  
HETATM    8  C   UNL     1     -10.099   7.860  71.633  1.00  0.00    -0.228 A  
BRANCH   4   9
HETATM    9  O   UNL     1     -10.859   6.988  68.166  1.00  0.00    -0.205 OA 
HETATM   10  C   UNL     1     -10.173   5.857  67.646  1.00  0.00    -0.187 C  
ENDBRANCH   4   9
BRANCH   7  11
HETATM   11  C   UNL     1      -7.489  10.143  69.995  1.00  0.00    -0.171 C  
BRANCH  11  12
HETATM   12  C   UNL     1      -7.331  10.353  68.483  1.00  0.00    -0.086 C  
BRANCH  12  13
HETATM   13  N   UNL     1      -6.362  11.287  67.899  1.00  0.00    -0.053 NA 
HETATM   14  C   UNL     1      -5.500  10.656  66.902  1.00  0.00    -0.047 C  
BRANCH  13  15
HETATM   15  C   UNL     1      -7.024  12.492  67.332  1.00  0.00    -0.147 C  
BRANCH  15  16
HETATM   16  C   UNL     1      -8.152  13.224  68.126  1.00  0.00    -0.159 C  
BRANCH  16  17
HETATM   17  C   UNL     1      -9.573  13.067  67.536  1.00  0.00    -0.204 C  
BRANCH  17  18
HETATM   18  C   UNL     1     -10.736  13.935  68.094  1.00  0.00    -0.260 C  
HETATM   19  N   UNL     1      -9.579  16.043  69.246  1.00  0.00    -0.251 NA 
HETATM   20  C   UNL     1     -11.637  14.523  66.905  1.00  0.00    -0.399 C  
HETATM   21  C   UNL     1     -10.096  15.127  68.753  1.00  0.00    -0.226 C  
HETATM   22  C   UNL     1     -12.379  13.494  66.037  1.00  0.00    -0.486 C  
HETATM   23  C   UNL     1     -10.844  15.413  65.923  1.00  0.00    -0.328 C  
BRANCH  18  24
HETATM   24  C   UNL     1     -11.521  13.072  69.089  1.00  0.00    -0.353 A  
HETATM   25  C   UNL     1     -12.221  13.642  70.167  1.00  0.00    -0.413 A  
HETATM   26  C   UNL     1     -12.778  12.859  71.184  1.00  0.00    -0.276 A  
HETATM   27  C   UNL     1     -11.439  11.669  69.038  1.00  0.00    -0.356 A  
HETATM   28  C   UNL     1     -12.665  11.461  71.111  1.00  0.00    -0.377 A  
HETATM   29  C   UNL     1     -12.019  10.880  70.024  1.00  0.00    -0.429 A  
BRANCH  26  30
HETATM   30  O   UNL     1     -13.413  13.376  72.284  1.00  0.00    -0.503 OA 
HETATM   31  C   UNL     1     -14.250  14.509  72.080  1.00  0.00    -0.544 C  
ENDBRANCH  26  30
BRANCH  28  32
HETATM   32  O   UNL     1     -13.186  10.744  72.161  1.00  0.00    -0.473 OA 
HETATM   33  C   UNL     1     -13.510   9.383  71.906  1.00  0.00    -0.426 C  
ENDBRANCH  28  32
ENDBRANCH  18  24
ENDBRANCH  17  18
ENDBRANCH  16  17
ENDBRANCH  15  16
ENDBRANCH  13  15
ENDBRANCH  12  13
ENDBRANCH  11  12
ENDBRANCH   7  11
ENDBRANCH   2   3
TORSDOF 12
ENDMDL
MODEL       18
REMARK 921   NORMALIZED FREE ENERGY PREDICTED BY IDOCK:   -5.78 KCAL/MOL
REMARK 922        TOTAL FREE ENERGY PREDICTED BY IDOCK:  -12.06 KCAL/MOL
REMARK 923 INTER-LIGAND FREE ENERGY PREDICTED BY IDOCK:  -10.35 KCAL/MOL
REMARK 924 INTRA-LIGAND FREE ENERGY PREDICTED BY IDOCK:   -1.71 KCAL/MOL
REMARK 927      BINDING AFFINITY PREDICTED BY RF-SCORE:    0.00 PKD
ROOT
HETATM    1  C   UNL     1     -11.286   6.037  71.745  1.00  0.00    -0.265 C  
HETATM    2  O   UNL     1     -11.027   7.007  70.736  1.00  0.00    -0.239 OA 
ENDROOT
BRANCH   2   3
HETATM    3  C   UNL     1     -11.606   8.241  70.914  1.00  0.00    -0.262 A  
HETATM    4  C   UNL     1     -11.232   9.447  70.300  1.00  0.00    -0.246 A  
HETATM    5  C   UNL     1     -13.286   9.429  72.216  1.00  0.00    -0.528 A  
HETATM    6  C   UNL     1     -11.906  10.631  70.651  1.00  0.00    -0.463 A  
HETATM    7  C   UNL     1     -12.937  10.637  71.600  1.00  0.00    -0.582 A  
HETATM    8  C   UNL     1     -12.620   8.246  71.879  1.00  0.00    -0.379 A  
BRANCH   4   9
HETATM    9  O   UNL     1     -10.181   9.420  69.422  1.00  0.00    -0.190 OA 
HETATM   10  C   UNL     1      -8.886   9.706  69.931  1.00  0.00    -0.221 C  
ENDBRANCH   4   9
BRANCH   7  11
HETATM   11  C   UNL     1     -13.522  11.969  72.069  1.00  0.00    -0.364 C  
BRANCH  11  12
HETATM   12  C   UNL     1     -12.631  13.080  71.497  1.00  0.00    -0.178 C  
BRANCH  12  13
HETATM   13  N   UNL     1     -13.158  14.227  70.750  1.00  0.00    -0.316 NA 
HETATM   14  C   UNL     1     -13.436  15.379  71.605  1.00  0.00    -0.502 C  
BRANCH  13  15
HETATM   15  C   UNL     1     -12.267  14.613  69.623  1.00  0.00    -0.283 C  
BRANCH  15  16
HETATM   16  C   UNL     1     -12.004  13.624  68.445  1.00  0.00    -0.391 C  
BRANCH  16  17
HETATM   17  C   UNL     1     -11.958  14.274  67.043  1.00  0.00    -0.463 C  
BRANCH  17  18
HETATM   18  C   UNL     1     -10.612  14.334  66.268  1.00  0.00    -0.291 C  
HETATM   19  N   UNL     1      -9.476  11.945  66.603  1.00  0.00    -0.204 NA 
HETATM   20  C   UNL     1     -10.862  14.484  64.691  1.00  0.00    -0.351 C  
HETATM   21  C   UNL     1      -9.957  12.992  66.454  1.00  0.00    -0.277 C  
HETATM   22  C   UNL     1     -11.566  15.770  64.230  1.00  0.00    -0.192 C  
HETATM   23  C   UNL     1     -11.675  13.317  64.089  1.00  0.00    -0.470 C  
BRANCH  18  24
HETATM   24  C   UNL     1      -9.782  15.474  66.868  1.00  0.00    -0.243 A  
HETATM   25  C   UNL     1     -10.383  16.646  67.358  1.00  0.00    -0.292 A  
HETATM   26  C   UNL     1      -9.630  17.765  67.729  1.00  0.00    -0.272 A  
HETATM   27  C   UNL     1      -8.377  15.442  66.808  1.00  0.00    -0.285 A  
HETATM   28  C   UNL     1      -8.228  17.706  67.643  1.00  0.00    -0.224 A  
HETATM   29  C   UNL     1      -7.616  16.535  67.209  1.00  0.00    -0.192 A  
BRANCH  26  30
HETATM   30  O   UNL     1     -10.178  18.949  68.151  1.00  0.00    -0.366 OA 
HETATM   31  C   UNL     1     -10.842  19.744  67.175  1.00  0.00    -0.343 C  
ENDBRANCH  26  30
BRANCH  28  32
HETATM   32  O   UNL     1      -7.541  18.849  67.972  1.00  0.00    -0.253 OA 
HETATM   33  C   UNL     1      -6.407  18.691  68.816  1.00  0.00    -0.222 C  
ENDBRANCH  28  32
ENDBRANCH  18  24
ENDBRANCH  17  18
ENDBRANCH  16  17
ENDBRANCH  15  16
ENDBRANCH  13  15
ENDBRANCH  12  13
ENDBRANCH  11  12
ENDBRANCH   7  11
ENDBRANCH   2   3
TORSDOF 12
ENDMDL
MODEL       19
REMARK 921   NORMALIZED FREE ENERGY PREDICTED BY IDOCK:   -5.78 KCAL/MOL
REMARK 922        TOTAL FREE ENERGY PREDICTED BY IDOCK:  -12.06 KCAL/MOL
REMARK 923 INTER-LIGAND FREE ENERGY PREDICTED BY IDOCK:  -10.32 KCAL/MOL
REMARK 924 INTRA-LIGAND FREE ENERGY PREDICTED BY IDOCK:   -1.74 KCAL/MOL
REMARK 927      BINDING AFFINITY PREDICTED BY RF-SCORE:    0.00 PKD
ROOT
HETATM    1  C   UNL     1     -10.657  19.760  65.962  1.00  0.00    -0.468 C  
HETATM    2  O   UNL     1     -10.830  18.995  67.151  1.00  0.00    -0.462 OA 
ENDROOT
BRANCH   2   3
HETATM    3  C   UNL     1      -9.780  18.184  67.510  1.00  0.00    -0.303 A  
HETATM    4  C   UNL     1      -9.690  16.793  67.339  1.00  0.00    -0.245 A  
HETATM    5  C   UNL     1      -7.631  18.178  68.654  1.00  0.00    -0.306 A  
HETATM    6  C   UNL     1      -8.557  16.116  67.823  1.00  0.00    -0.172 A  
HETATM    7  C   UNL     1      -7.518  16.794  68.476  1.00  0.00    -0.213 A  
HETATM    8  C   UNL     1      -8.755  18.862  68.180  1.00  0.00    -0.342 A  
BRANCH   4   9
HETATM    9  O   UNL     1     -10.748  16.150  66.752  1.00  0.00    -0.310 OA 
HETATM   10  C   UNL     1     -10.646  15.837  65.370  1.00  0.00    -0.421 C  
ENDBRANCH   4   9
BRANCH   7  11
HETATM   11  C   UNL     1      -6.391  15.995  69.131  1.00  0.00    -0.151 C  
BRANCH  11  12
HETATM   12  C   UNL     1      -5.880  14.995  68.086  1.00  0.00    -0.135 C  
BRANCH  12  13
HETATM   13  N   UNL     1      -5.912  13.542  68.282  1.00  0.00    -0.089 NA 
HETATM   14  C   UNL     1      -6.125  13.165  69.678  1.00  0.00    -0.120 C  
BRANCH  13  15
HETATM   15  C   UNL     1      -6.915  12.883  67.403  1.00  0.00    -0.124 C  
BRANCH  15  16
HETATM   16  C   UNL     1      -8.318  12.487  67.960  1.00  0.00    -0.171 C  
BRANCH  16  17
HETATM   17  C   UNL     1      -9.487  12.652  66.962  1.00  0.00    -0.220 C  
BRANCH  17  18
HETATM   18  C   UNL     1     -10.796  11.840  67.172  1.00  0.00    -0.303 C  
HETATM   19  N   UNL     1     -12.435  12.587  65.205  1.00  0.00    -0.647 NA 
HETATM   20  C   UNL     1     -10.542  10.271  66.960  1.00  0.00    -0.302 C  
HETATM   21  C   UNL     1     -11.734  12.257  66.071  1.00  0.00    -0.388 C  
HETATM   22  C   UNL     1      -9.573   9.597  67.945  1.00  0.00    -0.159 C  
HETATM   23  C   UNL     1     -10.019   9.925  65.548  1.00  0.00    -0.363 C  
BRANCH  18  24
HETATM   24  C   UNL     1     -11.341  12.190  68.562  1.00  0.00    -0.324 A  
HETATM   25  C   UNL     1     -11.693  11.194  69.488  1.00  0.00    -0.405 A  
HETATM   26  C   UNL     1     -12.366  11.494  70.677  1.00  0.00    -0.364 A  
HETATM   27  C   UNL     1     -11.645  13.522  68.894  1.00  0.00    -0.364 A  
HETATM   28  C   UNL     1     -12.669  12.833  70.973  1.00  0.00    -0.243 A  
HETATM   29  C   UNL     1     -12.282  13.836  70.090  1.00  0.00    -0.425 A  
BRANCH  26  30
HETATM   30  O   UNL     1     -12.784  10.547  71.578  1.00  0.00    -0.387 OA 
HETATM   31  C   UNL     1     -11.959   9.400  71.746  1.00  0.00    -0.382 C  
ENDBRANCH  26  30
BRANCH  28  32
HETATM   32  O   UNL     1     -13.374  13.066  72.129  1.00  0.00    -0.498 OA 
HETATM   33  C   UNL     1     -14.295  14.151  72.109  1.00  0.00    -0.518 C  
ENDBRANCH  28  32
ENDBRANCH  18  24
ENDBRANCH  17  18
ENDBRANCH  16  17
ENDBRANCH  15  16
ENDBRANCH  13  15
ENDBRANCH  12  13
ENDBRANCH  11  12
ENDBRANCH   7  11
ENDBRANCH   2   3
TORSDOF 12
ENDMDL
MODEL       20
REMARK 921   NORMALIZED FREE ENERGY PREDICTED BY IDOCK:   -5.78 KCAL/MOL
REMARK 922        TOTAL FREE ENERGY PREDICTED BY IDOCK:  -12.05 KCAL/MOL
REMARK 923 INTER-LIGAND FREE ENERGY PREDICTED BY IDOCK:   -9.74 KCAL/MOL
REMARK 924 INTRA-LIGAND FREE ENERGY PREDICTED BY IDOCK:   -2.31 KCAL/MOL
REMARK 927      BINDING AFFINITY PREDICTED BY RF-SCORE:    0.00 PKD
ROOT
HETATM    1  C   UNL     1     -10.617  19.575  66.758  1.00  0.00    -0.488 C  
HETATM    2  O   UNL     1      -9.268  19.786  66.355  1.00  0.00    -0.356 OA 
ENDROOT
BRANCH   2   3
HETATM    3  C   UNL     1      -8.347  18.872  66.810  1.00  0.00    -0.281 A  
HETATM    4  C   UNL     1      -7.262  19.121  67.666  1.00  0.00    -0.223 A  
HETATM    5  C   UNL     1      -7.639  16.553  66.593  1.00  0.00    -0.310 A  
HETATM    6  C   UNL     1      -6.384  18.068  67.981  1.00  0.00    -0.183 A  
HETATM    7  C   UNL     1      -6.562  16.780  67.458  1.00  0.00    -0.172 A  
HETATM    8  C   UNL     1      -8.517  17.593  66.269  1.00  0.00    -0.237 A  
BRANCH   4   9
HETATM    9  O   UNL     1      -7.079  20.403  68.112  1.00  0.00    -0.284 OA 
HETATM   10  C   UNL     1      -6.007  20.643  69.013  1.00  0.00    -0.344 C  
ENDBRANCH   4   9
BRANCH   7  11
HETATM   11  C   UNL     1      -5.491  15.716  67.694  1.00  0.00    -0.108 C  
BRANCH  11  12
HETATM   12  C   UNL     1      -5.848  14.996  69.001  1.00  0.00    -0.096 C  
BRANCH  12  13
HETATM   13  N   UNL     1      -5.911  13.536  69.122  1.00  0.00    -0.081 NA 
HETATM   14  C   UNL     1      -5.581  13.066  70.466  1.00  0.00    -0.175 C  
BRANCH  13  15
HETATM   15  C   UNL     1      -7.228  12.998  68.687  1.00  0.00    -0.101 C  
BRANCH  15  16
HETATM   16  C   UNL     1      -8.516  13.873  68.795  1.00  0.00    -0.008 C  
BRANCH  16  17
HETATM   17  C   UNL     1      -9.620  13.539  67.766  1.00  0.00    -0.219 C  
BRANCH  17  18
HETATM   18  C   UNL     1     -11.066  14.062  67.994  1.00  0.00    -0.282 C  
HETATM   19  N   UNL     1     -10.801  16.569  68.861  1.00  0.00    -0.324 NA 
HETATM   20  C   UNL     1     -11.869  14.158  66.609  1.00  0.00    -0.447 C  
HETATM   21  C   UNL     1     -10.931  15.476  68.490  1.00  0.00    -0.288 C  
HETATM   22  C   UNL     1     -12.110  12.835  65.864  1.00  0.00    -0.485 C  
HETATM   23  C   UNL     1     -11.205  15.105  65.585  1.00  0.00    -0.296 C  
BRANCH  18  24
HETATM   24  C   UNL     1     -11.733  13.145  69.026  1.00  0.00    -0.367 A  
HETATM   25  C   UNL     1     -12.485  13.662  70.095  1.00  0.00    -0.305 A  
HETATM   26  C   UNL     1     -12.934  12.853  71.143  1.00  0.00    -0.174 A  
HETATM   27  C   UNL     1     -11.486  11.761  69.016  1.00  0.00    -0.358 A  
HETATM   28  C   UNL     1     -12.657  11.476  71.112  1.00  0.00    -0.359 A  
HETATM   29  C   UNL     1     -11.959  10.941  70.035  1.00  0.00    -0.429 A  
BRANCH  26  30
HETATM   30  O   UNL     1     -13.615  13.326  72.236  1.00  0.00    -0.536 OA 
HETATM   31  C   UNL     1     -13.133  14.524  72.835  1.00  0.00    -0.519 C  
ENDBRANCH  26  30
BRANCH  28  32
HETATM   32  O   UNL     1     -13.078  10.736  72.191  1.00  0.00    -0.460 OA 
HETATM   33  C   UNL     1     -13.323   9.354  71.961  1.00  0.00    -0.450 C  
ENDBRANCH  28  32
ENDBRANCH  18  24
ENDBRANCH  17  18
ENDBRANCH  16  17
ENDBRANCH  15  16
ENDBRANCH  13  15
ENDBRANCH  12  13
ENDBRANCH  11  12
ENDBRANCH   7  11
ENDBRANCH   2   3
TORSDOF 12
ENDMDL
MODEL       21
REMARK 921   NORMALIZED FREE ENERGY PREDICTED BY IDOCK:   -5.77 KCAL/MOL
REMARK 922        TOTAL FREE ENERGY PREDICTED BY IDOCK:  -12.03 KCAL/MOL
REMARK 923 INTER-LIGAND FREE ENERGY PREDICTED BY IDOCK:  -10.83 KCAL/MOL
REMARK 924 INTRA-LIGAND FREE ENERGY PREDICTED BY IDOCK:   -1.20 KCAL/MOL
REMARK 927      BINDING AFFINITY PREDICTED BY RF-SCORE:    0.00 PKD
ROOT
HETATM    1  C   UNL     1     -12.503  16.174  74.566  1.00  0.00    -0.483 C  
HETATM    2  O   UNL     1     -13.029  15.052  73.864  1.00  0.00    -0.469 OA 
ENDROOT
BRANCH   2   3
HETATM    3  C   UNL     1     -12.669  14.937  72.543  1.00  0.00    -0.364 A  
HETATM    4  C   UNL     1     -12.904  13.843  71.695  1.00  0.00    -0.349 A  
HETATM    5  C   UNL     1     -11.441  16.050  70.759  1.00  0.00    -0.444 A  
HETATM    6  C   UNL     1     -12.409  13.878  70.379  1.00  0.00    -0.433 A  
HETATM    7  C   UNL     1     -11.682  14.975  69.895  1.00  0.00    -0.343 A  
HETATM    8  C   UNL     1     -11.925  16.025  72.071  1.00  0.00    -0.622 A  
BRANCH   4   9
HETATM    9  O   UNL     1     -13.564  12.761  72.214  1.00  0.00    -0.556 OA 
HETATM   10  C   UNL     1     -13.149  11.469  71.795  1.00  0.00    -0.398 C  
ENDBRANCH   4   9
BRANCH   7  11
HETATM   11  C   UNL     1     -11.023  14.894  68.519  1.00  0.00    -0.260 C  
BRANCH  11  12
HETATM   12  C   UNL     1     -10.871  16.331  68.005  1.00  0.00    -0.339 C  
BRANCH  12  13
HETATM   13  N   UNL     1     -10.634  16.659  66.595  1.00  0.00    -0.252 NA 
HETATM   14  C   UNL     1     -10.394  18.085  66.380  1.00  0.00    -0.379 C  
BRANCH  13  15
HETATM   15  C   UNL     1      -9.533  15.848  66.013  1.00  0.00    -0.354 C  
BRANCH  15  16
HETATM   16  C   UNL     1      -9.278  14.388  66.504  1.00  0.00    -0.269 C  
BRANCH  16  17
HETATM   17  C   UNL     1      -9.560  13.287  65.456  1.00  0.00     0.036 C  
BRANCH  17  18
HETATM   18  C   UNL     1     -10.744  12.304  65.676  1.00  0.00    -0.302 C  
HETATM   19  N   UNL     1     -12.958  13.774  65.456  1.00  0.00    -0.672 NA 
HETATM   20  C   UNL     1     -10.818  11.219  64.498  1.00  0.00    -0.354 C  
HETATM   21  C   UNL     1     -12.001  13.122  65.561  1.00  0.00    -0.412 C  
HETATM   22  C   UNL     1      -9.617  10.267  64.368  1.00  0.00    -0.378 C  
HETATM   23  C   UNL     1     -11.011  11.849  63.101  1.00  0.00    -0.281 C  
BRANCH  18  24
HETATM   24  C   UNL     1     -10.580  11.685  67.069  1.00  0.00    -0.272 A  
HETATM   25  C   UNL     1      -9.317  11.332  67.576  1.00  0.00    -0.166 A  
HETATM   26  C   UNL     1      -9.173  10.597  68.757  1.00  0.00    -0.180 A  
HETATM   27  C   UNL     1     -11.708  11.314  67.823  1.00  0.00    -0.254 A  
HETATM   28  C   UNL     1     -10.321  10.228  69.478  1.00  0.00    -0.242 A  
HETATM   29  C   UNL     1     -11.574  10.614  69.017  1.00  0.00    -0.332 A  
BRANCH  26  30
HETATM   30  O   UNL     1      -7.965  10.177  69.252  1.00  0.00    -0.112 OA 
HETATM   31  C   UNL     1      -6.960  11.167  69.443  1.00  0.00    -0.124 C  
ENDBRANCH  26  30
BRANCH  28  32
HETATM   32  O   UNL     1     -10.124   9.464  70.603  1.00  0.00    -0.250 OA 
HETATM   33  C   UNL     1     -10.560   8.111  70.541  1.00  0.00    -0.220 C  
ENDBRANCH  28  32
ENDBRANCH  18  24
ENDBRANCH  17  18
ENDBRANCH  16  17
ENDBRANCH  15  16
ENDBRANCH  13  15
ENDBRANCH  12  13
ENDBRANCH  11  12
ENDBRANCH   7  11
ENDBRANCH   2   3
TORSDOF 12
ENDMDL
MODEL       22
REMARK 921   NORMALIZED FREE ENERGY PREDICTED BY IDOCK:   -5.76 KCAL/MOL
REMARK 922        TOTAL FREE ENERGY PREDICTED BY IDOCK:  -12.02 KCAL/MOL
REMARK 923 INTER-LIGAND FREE ENERGY PREDICTED BY IDOCK:   -9.98 KCAL/MOL
REMARK 924 INTRA-LIGAND FREE ENERGY PREDICTED BY IDOCK:   -2.03 KCAL/MOL
REMARK 927      BINDING AFFINITY PREDICTED BY RF-SCORE:    0.00 PKD
ROOT
HETATM    1  C   UNL     1     -12.596  15.716  73.911  1.00  0.00    -0.634 C  
HETATM    2  O   UNL     1     -13.501  15.306  72.891  1.00  0.00    -0.471 OA 
ENDROOT
BRANCH   2   3
HETATM    3  C   UNL     1     -12.937  14.835  71.730  1.00  0.00    -0.332 A  
HETATM    4  C   UNL     1     -12.855  13.496  71.313  1.00  0.00    -0.338 A  
HETATM    5  C   UNL     1     -11.671  15.520  69.766  1.00  0.00    -0.362 A  
HETATM    6  C   UNL     1     -12.186  13.194  70.114  1.00  0.00    -0.360 A  
HETATM    7  C   UNL     1     -11.595  14.193  69.327  1.00  0.00    -0.350 A  
HETATM    8  C   UNL     1     -12.331  15.834  70.959  1.00  0.00    -0.465 A  
BRANCH   4   9
HETATM    9  O   UNL     1     -13.388  12.537  72.131  1.00  0.00    -0.525 OA 
HETATM   10  C   UNL     1     -13.227  11.178  71.750  1.00  0.00    -0.381 C  
ENDBRANCH   4   9
BRANCH   7  11
HETATM   11  C   UNL     1     -10.737  13.798  68.126  1.00  0.00    -0.258 C  
BRANCH  11  12
HETATM   12  C   UNL     1     -11.691  13.574  66.945  1.00  0.00    -0.384 C  
BRANCH  12  13
HETATM   13  N   UNL     1     -11.891  12.266  66.311  1.00  0.00    -0.581 NA 
HETATM   14  C   UNL     1     -12.019  12.356  64.858  1.00  0.00    -0.398 C  
BRANCH  13  15
HETATM   15  C   UNL     1     -10.825  11.299  66.685  1.00  0.00    -0.273 C  
BRANCH  15  16
HETATM   16  C   UNL     1     -11.142  10.093  67.625  1.00  0.00    -0.275 C  
BRANCH  16  17
HETATM   17  C   UNL     1     -10.129   9.875  68.772  1.00  0.00    -0.186 C  
BRANCH  17  18
HETATM   18  C   UNL     1      -9.309   8.556  68.831  1.00  0.00    -0.146 C  
HETATM   19  N   UNL     1      -9.282   7.607  66.339  1.00  0.00    -0.177 NA 
HETATM   20  C   UNL     1      -7.777   8.846  69.208  1.00  0.00    -0.094 C  
HETATM   21  C   UNL     1      -9.291   8.006  67.430  1.00  0.00    -0.145 C  
HETATM   22  C   UNL     1      -7.519   9.458  70.594  1.00  0.00    -0.150 C  
HETATM   23  C   UNL     1      -7.066   9.771  68.197  1.00  0.00    -0.078 C  
BRANCH  18  24
HETATM   24  C   UNL     1     -10.015   7.615  69.815  1.00  0.00    -0.184 A  
HETATM   25  C   UNL     1     -11.204   7.985  70.465  1.00  0.00    -0.252 A  
HETATM   26  C   UNL     1     -11.750   7.221  71.501  1.00  0.00    -0.289 A  
HETATM   27  C   UNL     1      -9.408   6.409  70.209  1.00  0.00    -0.165 A  
HETATM   28  C   UNL     1     -11.111   6.029  71.882  1.00  0.00    -0.277 A  
HETATM   29  C   UNL     1      -9.961   5.623  71.213  1.00  0.00    -0.248 A  
BRANCH  26  30
HETATM   30  O   UNL     1     -12.873   7.578  72.204  1.00  0.00    -0.222 OA 
HETATM   31  C   UNL     1     -14.119   7.508  71.520  1.00  0.00    -0.427 C  
ENDBRANCH  26  30
BRANCH  28  32
HETATM   32  O   UNL     1     -11.662   5.343  72.938  1.00  0.00    -0.297 OA 
HETATM   33  C   UNL     1     -10.982   4.167  73.360  1.00  0.00    -0.259 C  
ENDBRANCH  28  32
ENDBRANCH  18  24
ENDBRANCH  17  18
ENDBRANCH  16  17
ENDBRANCH  15  16
ENDBRANCH  13  15
ENDBRANCH  12  13
ENDBRANCH  11  12
ENDBRANCH   7  11
ENDBRANCH   2   3
TORSDOF 12
ENDMDL
MODEL       23
REMARK 921   NORMALIZED FREE ENERGY PREDICTED BY IDOCK:   -5.74 KCAL/MOL
REMARK 922        TOTAL FREE ENERGY PREDICTED BY IDOCK:  -11.99 KCAL/MOL
REMARK 923 INTER-LIGAND FREE ENERGY PREDICTED BY IDOCK:   -9.26 KCAL/MOL
REMARK 924 INTRA-LIGAND FREE ENERGY PREDICTED BY IDOCK:   -2.73 KCAL/MOL
REMARK 927      BINDING AFFINITY PREDICTED BY RF-SCORE:    0.00 PKD
ROOT
HETATM    1  C   UNL     1     -12.670  15.967  73.114  1.00  0.00    -0.515 C  
HETATM    2  O   UNL     1     -13.149  15.506  71.855  1.00  0.00    -0.396 OA 
ENDROOT
BRANCH   2   3
HETATM    3  C   UNL     1     -12.802  14.223  71.505  1.00  0.00    -0.346 A  
HETATM    4  C   UNL     1     -12.008  13.828  70.416  1.00  0.00    -0.315 A  
HETATM    5  C   UNL     1     -13.185  11.885  72.067  1.00  0.00    -0.461 A  
HETATM    6  C   UNL     1     -11.806  12.457  70.178  1.00  0.00    -0.341 A  
HETATM    7  C   UNL     1     -12.381  11.475  70.996  1.00  0.00    -0.434 A  
HETATM    8  C   UNL     1     -13.396  13.246  72.312  1.00  0.00    -0.630 A  
BRANCH   4   9
HETATM    9  O   UNL     1     -11.510  14.808  69.600  1.00  0.00    -0.262 OA 
HETATM   10  C   UNL     1     -10.419  15.580  70.082  1.00  0.00    -0.301 C  
ENDBRANCH   4   9
BRANCH   7  11
HETATM   11  C   UNL     1     -12.271  10.004  70.599  1.00  0.00    -0.360 C  
BRANCH  11  12
HETATM   12  C   UNL     1     -12.662   9.173  71.828  1.00  0.00    -0.373 C  
BRANCH  12  13
HETATM   13  N   UNL     1     -12.922   7.731  71.772  1.00  0.00    -0.328 NA 
HETATM   14  C   UNL     1     -14.345   7.409  71.860  1.00  0.00    -0.373 C  
BRANCH  13  15
HETATM   15  C   UNL     1     -12.317   7.102  70.568  1.00  0.00    -0.067 C  
BRANCH  15  16
HETATM   16  C   UNL     1     -10.794   6.761  70.532  1.00  0.00    -0.301 C  
BRANCH  16  17
HETATM   17  C   UNL     1     -10.048   7.234  69.264  1.00  0.00    -0.183 C  
BRANCH  17  18
HETATM   18  C   UNL     1      -8.902   8.277  69.391  1.00  0.00    -0.146 C  
HETATM   19  N   UNL     1      -8.778   8.906  71.979  1.00  0.00    -0.376 NA 
HETATM   20  C   UNL     1      -7.483   7.621  69.030  1.00  0.00    -0.095 C  
HETATM   21  C   UNL     1      -8.825   8.646  70.848  1.00  0.00    -0.183 C  
HETATM   22  C   UNL     1      -7.312   7.116  67.589  1.00  0.00    -0.093 C  
HETATM   23  C   UNL     1      -7.112   6.432  69.943  1.00  0.00    -0.072 C  
BRANCH  18  24
HETATM   24  C   UNL     1      -9.266   9.475  68.507  1.00  0.00    -0.131 A  
HETATM   25  C   UNL     1      -8.716  10.750  68.729  1.00  0.00    -0.163 A  
HETATM   26  C   UNL     1      -9.182  11.884  68.056  1.00  0.00    -0.190 A  
HETATM   27  C   UNL     1     -10.279   9.366  67.538  1.00  0.00    -0.288 A  
HETATM   28  C   UNL     1     -10.206  11.743  67.105  1.00  0.00    -0.212 A  
HETATM   29  C   UNL     1     -10.725  10.481  66.837  1.00  0.00    -0.281 A  
BRANCH  26  30
HETATM   30  O   UNL     1      -8.717  13.154  68.288  1.00  0.00    -0.176 OA 
HETATM   31  C   UNL     1      -7.517  13.539  67.629  1.00  0.00    -0.181 C  
ENDBRANCH  26  30
BRANCH  28  32
HETATM   32  O   UNL     1     -10.659  12.896  66.511  1.00  0.00    -0.256 OA 
HETATM   33  C   UNL     1     -11.892  12.810  65.807  1.00  0.00    -0.434 C  
ENDBRANCH  28  32
ENDBRANCH  18  24
ENDBRANCH  17  18
ENDBRANCH  16  17
ENDBRANCH  15  16
ENDBRANCH  13  15
ENDBRANCH  12  13
ENDBRANCH  11  12
ENDBRANCH   7  11
ENDBRANCH   2   3
TORSDOF 12
ENDMDL
MODEL       24
REMARK 921   NORMALIZED FREE ENERGY PREDICTED BY IDOCK:   -5.71 KCAL/MOL
REMARK 922        TOTAL FREE ENERGY PREDICTED BY IDOCK:  -11.95 KCAL/MOL
REMARK 923 INTER-LIGAND FREE ENERGY PREDICTED BY IDOCK:   -9.91 KCAL/MOL
REMARK 924 INTRA-LIGAND FREE ENERGY PREDICTED BY IDOCK:   -2.04 KCAL/MOL
REMARK 927      BINDING AFFINITY PREDICTED BY RF-SCORE:    0.00 PKD
ROOT
HETATM    1  C   UNL     1     -11.496   6.394  70.318  1.00  0.00    -0.402 C  
HETATM    2  O   UNL     1     -10.156   6.860  70.199  1.00  0.00    -0.181 OA 
ENDROOT
BRANCH   2   3
HETATM    3  C   UNL     1      -9.842   7.518  69.034  1.00  0.00    -0.170 A  
HETATM    4  C   UNL     1      -8.867   8.514  68.861  1.00  0.00    -0.139 A  
HETATM    5  C   UNL     1     -10.512   7.777  66.707  1.00  0.00    -0.318 A  
HETATM    6  C   UNL     1      -8.723   9.120  67.601  1.00  0.00    -0.120 A  
HETATM    7  C   UNL     1      -9.533   8.759  66.514  1.00  0.00    -0.281 A  
HETATM    8  C   UNL     1     -10.666   7.170  67.958  1.00  0.00    -0.232 A  
BRANCH   4   9
HETATM    9  O   UNL     1      -8.133   8.887  69.956  1.00  0.00    -0.100 OA 
HETATM   10  C   UNL     1      -7.493  10.155  69.921  1.00  0.00    -0.170 C  
ENDBRANCH   4   9
BRANCH   7  11
HETATM   11  C   UNL     1      -9.453   9.561  65.216  1.00  0.00    -0.326 C  
BRANCH  11  12
HETATM   12  C   UNL     1     -10.351  10.793  65.390  1.00  0.00    -0.247 C  
BRANCH  12  13
HETATM   13  N   UNL     1     -10.282  11.967  64.514  1.00  0.00    -0.271 NA 
HETATM   14  C   UNL     1     -10.300  11.614  63.095  1.00  0.00    -0.334 C  
BRANCH  13  15
HETATM   15  C   UNL     1     -11.351  12.954  64.821  1.00  0.00    -0.315 C  
BRANCH  15  16
HETATM   16  C   UNL     1     -12.030  12.976  66.227  1.00  0.00    -0.477 C  
BRANCH  16  17
HETATM   17  C   UNL     1     -11.600  14.144  67.142  1.00  0.00    -0.400 C  
BRANCH  17  18
HETATM   18  C   UNL     1     -10.702  13.861  68.379  1.00  0.00    -0.267 C  
HETATM   19  N   UNL     1      -8.396  12.941  67.404  1.00  0.00    -0.181 NA 
HETATM   20  C   UNL     1     -10.341  15.218  69.153  1.00  0.00    -0.248 C  
HETATM   21  C   UNL     1      -9.398  13.335  67.843  1.00  0.00    -0.214 C  
HETATM   22  C   UNL     1     -11.521  15.986  69.771  1.00  0.00    -0.318 C  
HETATM   23  C   UNL     1      -9.586  16.238  68.274  1.00  0.00    -0.218 C  
BRANCH  18  24
HETATM   24  C   UNL     1     -11.428  12.831  69.252  1.00  0.00    -0.349 A  
HETATM   25  C   UNL     1     -12.272  13.222  70.306  1.00  0.00    -0.391 A  
HETATM   26  C   UNL     1     -12.785  12.300  71.224  1.00  0.00    -0.251 A  
HETATM   27  C   UNL     1     -11.150  11.459  69.119  1.00  0.00    -0.317 A  
HETATM   28  C   UNL     1     -12.476  10.938  71.071  1.00  0.00    -0.411 A  
HETATM   29  C   UNL     1     -11.684  10.529  70.004  1.00  0.00    -0.394 A  
BRANCH  26  30
HETATM   30  O   UNL     1     -13.560  12.646  72.302  1.00  0.00    -0.547 OA 
HETATM   31  C   UNL     1     -14.088  13.967  72.326  1.00  0.00    -0.535 C  
ENDBRANCH  26  30
BRANCH  28  32
HETATM   32  O   UNL     1     -12.965  10.083  72.030  1.00  0.00    -0.419 OA 
HETATM   33  C   UNL     1     -13.874   9.081  71.588  1.00  0.00    -0.368 C  
ENDBRANCH  28  32
ENDBRANCH  18  24
ENDBRANCH  17  18
ENDBRANCH  16  17
ENDBRANCH  15  16
ENDBRANCH  13  15
ENDBRANCH  12  13
ENDBRANCH  11  12
ENDBRANCH   7  11
ENDBRANCH   2   3
TORSDOF 12
ENDMDL
MODEL       25
REMARK 921   NORMALIZED FREE ENERGY PREDICTED BY IDOCK:   -5.71 KCAL/MOL
REMARK 922        TOTAL FREE ENERGY PREDICTED BY IDOCK:  -11.93 KCAL/MOL
REMARK 923 INTER-LIGAND FREE ENERGY PREDICTED BY IDOCK:   -9.50 KCAL/MOL
REMARK 924 INTRA-LIGAND FREE ENERGY PREDICTED BY IDOCK:   -2.43 KCAL/MOL
REMARK 927      BINDING AFFINITY PREDICTED BY RF-SCORE:    0.00 PKD
ROOT
HETATM    1  C   UNL     1      -8.150  19.048  68.653  1.00  0.00    -0.361 C  
HETATM    2  O   UNL     1      -7.755  18.451  67.422  1.00  0.00    -0.220 OA 
ENDROOT
BRANCH   2   3
HETATM    3  C   UNL     1      -8.596  17.489  66.915  1.00  0.00    -0.247 A  
HETATM    4  C   UNL     1      -8.315  16.123  66.748  1.00  0.00    -0.264 A  
HETATM    5  C   UNL     1     -10.775  17.163  65.879  1.00  0.00    -0.132 A  
HETATM    6  C   UNL     1      -9.283  15.293  66.155  1.00  0.00    -0.345 A  
HETATM    7  C   UNL     1     -10.518  15.795  65.722  1.00  0.00    -0.384 A  
HETATM    8  C   UNL     1      -9.819  17.999  66.464  1.00  0.00    -0.353 A  
BRANCH   4   9
HETATM    9  O   UNL     1      -7.078  15.673  67.126  1.00  0.00    -0.205 OA 
HETATM   10  C   UNL     1      -6.950  15.093  68.417  1.00  0.00    -0.108 C  
ENDBRANCH   4   9
BRANCH   7  11
HETATM   11  C   UNL     1     -11.465  14.891  64.934  1.00  0.00    -0.407 C  
BRANCH  11  12
HETATM   12  C   UNL     1     -10.699  13.599  64.620  1.00  0.00    -0.421 C  
BRANCH  12  13
HETATM   13  N   UNL     1     -11.342  12.283  64.543  1.00  0.00    -0.316 NA 
HETATM   14  C   UNL     1     -12.503  12.273  63.655  1.00  0.00    -0.541 C  
BRANCH  13  15
HETATM   15  C   UNL     1     -10.381  11.215  64.160  1.00  0.00    -0.361 C  
BRANCH  15  16
HETATM   16  C   UNL     1      -9.647  10.379  65.255  1.00  0.00    -0.316 C  
BRANCH  16  17
HETATM   17  C   UNL     1      -9.347  11.140  66.567  1.00  0.00    -0.199 C  
BRANCH  17  18
HETATM   18  C   UNL     1      -9.644  10.462  67.933  1.00  0.00    -0.157 C  
HETATM   19  N   UNL     1     -10.651   8.063  67.349  1.00  0.00    -0.285 NA 
HETATM   20  C   UNL     1      -8.290  10.184  68.746  1.00  0.00    -0.122 C  
HETATM   21  C   UNL     1     -10.219   9.108  67.618  1.00  0.00    -0.236 C  
HETATM   22  C   UNL     1      -7.476  11.420  69.161  1.00  0.00    -0.057 C  
HETATM   23  C   UNL     1      -7.306   9.262  67.993  1.00  0.00    -0.080 C  
BRANCH  18  24
HETATM   24  C   UNL     1     -10.639  11.354  68.686  1.00  0.00    -0.229 A  
HETATM   25  C   UNL     1     -10.745  12.729  68.419  1.00  0.00    -0.269 A  
HETATM   26  C   UNL     1     -11.505  13.583  69.225  1.00  0.00    -0.291 A  
HETATM   27  C   UNL     1     -11.370  10.846  69.775  1.00  0.00    -0.374 A  
HETATM   28  C   UNL     1     -12.212  13.047  70.314  1.00  0.00    -0.296 A  
HETATM   29  C   UNL     1     -12.158  11.680  70.561  1.00  0.00    -0.458 A  
BRANCH  26  30
HETATM   30  O   UNL     1     -11.585  14.940  69.037  1.00  0.00    -0.275 OA 
HETATM   31  C   UNL     1     -10.564  15.739  69.624  1.00  0.00    -0.295 C  
ENDBRANCH  26  30
BRANCH  28  32
HETATM   32  O   UNL     1     -12.901  13.938  71.101  1.00  0.00    -0.334 OA 
HETATM   33  C   UNL     1     -13.657  13.390  72.174  1.00  0.00    -0.567 C  
ENDBRANCH  28  32
ENDBRANCH  18  24
ENDBRANCH  17  18
ENDBRANCH  16  17
ENDBRANCH  15  16
ENDBRANCH  13  15
ENDBRANCH  12  13
ENDBRANCH  11  12
ENDBRANCH   7  11
ENDBRANCH   2   3
TORSDOF 12
ENDMDL
MODEL       26
REMARK 921   NORMALIZED FREE ENERGY PREDICTED BY IDOCK:   -5.70 KCAL/MOL
REMARK 922        TOTAL FREE ENERGY PREDICTED BY IDOCK:  -11.92 KCAL/MOL
REMARK 923 INTER-LIGAND FREE ENERGY PREDICTED BY IDOCK:   -9.82 KCAL/MOL
REMARK 924 INTRA-LIGAND FREE ENERGY PREDICTED BY IDOCK:   -2.09 KCAL/MOL
REMARK 927      BINDING AFFINITY PREDICTED BY RF-SCORE:    0.00 PKD
ROOT
HETATM    1  C   UNL     1     -13.199   9.122  72.066  1.00  0.00    -0.441 C  
HETATM    2  O   UNL     1     -12.098   8.408  72.619  1.00  0.00    -0.390 OA 
ENDROOT
BRANCH   2   3
HETATM    3  C   UNL     1     -11.294   7.742  71.725  1.00  0.00    -0.261 A  
HETATM    4  C   UNL     1      -9.899   7.845  71.603  1.00  0.00    -0.167 A  
HETATM    5  C   UNL     1     -11.345   6.239  69.810  1.00  0.00    -0.506 A  
HETATM    6  C   UNL     1      -9.246   7.127  70.585  1.00  0.00    -0.158 A  
HETATM    7  C   UNL     1      -9.953   6.317  69.686  1.00  0.00    -0.201 A  
HETATM    8  C   UNL     1     -12.007   6.951  70.816  1.00  0.00    -0.424 A  
BRANCH   4   9
HETATM    9  O   UNL     1      -9.243   8.691  72.457  1.00  0.00    -0.293 OA 
HETATM   10  C   UNL     1      -8.711   8.142  73.654  1.00  0.00    -0.241 C  
ENDBRANCH   4   9
BRANCH   7  11
HETATM   11  C   UNL     1      -9.221   5.693  68.498  1.00  0.00    -0.131 C  
BRANCH  11  12
HETATM   12  C   UNL     1      -9.714   6.413  67.236  1.00  0.00    -0.130 C  
BRANCH  12  13
HETATM   13  N   UNL     1      -9.406   7.816  66.940  1.00  0.00    -0.159 NA 
HETATM   14  C   UNL     1      -8.774   7.993  65.634  1.00  0.00    -0.125 C  
BRANCH  13  15
HETATM   15  C   UNL     1     -10.605   8.687  67.064  1.00  0.00    -0.223 C  
BRANCH  15  16
HETATM   16  C   UNL     1     -10.655   9.822  68.135  1.00  0.00    -0.276 C  
BRANCH  16  17
HETATM   17  C   UNL     1     -11.524  11.042  67.755  1.00  0.00    -0.339 C  
BRANCH  17  18
HETATM   18  C   UNL     1     -10.838  12.377  67.353  1.00  0.00    -0.273 C  
HETATM   19  N   UNL     1      -8.216  11.913  67.480  1.00  0.00    -0.147 NA 
HETATM   20  C   UNL     1     -11.145  12.745  65.822  1.00  0.00    -0.316 C  
HETATM   21  C   UNL     1      -9.356  12.131  67.426  1.00  0.00    -0.181 C  
HETATM   22  C   UNL     1     -12.617  13.008  65.465  1.00  0.00    -0.422 C  
HETATM   23  C   UNL     1     -10.654  11.671  64.827  1.00  0.00    -0.358 C  
BRANCH  18  24
HETATM   24  C   UNL     1     -11.299  13.452  68.345  1.00  0.00    -0.329 A  
HETATM   25  C   UNL     1     -10.921  14.798  68.203  1.00  0.00    -0.274 A  
HETATM   26  C   UNL     1     -11.173  15.746  69.199  1.00  0.00    -0.322 A  
HETATM   27  C   UNL     1     -11.992  13.093  69.514  1.00  0.00    -0.354 A  
HETATM   28  C   UNL     1     -11.854  15.352  70.363  1.00  0.00    -0.335 A  
HETATM   29  C   UNL     1     -12.280  14.035  70.496  1.00  0.00    -0.435 A  
BRANCH  26  30
HETATM   30  O   UNL     1     -10.766  17.054  69.129  1.00  0.00    -0.324 OA 
HETATM   31  C   UNL     1     -10.557  17.603  67.833  1.00  0.00    -0.387 C  
ENDBRANCH  26  30
BRANCH  28  32
HETATM   32  O   UNL     1     -12.031  16.312  71.330  1.00  0.00    -0.429 OA 
HETATM   33  C   UNL     1     -12.527  15.868  72.587  1.00  0.00    -0.477 C  
ENDBRANCH  28  32
ENDBRANCH  18  24
ENDBRANCH  17  18
ENDBRANCH  16  17
ENDBRANCH  15  16
ENDBRANCH  13  15
ENDBRANCH  12  13
ENDBRANCH  11  12
ENDBRANCH   7  11
ENDBRANCH   2   3
TORSDOF 12
ENDMDL
MODEL       27
REMARK 921   NORMALIZED FREE ENERGY PREDICTED BY IDOCK:   -5.68 KCAL/MOL
REMARK 922        TOTAL FREE ENERGY PREDICTED BY IDOCK:  -11.90 KCAL/MOL
REMARK 923 INTER-LIGAND FREE ENERGY PREDICTED BY IDOCK:   -9.90 KCAL/MOL
REMARK 924 INTRA-LIGAND FREE ENERGY PREDICTED BY IDOCK:   -2.00 KCAL/MOL
REMARK 927      BINDING AFFINITY PREDICTED BY RF-SCORE:    0.00 PKD
ROOT
HETATM    1  C   UNL     1     -12.410  15.666  74.221  1.00  0.00    -0.669 C  
HETATM    2  O   UNL     1     -13.320  15.001  73.350  1.00  0.00    -0.505 OA 
ENDROOT
BRANCH   2   3
HETATM    3  C   UNL     1     -12.855  14.714  72.089  1.00  0.00    -0.333 A  
HETATM    4  C   UNL     1     -12.845  13.460  71.456  1.00  0.00    -0.337 A  
HETATM    5  C   UNL     1     -11.710  15.685  70.172  1.00  0.00    -0.374 A  
HETATM    6  C   UNL     1     -12.272  13.344  70.177  1.00  0.00    -0.385 A  
HETATM    7  C   UNL     1     -11.707  14.446  69.520  1.00  0.00    -0.362 A  
HETATM    8  C   UNL     1     -12.273  15.813  71.446  1.00  0.00    -0.500 A  
BRANCH   4   9
HETATM    9  O   UNL     1     -13.349  12.391  72.147  1.00  0.00    -0.528 OA 
HETATM   10  C   UNL     1     -13.096  11.091  71.632  1.00  0.00    -0.438 C  
ENDBRANCH   4   9
BRANCH   7  11
HETATM   11  C   UNL     1     -10.950  14.236  68.209  1.00  0.00    -0.261 C  
BRANCH  11  12
HETATM   12  C   UNL     1     -11.999  14.107  67.097  1.00  0.00    -0.426 C  
BRANCH  12  13
HETATM   13  N   UNL     1     -12.257  12.855  66.378  1.00  0.00    -0.482 NA 
HETATM   14  C   UNL     1     -12.071  12.984  64.934  1.00  0.00    -0.413 C  
BRANCH  13  15
HETATM   15  C   UNL     1     -11.445  11.729  66.913  1.00  0.00    -0.293 C  
BRANCH  15  16
HETATM   16  C   UNL     1     -10.241  11.163  66.096  1.00  0.00    -0.293 C  
BRANCH  16  17
HETATM   17  C   UNL     1      -8.888  11.160  66.844  1.00  0.00    -0.157 C  
BRANCH  17  18
HETATM   18  C   UNL     1      -8.219   9.807  67.214  1.00  0.00    -0.117 C  
HETATM   19  N   UNL     1      -8.321   8.318  65.005  1.00  0.00    -0.160 NA 
HETATM   20  C   UNL     1      -6.661  10.004  67.539  1.00  0.00    -0.068 C  
HETATM   21  C   UNL     1      -8.275   8.953  65.976  1.00  0.00    -0.117 C  
HETATM   22  C   UNL     1      -6.322  10.884  68.754  1.00  0.00    -0.048 C  
HETATM   23  C   UNL     1      -5.861  10.591  66.355  1.00  0.00    -0.081 C  
BRANCH  18  24
HETATM   24  C   UNL     1      -9.014   9.199  68.375  1.00  0.00    -0.133 A  
HETATM   25  C   UNL     1      -9.571   7.911  68.294  1.00  0.00    -0.164 A  
HETATM   26  C   UNL     1     -10.454   7.423  69.263  1.00  0.00    -0.220 A  
HETATM   27  C   UNL     1      -9.338   9.975  69.503  1.00  0.00    -0.247 A  
HETATM   28  C   UNL     1     -10.769   8.230  70.369  1.00  0.00    -0.232 A  
HETATM   29  C   UNL     1     -10.186   9.487  70.490  1.00  0.00    -0.349 A  
BRANCH  26  30
HETATM   30  O   UNL     1     -11.068   6.199  69.189  1.00  0.00    -0.350 OA 
HETATM   31  C   UNL     1     -10.238   5.047  69.291  1.00  0.00    -0.174 C  
ENDBRANCH  26  30
BRANCH  28  32
HETATM   32  O   UNL     1     -11.680   7.722  71.264  1.00  0.00    -0.278 OA 
HETATM   33  C   UNL     1     -11.428   7.971  72.642  1.00  0.00    -0.402 C  
ENDBRANCH  28  32
ENDBRANCH  18  24
ENDBRANCH  17  18
ENDBRANCH  16  17
ENDBRANCH  15  16
ENDBRANCH  13  15
ENDBRANCH  12  13
ENDBRANCH  11  12
ENDBRANCH   7  11
ENDBRANCH   2   3
TORSDOF 12
ENDMDL
MODEL       28
REMARK 921   NORMALIZED FREE ENERGY PREDICTED BY IDOCK:   -5.64 KCAL/MOL
REMARK 922        TOTAL FREE ENERGY PREDICTED BY IDOCK:  -11.83 KCAL/MOL
REMARK 923 INTER-LIGAND FREE ENERGY PREDICTED BY IDOCK:   -9.80 KCAL/MOL
REMARK 924 INTRA-LIGAND FREE ENERGY PREDICTED BY IDOCK:   -2.03 KCAL/MOL
REMARK 927      BINDING AFFINITY PREDICTED BY RF-SCORE:    0.00 PKD
ROOT
HETATM    1  C   UNL     1     -10.844   4.830  73.239  1.00  0.00    -0.281 C  
HETATM    2  O   UNL     1     -11.702   5.846  72.728  1.00  0.00    -0.240 OA 
ENDROOT
BRANCH   2   3
HETATM    3  C   UNL     1     -11.086   6.914  72.122  1.00  0.00    -0.243 A  
HETATM    4  C   UNL     1     -11.556   8.236  72.059  1.00  0.00    -0.340 A  
HETATM    5  C   UNL     1      -9.178   7.531  70.742  1.00  0.00    -0.158 A  
HETATM    6  C   UNL     1     -10.815   9.192  71.342  1.00  0.00    -0.419 A  
HETATM    7  C   UNL     1      -9.623   8.857  70.684  1.00  0.00    -0.262 A  
HETATM    8  C   UNL     1      -9.908   6.571  71.450  1.00  0.00    -0.191 A  
BRANCH   4   9
HETATM    9  O   UNL     1     -12.754   8.519  72.660  1.00  0.00    -0.341 OA 
HETATM   10  C   UNL     1     -13.936   8.357  71.888  1.00  0.00    -0.421 C  
ENDBRANCH   4   9
BRANCH   7  11
HETATM   11  C   UNL     1      -8.945   9.888  69.781  1.00  0.00    -0.242 C  
BRANCH  11  12
HETATM   12  C   UNL     1      -8.229   9.111  68.668  1.00  0.00    -0.114 C  
BRANCH  12  13
HETATM   13  N   UNL     1      -8.842   8.826  67.367  1.00  0.00    -0.133 NA 
HETATM   14  C   UNL     1      -8.645   7.441  66.941  1.00  0.00    -0.120 C  
BRANCH  13  15
HETATM   15  C   UNL     1     -10.286   9.182  67.341  1.00  0.00    -0.247 C  
BRANCH  15  16
HETATM   16  C   UNL     1     -10.778  10.443  66.564  1.00  0.00    -0.162 C  
BRANCH  16  17
HETATM   17  C   UNL     1     -11.323  11.585  67.451  1.00  0.00    -0.367 C  
BRANCH  17  18
HETATM   18  C   UNL     1     -10.660  12.989  67.388  1.00  0.00    -0.239 C  
HETATM   19  N   UNL     1      -8.033  12.545  67.277  1.00  0.00    -0.179 NA 
HETATM   20  C   UNL     1     -11.036  13.744  66.024  1.00  0.00    -0.284 C  
HETATM   21  C   UNL     1      -9.175  12.754  67.331  1.00  0.00    -0.193 C  
HETATM   22  C   UNL     1     -12.523  14.072  65.812  1.00  0.00    -0.523 C  
HETATM   23  C   UNL     1     -10.586  12.978  64.761  1.00  0.00    -0.380 C  
BRANCH  18  24
HETATM   24  C   UNL     1     -11.078  13.756  68.648  1.00  0.00    -0.293 A  
HETATM   25  C   UNL     1     -11.866  13.160  69.648  1.00  0.00    -0.390 A  
HETATM   26  C   UNL     1     -12.410  13.901  70.702  1.00  0.00    -0.381 A  
HETATM   27  C   UNL     1     -10.809  15.131  68.769  1.00  0.00    -0.247 A  
HETATM   28  C   UNL     1     -12.135  15.276  70.785  1.00  0.00    -0.351 A  
HETATM   29  C   UNL     1     -11.315  15.871  69.832  1.00  0.00    -0.348 A  
BRANCH  26  30
HETATM   30  O   UNL     1     -13.235  13.371  71.661  1.00  0.00    -0.375 OA 
HETATM   31  C   UNL     1     -13.149  11.969  71.892  1.00  0.00    -0.370 C  
ENDBRANCH  26  30
BRANCH  28  32
HETATM   32  O   UNL     1     -12.735  15.964  71.812  1.00  0.00    -0.447 OA 
HETATM   33  C   UNL     1     -11.932  16.237  72.954  1.00  0.00    -0.516 C  
ENDBRANCH  28  32
ENDBRANCH  18  24
ENDBRANCH  17  18
ENDBRANCH  16  17
ENDBRANCH  15  16
ENDBRANCH  13  15
ENDBRANCH  12  13
ENDBRANCH  11  12
ENDBRANCH   7  11
ENDBRANCH   2   3
TORSDOF 12
ENDMDL
MODEL       29
REMARK 921   NORMALIZED FREE ENERGY PREDICTED BY IDOCK:   -5.63 KCAL/MOL
REMARK 922        TOTAL FREE ENERGY PREDICTED BY IDOCK:  -11.80 KCAL/MOL
REMARK 923 INTER-LIGAND FREE ENERGY PREDICTED BY IDOCK:  -10.48 KCAL/MOL
REMARK 924 INTRA-LIGAND FREE ENERGY PREDICTED BY IDOCK:   -1.32 KCAL/MOL
REMARK 927      BINDING AFFINITY PREDICTED BY RF-SCORE:    0.00 PKD
ROOT
HETATM    1  C   UNL     1     -12.490  15.815  74.464  1.00  0.00    -0.595 C  
HETATM    2  O   UNL     1     -13.063  14.794  73.655  1.00  0.00    -0.527 OA 
ENDROOT
BRANCH   2   3
HETATM    3  C   UNL     1     -12.667  14.765  72.339  1.00  0.00    -0.349 A  
HETATM    4  C   UNL     1     -12.805  13.698  71.437  1.00  0.00    -0.360 A  
HETATM    5  C   UNL     1     -11.484  16.044  70.638  1.00  0.00    -0.427 A  
HETATM    6  C   UNL     1     -12.285  13.829  70.137  1.00  0.00    -0.425 A  
HETATM    7  C   UNL     1     -11.628  14.995  69.721  1.00  0.00    -0.336 A  
HETATM    8  C   UNL     1     -11.993  15.924  71.935  1.00  0.00    -0.588 A  
BRANCH   4   9
HETATM    9  O   UNL     1     -13.397  12.549  71.891  1.00  0.00    -0.467 OA 
HETATM   10  C   UNL     1     -12.757  11.315  71.599  1.00  0.00    -0.343 C  
ENDBRANCH   4   9
BRANCH   7  11
HETATM   11  C   UNL     1     -10.935  15.025  68.359  1.00  0.00    -0.266 C  
BRANCH  11  12
HETATM   12  C   UNL     1      -9.425  15.098  68.622  1.00  0.00    -0.206 C  
BRANCH  12  13
HETATM   13  N   UNL     1      -8.418  14.878  67.580  1.00  0.00    -0.173 NA 
HETATM   14  C   UNL     1      -7.214  15.683  67.778  1.00  0.00    -0.155 C  
BRANCH  13  15
HETATM   15  C   UNL     1      -8.068  13.439  67.439  1.00  0.00    -0.172 C  
BRANCH  15  16
HETATM   16  C   UNL     1      -8.922  12.343  68.151  1.00  0.00    -0.196 C  
BRANCH  16  17
HETATM   17  C   UNL     1      -8.806  10.927  67.541  1.00  0.00    -0.133 C  
BRANCH  17  18
HETATM   18  C   UNL     1     -10.058  10.260  66.905  1.00  0.00    -0.274 C  
HETATM   19  N   UNL     1     -11.923  12.162  66.811  1.00  0.00    -0.615 NA 
HETATM   20  C   UNL     1      -9.777   9.843  65.382  1.00  0.00    -0.375 C  
HETATM   21  C   UNL     1     -11.122  11.322  66.851  1.00  0.00    -0.275 C  
HETATM   22  C   UNL     1      -8.686   8.784  65.153  1.00  0.00    -0.202 C  
HETATM   23  C   UNL     1      -9.400  11.041  64.483  1.00  0.00    -0.227 C  
BRANCH  18  24
HETATM   24  C   UNL     1     -10.459   9.081  67.799  1.00  0.00    -0.305 A  
HETATM   25  C   UNL     1     -10.602   9.224  69.190  1.00  0.00    -0.228 A  
HETATM   26  C   UNL     1     -10.779   8.122  70.033  1.00  0.00    -0.243 A  
HETATM   27  C   UNL     1     -10.550   7.781  67.268  1.00  0.00    -0.376 A  
HETATM   28  C   UNL     1     -10.850   6.836  69.473  1.00  0.00    -0.273 A  
HETATM   29  C   UNL     1     -10.762   6.683  68.093  1.00  0.00    -0.320 A  
BRANCH  26  30
HETATM   30  O   UNL     1     -10.859   8.212  71.399  1.00  0.00    -0.225 OA 
HETATM   31  C   UNL     1      -9.693   8.642  72.093  1.00  0.00    -0.313 C  
ENDBRANCH  26  30
BRANCH  28  32
HETATM   32  O   UNL     1     -10.974   5.786  70.351  1.00  0.00    -0.298 OA 
HETATM   33  C   UNL     1      -9.808   5.005  70.581  1.00  0.00    -0.212 C  
ENDBRANCH  28  32
ENDBRANCH  18  24
ENDBRANCH  17  18
ENDBRANCH  16  17
ENDBRANCH  15  16
ENDBRANCH  13  15
ENDBRANCH  12  13
ENDBRANCH  11  12
ENDBRANCH   7  11
ENDBRANCH   2   3
TORSDOF 12
ENDMDL
MODEL       30
REMARK 921   NORMALIZED FREE ENERGY PREDICTED BY IDOCK:   -5.60 KCAL/MOL
REMARK 922        TOTAL FREE ENERGY PREDICTED BY IDOCK:  -11.76 KCAL/MOL
REMARK 923 INTER-LIGAND FREE ENERGY PREDICTED BY IDOCK:  -10.16 KCAL/MOL
REMARK 924 INTRA-LIGAND FREE ENERGY PREDICTED BY IDOCK:   -1.60 KCAL/MOL
REMARK 927      BINDING AFFINITY PREDICTED BY RF-SCORE:    0.00 PKD
ROOT
HETATM    1  C   UNL     1     -10.894  15.678  69.772  1.00  0.00    -0.308 C  
HETATM    2  O   UNL     1     -12.261  15.508  70.134  1.00  0.00    -0.357 OA 
ENDROOT
BRANCH   2   3
HETATM    3  C   UNL     1     -12.604  14.285  70.659  1.00  0.00    -0.355 A  
HETATM    4  C   UNL     1     -13.414  14.043  71.780  1.00  0.00    -0.392 A  
HETATM    5  C   UNL     1     -12.196  11.895  70.444  1.00  0.00    -0.399 A  
HETATM    6  C   UNL     1     -13.610  12.719  72.210  1.00  0.00    -0.563 A  
HETATM    7  C   UNL     1     -13.014  11.635  71.550  1.00  0.00    -0.463 A  
HETATM    8  C   UNL     1     -11.990  13.208  70.009  1.00  0.00    -0.391 A  
BRANCH   4   9
HETATM    9  O   UNL     1     -13.932  15.125  72.440  1.00  0.00    -0.467 OA 
HETATM   10  C   UNL     1     -13.099  15.790  73.380  1.00  0.00    -0.579 C  
ENDBRANCH   4   9
BRANCH   7  11
HETATM   11  C   UNL     1     -13.120  10.235  72.152  1.00  0.00    -0.444 C  
BRANCH  11  12
HETATM   12  C   UNL     1     -12.703   9.240  71.061  1.00  0.00    -0.165 C  
BRANCH  12  13
HETATM   13  N   UNL     1     -11.647   8.240  71.247  1.00  0.00    -0.275 NA 
HETATM   14  C   UNL     1     -11.221   8.121  72.640  1.00  0.00    -0.378 C  
BRANCH  13  15
HETATM   15  C   UNL     1     -12.035   6.912  70.702  1.00  0.00    -0.348 C  
BRANCH  15  16
HETATM   16  C   UNL     1     -11.018   6.067  69.872  1.00  0.00    -0.458 C  
BRANCH  16  17
HETATM   17  C   UNL     1     -10.834   6.523  68.406  1.00  0.00    -0.357 C  
BRANCH  17  18
HETATM   18  C   UNL     1      -9.535   7.269  67.991  1.00  0.00    -0.139 C  
HETATM   19  N   UNL     1      -8.221   7.752  70.260  1.00  0.00    -0.123 NA 
HETATM   20  C   UNL     1      -8.578   6.319  67.123  1.00  0.00    -0.107 C  
HETATM   21  C   UNL     1      -8.785   7.553  69.265  1.00  0.00    -0.136 C  
HETATM   22  C   UNL     1      -9.132   5.843  65.770  1.00  0.00    -0.101 C  
HETATM   23  C   UNL     1      -8.142   5.042  67.874  1.00  0.00    -0.098 C  
BRANCH  18  24
HETATM   24  C   UNL     1      -9.950   8.552  67.263  1.00  0.00    -0.289 A  
HETATM   25  C   UNL     1      -9.341   8.947  66.059  1.00  0.00    -0.306 A  
HETATM   26  C   UNL     1      -9.574  10.202  65.489  1.00  0.00    -0.250 A  
HETATM   27  C   UNL     1     -10.851   9.452  67.859  1.00  0.00    -0.215 A  
HETATM   28  C   UNL     1     -10.468  11.084  66.118  1.00  0.00    -0.244 A  
HETATM   29  C   UNL     1     -11.118  10.688  67.282  1.00  0.00    -0.313 A  
BRANCH  26  30
HETATM   30  O   UNL     1      -8.953  10.651  64.351  1.00  0.00    -0.192 OA 
HETATM   31  C   UNL     1      -9.317  10.032  63.123  1.00  0.00    -0.260 C  
ENDBRANCH  26  30
BRANCH  28  32
HETATM   32  O   UNL     1     -10.621  12.323  65.542  1.00  0.00    -0.254 OA 
HETATM   33  C   UNL     1     -11.956  12.770  65.335  1.00  0.00    -0.436 C  
ENDBRANCH  28  32
ENDBRANCH  18  24
ENDBRANCH  17  18
ENDBRANCH  16  17
ENDBRANCH  15  16
ENDBRANCH  13  15
ENDBRANCH  12  13
ENDBRANCH  11  12
ENDBRANCH   7  11
ENDBRANCH   2   3
TORSDOF 12
ENDMDL
MODEL       31
REMARK 921   NORMALIZED FREE ENERGY PREDICTED BY IDOCK:   -5.60 KCAL/MOL
REMARK 922        TOTAL FREE ENERGY PREDICTED BY IDOCK:  -11.76 KCAL/MOL
REMARK 923 INTER-LIGAND FREE ENERGY PREDICTED BY IDOCK:   -9.16 KCAL/MOL
REMARK 924 INTRA-LIGAND FREE ENERGY PREDICTED BY IDOCK:   -2.59 KCAL/MOL
REMARK 927      BINDING AFFINITY PREDICTED BY RF-SCORE:    0.00 PKD
ROOT
HETATM    1  C   UNL     1     -11.261   4.882  73.113  1.00  0.00    -0.326 C  
HETATM    2  O   UNL     1     -11.493   6.262  72.850  1.00  0.00    -0.204 OA 
ENDROOT
BRANCH   2   3
HETATM    3  C   UNL     1     -10.909   6.772  71.716  1.00  0.00    -0.229 A  
HETATM    4  C   UNL     1     -10.079   7.901  71.627  1.00  0.00    -0.181 A  
HETATM    5  C   UNL     1     -10.806   6.513  69.297  1.00  0.00    -0.361 A  
HETATM    6  C   UNL     1      -9.615   8.312  70.365  1.00  0.00    -0.174 A  
HETATM    7  C   UNL     1      -9.964   7.626  69.193  1.00  0.00    -0.181 A  
HETATM    8  C   UNL     1     -11.277   6.096  70.547  1.00  0.00    -0.403 A  
BRANCH   4   9
HETATM    9  O   UNL     1      -9.804   8.586  72.781  1.00  0.00    -0.258 OA 
HETATM   10  C   UNL     1      -8.625   8.238  73.492  1.00  0.00    -0.198 C  
ENDBRANCH   4   9
BRANCH   7  11
HETATM   11  C   UNL     1      -9.575   8.208  67.835  1.00  0.00    -0.179 C  
BRANCH  11  12
HETATM   12  C   UNL     1      -8.049   8.370  67.833  1.00  0.00    -0.123 C  
BRANCH  12  13
HETATM   13  N   UNL     1      -7.377   9.636  67.523  1.00  0.00    -0.090 NA 
HETATM   14  C   UNL     1      -7.210   9.851  66.087  1.00  0.00    -0.104 C  
BRANCH  13  15
HETATM   15  C   UNL     1      -8.061  10.797  68.151  1.00  0.00    -0.117 C  
BRANCH  15  16
HETATM   16  C   UNL     1      -8.353  12.088  67.323  1.00  0.00    -0.176 C  
BRANCH  16  17
HETATM   17  C   UNL     1      -9.846  12.347  67.019  1.00  0.00    -0.214 C  
BRANCH  17  18
HETATM   18  C   UNL     1     -10.608  13.454  67.799  1.00  0.00    -0.252 C  
HETATM   19  N   UNL     1      -8.728  15.041  68.827  1.00  0.00    -0.178 NA 
HETATM   20  C   UNL     1     -11.465  14.374  66.804  1.00  0.00    -0.381 C  
HETATM   21  C   UNL     1      -9.558  14.355  68.390  1.00  0.00    -0.219 C  
HETATM   22  C   UNL     1     -12.596  13.677  66.031  1.00  0.00    -0.441 C  
HETATM   23  C   UNL     1     -10.603  15.088  65.740  1.00  0.00    -0.351 C  
BRANCH  18  24
HETATM   24  C   UNL     1     -11.453  12.763  68.876  1.00  0.00    -0.352 A  
HETATM   25  C   UNL     1     -12.030  13.484  69.936  1.00  0.00    -0.416 A  
HETATM   26  C   UNL     1     -12.637  12.844  71.022  1.00  0.00    -0.287 A  
HETATM   27  C   UNL     1     -11.552  11.361  68.916  1.00  0.00    -0.388 A  
HETATM   28  C   UNL     1     -12.706  11.441  71.038  1.00  0.00    -0.349 A  
HETATM   29  C   UNL     1     -12.186  10.716  69.972  1.00  0.00    -0.373 A  
BRANCH  26  30
HETATM   30  O   UNL     1     -13.155  13.506  72.106  1.00  0.00    -0.384 OA 
HETATM   31  C   UNL     1     -12.796  14.874  72.266  1.00  0.00    -0.333 C  
ENDBRANCH  26  30
BRANCH  28  32
HETATM   32  O   UNL     1     -13.268  10.864  72.151  1.00  0.00    -0.474 OA 
HETATM   33  C   UNL     1     -13.306   9.442  72.183  1.00  0.00    -0.468 C  
ENDBRANCH  28  32
ENDBRANCH  18  24
ENDBRANCH  17  18
ENDBRANCH  16  17
ENDBRANCH  15  16
ENDBRANCH  13  15
ENDBRANCH  12  13
ENDBRANCH  11  12
ENDBRANCH   7  11
ENDBRANCH   2   3
TORSDOF 12
ENDMDL
MODEL       32
REMARK 921   NORMALIZED FREE ENERGY PREDICTED BY IDOCK:   -5.60 KCAL/MOL
REMARK 922        TOTAL FREE ENERGY PREDICTED BY IDOCK:  -11.76 KCAL/MOL
REMARK 923 INTER-LIGAND FREE ENERGY PREDICTED BY IDOCK:  -10.20 KCAL/MOL
REMARK 924 INTRA-LIGAND FREE ENERGY PREDICTED BY IDOCK:   -1.56 KCAL/MOL
REMARK 927      BINDING AFFINITY PREDICTED BY RF-SCORE:    0.00 PKD
ROOT
HETATM    1  C   UNL     1     -12.389  15.945  74.378  1.00  0.00    -0.619 C  
HETATM    2  O   UNL     1     -12.453  14.683  73.720  1.00  0.00    -0.426 OA 
ENDROOT
BRANCH   2   3
HETATM    3  C   UNL     1     -12.340  14.705  72.351  1.00  0.00    -0.272 A  
HETATM    4  C   UNL     1     -12.771  13.716  71.451  1.00  0.00    -0.352 A  
HETATM    5  C   UNL     1     -11.404  15.976  70.498  1.00  0.00    -0.420 A  
HETATM    6  C   UNL     1     -12.517  13.883  70.078  1.00  0.00    -0.325 A  
HETATM    7  C   UNL     1     -11.841  15.008  69.586  1.00  0.00    -0.358 A  
HETATM    8  C   UNL     1     -11.647  15.819  71.867  1.00  0.00    -0.545 A  
BRANCH   4   9
HETATM    9  O   UNL     1     -13.374  12.600  71.968  1.00  0.00    -0.502 OA 
HETATM   10  C   UNL     1     -12.966  11.335  71.465  1.00  0.00    -0.415 C  
ENDBRANCH   4   9
BRANCH   7  11
HETATM   11  C   UNL     1     -11.443  15.063  68.112  1.00  0.00    -0.355 C  
BRANCH  11  12
HETATM   12  C   UNL     1      -9.963  15.465  68.058  1.00  0.00    -0.221 C  
BRANCH  12  13
HETATM   13  N   UNL     1      -9.009  14.890  67.104  1.00  0.00    -0.201 NA 
HETATM   14  C   UNL     1      -8.087  15.885  66.559  1.00  0.00    -0.235 C  
BRANCH  13  15
HETATM   15  C   UNL     1      -8.260  13.745  67.687  1.00  0.00    -0.177 C  
BRANCH  15  16
HETATM   16  C   UNL     1      -8.912  12.329  67.766  1.00  0.00    -0.177 C  
BRANCH  16  17
HETATM   17  C   UNL     1      -8.980  11.565  66.424  1.00  0.00    -0.200 C  
BRANCH  17  18
HETATM   18  C   UNL     1     -10.236  10.713  66.089  1.00  0.00    -0.308 C  
HETATM   19  N   UNL     1     -12.038  11.310  67.961  1.00  0.00    -0.624 NA 
HETATM   20  C   UNL     1     -10.885  11.168  64.694  1.00  0.00    -0.295 C  
HETATM   21  C   UNL     1     -11.260  11.036  67.143  1.00  0.00    -0.217 C  
HETATM   22  C   UNL     1     -10.013  10.979  63.441  1.00  0.00    -0.428 C  
HETATM   23  C   UNL     1     -11.329  12.647  64.682  1.00  0.00    -0.360 C  
BRANCH  18  24
HETATM   24  C   UNL     1      -9.817   9.239  66.118  1.00  0.00    -0.363 A  
HETATM   25  C   UNL     1     -10.545   8.279  66.842  1.00  0.00    -0.302 A  
HETATM   26  C   UNL     1     -10.070   6.978  67.033  1.00  0.00    -0.229 A  
HETATM   27  C   UNL     1      -8.602   8.830  65.540  1.00  0.00    -0.198 A  
HETATM   28  C   UNL     1      -8.844   6.606  66.454  1.00  0.00    -0.144 A  
HETATM   29  C   UNL     1      -8.137   7.529  65.692  1.00  0.00    -0.128 A  
BRANCH  26  30
HETATM   30  O   UNL     1     -10.717   6.031  67.785  1.00  0.00    -0.247 OA 
HETATM   31  C   UNL     1     -10.931   6.326  69.160  1.00  0.00    -0.377 C  
ENDBRANCH  26  30
BRANCH  28  32
HETATM   32  O   UNL     1      -8.401   5.331  66.715  1.00  0.00    -0.108 OA 
HETATM   33  C   UNL     1      -7.106   4.995  66.231  1.00  0.00    -0.072 C  
ENDBRANCH  28  32
ENDBRANCH  18  24
ENDBRANCH  17  18
ENDBRANCH  16  17
ENDBRANCH  15  16
ENDBRANCH  13  15
ENDBRANCH  12  13
ENDBRANCH  11  12
ENDBRANCH   7  11
ENDBRANCH   2   3
TORSDOF 12
ENDMDL
MODEL       33
REMARK 921   NORMALIZED FREE ENERGY PREDICTED BY IDOCK:   -5.60 KCAL/MOL
REMARK 922        TOTAL FREE ENERGY PREDICTED BY IDOCK:  -11.75 KCAL/MOL
REMARK 923 INTER-LIGAND FREE ENERGY PREDICTED BY IDOCK:   -9.51 KCAL/MOL
REMARK 924 INTRA-LIGAND FREE ENERGY PREDICTED BY IDOCK:   -2.24 KCAL/MOL
REMARK 927      BINDING AFFINITY PREDICTED BY RF-SCORE:    0.00 PKD
ROOT
HETATM    1  C   UNL     1      -7.301   7.881  70.591  1.00  0.00    -0.061 C  
HETATM    2  O   UNL     1      -8.509   7.127  70.601  1.00  0.00    -0.134 OA 
ENDROOT
BRANCH   2   3
HETATM    3  C   UNL     1      -9.671   7.841  70.765  1.00  0.00    -0.173 A  
HETATM    4  C   UNL     1     -10.926   7.338  71.149  1.00  0.00    -0.247 A  
HETATM    5  C   UNL     1     -10.647  10.055  70.495  1.00  0.00    -0.313 A  
HETATM    6  C   UNL     1     -12.024   8.214  71.210  1.00  0.00    -0.318 A  
HETATM    7  C   UNL     1     -11.900   9.574  70.892  1.00  0.00    -0.385 A  
HETATM    8  C   UNL     1      -9.548   9.193  70.427  1.00  0.00    -0.268 A  
BRANCH   4   9
HETATM    9  O   UNL     1     -11.029   5.995  71.394  1.00  0.00    -0.260 OA 
HETATM   10  C   UNL     1     -11.308   5.585  72.726  1.00  0.00    -0.303 C  
ENDBRANCH   4   9
BRANCH   7  11
HETATM   11  C   UNL     1     -13.153  10.446  70.811  1.00  0.00    -0.362 C  
BRANCH  11  12
HETATM   12  C   UNL     1     -12.909  11.670  71.702  1.00  0.00    -0.349 C  
BRANCH  12  13
HETATM   13  N   UNL     1     -13.211  13.042  71.281  1.00  0.00    -0.180 NA 
HETATM   14  C   UNL     1     -13.531  13.921  72.404  1.00  0.00    -0.560 C  
BRANCH  13  15
HETATM   15  C   UNL     1     -12.118  13.624  70.456  1.00  0.00    -0.339 C  
BRANCH  15  16
HETATM   16  C   UNL     1     -12.267  13.733  68.906  1.00  0.00    -0.235 C  
BRANCH  16  17
HETATM   17  C   UNL     1     -11.497  12.664  68.098  1.00  0.00    -0.359 C  
BRANCH  17  18
HETATM   18  C   UNL     1     -11.071  12.966  66.635  1.00  0.00    -0.316 C  
HETATM   19  N   UNL     1     -13.268  13.848  65.408  1.00  0.00    -0.697 NA 
HETATM   20  C   UNL     1     -10.021  14.177  66.579  1.00  0.00    -0.289 C  
HETATM   21  C   UNL     1     -12.305  13.460  65.928  1.00  0.00    -0.437 C  
HETATM   22  C   UNL     1      -8.670  13.942  67.274  1.00  0.00    -0.225 C  
HETATM   23  C   UNL     1     -10.576  15.493  67.166  1.00  0.00    -0.300 C  
BRANCH  18  24
HETATM   24  C   UNL     1     -10.537  11.663  66.029  1.00  0.00    -0.303 A  
HETATM   25  C   UNL     1     -10.434  10.485  66.787  1.00  0.00    -0.302 A  
HETATM   26  C   UNL     1      -9.775   9.349  66.305  1.00  0.00    -0.264 A  
HETATM   27  C   UNL     1      -9.993  11.650  64.732  1.00  0.00    -0.292 A  
HETATM   28  C   UNL     1      -9.228   9.373  65.011  1.00  0.00    -0.218 A  
HETATM   29  C   UNL     1      -9.367  10.515  64.228  1.00  0.00    -0.310 A  
BRANCH  26  30
HETATM   30  O   UNL     1      -9.596   8.202  67.035  1.00  0.00    -0.167 OA 
HETATM   31  C   UNL     1     -10.751   7.415  67.305  1.00  0.00    -0.308 C  
ENDBRANCH  26  30
BRANCH  28  32
HETATM   32  O   UNL     1      -8.549   8.249  64.607  1.00  0.00    -0.106 OA 
HETATM   33  C   UNL     1      -7.541   8.433  63.619  1.00  0.00    -0.132 C  
ENDBRANCH  28  32
ENDBRANCH  18  24
ENDBRANCH  17  18
ENDBRANCH  16  17
ENDBRANCH  15  16
ENDBRANCH  13  15
ENDBRANCH  12  13
ENDBRANCH  11  12
ENDBRANCH   7  11
ENDBRANCH   2   3
TORSDOF 12
ENDMDL
MODEL       34
REMARK 921   NORMALIZED FREE ENERGY PREDICTED BY IDOCK:   -5.57 KCAL/MOL
REMARK 922        TOTAL FREE ENERGY PREDICTED BY IDOCK:  -11.70 KCAL/MOL
REMARK 923 INTER-LIGAND FREE ENERGY PREDICTED BY IDOCK:  -10.04 KCAL/MOL
REMARK 924 INTRA-LIGAND FREE ENERGY PREDICTED BY IDOCK:   -1.66 KCAL/MOL
REMARK 927      BINDING AFFINITY PREDICTED BY RF-SCORE:    0.00 PKD
ROOT
HETATM    1  C   UNL     1      -7.394   4.128  69.020  1.00  0.00    -0.055 C  
HETATM    2  O   UNL     1      -8.729   3.635  69.081  1.00  0.00    -0.079 OA 
ENDROOT
BRANCH   2   3
HETATM    3  C   UNL     1      -9.662   4.474  69.641  1.00  0.00    -0.218 A  
HETATM    4  C   UNL     1     -10.473   5.405  68.971  1.00  0.00    -0.182 A  
HETATM    5  C   UNL     1     -10.575   5.221  71.771  1.00  0.00    -0.268 A  
HETATM    6  C   UNL     1     -11.335   6.225  69.719  1.00  0.00    -0.506 A  
HETATM    7  C   UNL     1     -11.403   6.142  71.117  1.00  0.00    -0.340 A  
HETATM    8  C   UNL     1      -9.710   4.402  71.038  1.00  0.00    -0.260 A  
BRANCH   4   9
HETATM    9  O   UNL     1     -10.341   5.506  67.611  1.00  0.00    -0.191 OA 
HETATM   10  C   UNL     1     -10.911   6.641  66.974  1.00  0.00    -0.397 C  
ENDBRANCH   4   9
BRANCH   7  11
HETATM   11  C   UNL     1     -12.228   7.166  71.895  1.00  0.00    -0.358 C  
BRANCH  11  12
HETATM   12  C   UNL     1     -11.247   8.206  72.453  1.00  0.00    -0.386 C  
BRANCH  12  13
HETATM   13  N   UNL     1     -10.699   9.304  71.651  1.00  0.00    -0.364 NA 
HETATM   14  C   UNL     1      -9.345   9.033  71.173  1.00  0.00    -0.266 C  
BRANCH  13  15
HETATM   15  C   UNL     1     -11.592   9.666  70.518  1.00  0.00    -0.272 C  
BRANCH  15  16
HETATM   16  C   UNL     1     -11.000   9.959  69.104  1.00  0.00    -0.233 C  
BRANCH  16  17
HETATM   17  C   UNL     1     -11.669  11.128  68.346  1.00  0.00    -0.349 C  
BRANCH  17  18
HETATM   18  C   UNL     1     -10.831  12.386  67.980  1.00  0.00    -0.251 C  
HETATM   19  N   UNL     1      -8.281  11.675  68.299  1.00  0.00    -0.150 NA 
HETATM   20  C   UNL     1     -10.994  12.755  66.428  1.00  0.00    -0.305 C  
HETATM   21  C   UNL     1      -9.388  12.000  68.162  1.00  0.00    -0.199 C  
HETATM   22  C   UNL     1     -12.405  13.152  65.964  1.00  0.00    -0.426 C  
HETATM   23  C   UNL     1     -10.540  11.623  65.482  1.00  0.00    -0.329 C  
BRANCH  18  24
HETATM   24  C   UNL     1     -11.254  13.515  68.926  1.00  0.00    -0.316 A  
HETATM   25  C   UNL     1     -10.773  14.827  68.772  1.00  0.00    -0.253 A  
HETATM   26  C   UNL     1     -10.998  15.816  69.734  1.00  0.00    -0.316 A  
HETATM   27  C   UNL     1     -12.022  13.237  70.071  1.00  0.00    -0.399 A  
HETATM   28  C   UNL     1     -11.756  15.502  70.875  1.00  0.00    -0.375 A  
HETATM   29  C   UNL     1     -12.283  14.222  71.017  1.00  0.00    -0.428 A  
BRANCH  26  30
HETATM   30  O   UNL     1     -10.493  17.089  69.653  1.00  0.00    -0.252 OA 
HETATM   31  C   UNL     1     -10.108  17.556  68.365  1.00  0.00    -0.358 C  
ENDBRANCH  26  30
BRANCH  28  32
HETATM   32  O   UNL     1     -11.904  16.497  71.811  1.00  0.00    -0.423 OA 
HETATM   33  C   UNL     1     -12.403  16.106  73.084  1.00  0.00    -0.538 C  
ENDBRANCH  28  32
ENDBRANCH  18  24
ENDBRANCH  17  18
ENDBRANCH  16  17
ENDBRANCH  15  16
ENDBRANCH  13  15
ENDBRANCH  12  13
ENDBRANCH  11  12
ENDBRANCH   7  11
ENDBRANCH   2   3
TORSDOF 12
ENDMDL
MODEL       35
REMARK 921   NORMALIZED FREE ENERGY PREDICTED BY IDOCK:   -5.54 KCAL/MOL
REMARK 922        TOTAL FREE ENERGY PREDICTED BY IDOCK:  -11.66 KCAL/MOL
REMARK 923 INTER-LIGAND FREE ENERGY PREDICTED BY IDOCK:   -9.11 KCAL/MOL
REMARK 924 INTRA-LIGAND FREE ENERGY PREDICTED BY IDOCK:   -2.54 KCAL/MOL
REMARK 927      BINDING AFFINITY PREDICTED BY RF-SCORE:    0.00 PKD
ROOT
HETATM    1  C   UNL     1      -9.640  10.805  63.635  1.00  0.00    -0.305 C  
HETATM    2  O   UNL     1     -10.097   9.896  64.631  1.00  0.00    -0.191 OA 
ENDROOT
BRANCH   2   3
HETATM    3  C   UNL     1      -9.382   9.870  65.805  1.00  0.00    -0.204 A  
HETATM    4  C   UNL     1      -9.711   9.175  66.980  1.00  0.00    -0.188 A  
HETATM    5  C   UNL     1      -7.443  10.830  66.921  1.00  0.00    -0.120 A  
HETATM    6  C   UNL     1      -8.886   9.313  68.110  1.00  0.00    -0.129 A  
HETATM    7  C   UNL     1      -7.747  10.130  68.095  1.00  0.00    -0.088 A  
HETATM    8  C   UNL     1      -8.258  10.704  65.791  1.00  0.00    -0.161 A  
BRANCH   4   9
HETATM    9  O   UNL     1     -10.862   8.433  66.984  1.00  0.00    -0.224 OA 
HETATM   10  C   UNL     1     -10.761   7.057  67.322  1.00  0.00    -0.342 C  
ENDBRANCH   4   9
BRANCH   7  11
HETATM   11  C   UNL     1      -6.980  10.379  69.393  1.00  0.00    -0.091 C  
BRANCH  11  12
HETATM   12  C   UNL     1      -6.155  11.657  69.193  1.00  0.00    -0.067 C  
BRANCH  12  13
HETATM   13  N   UNL     1      -6.570  12.968  69.703  1.00  0.00    -0.042 NA 
HETATM   14  C   UNL     1      -5.567  13.580  70.571  1.00  0.00    -0.159 C  
BRANCH  13  15
HETATM   15  C   UNL     1      -6.950  13.897  68.605  1.00  0.00    -0.108 C  
BRANCH  15  16
HETATM   16  C   UNL     1      -8.373  14.536  68.563  1.00  0.00    -0.160 C  
BRANCH  16  17
HETATM   17  C   UNL     1      -9.505  13.582  68.119  1.00  0.00    -0.214 C  
BRANCH  17  18
HETATM   18  C   UNL     1     -10.985  14.045  68.228  1.00  0.00    -0.272 C  
HETATM   19  N   UNL     1     -10.896  16.571  69.076  1.00  0.00    -0.322 NA 
HETATM   20  C   UNL     1     -11.682  14.091  66.784  1.00  0.00    -0.430 C  
HETATM   21  C   UNL     1     -10.950  15.469  68.712  1.00  0.00    -0.270 C  
HETATM   22  C   UNL     1     -11.808  12.750  66.043  1.00  0.00    -0.495 C  
HETATM   23  C   UNL     1     -10.982  15.054  65.800  1.00  0.00    -0.351 C  
BRANCH  18  24
HETATM   24  C   UNL     1     -11.691  13.112  69.219  1.00  0.00    -0.376 A  
HETATM   25  C   UNL     1     -12.348  13.606  70.358  1.00  0.00    -0.415 A  
HETATM   26  C   UNL     1     -12.827  12.760  71.363  1.00  0.00    -0.275 A  
HETATM   27  C   UNL     1     -11.572  11.716  69.094  1.00  0.00    -0.378 A  
HETATM   28  C   UNL     1     -12.678  11.370  71.215  1.00  0.00    -0.393 A  
HETATM   29  C   UNL     1     -12.076  10.863  70.069  1.00  0.00    -0.433 A  
BRANCH  26  30
HETATM   30  O   UNL     1     -13.416  13.203  72.519  1.00  0.00    -0.569 OA 
HETATM   31  C   UNL     1     -13.113  14.529  72.937  1.00  0.00    -0.519 C  
ENDBRANCH  26  30
BRANCH  28  32
HETATM   32  O   UNL     1     -13.121  10.588  72.255  1.00  0.00    -0.394 OA 
HETATM   33  C   UNL     1     -13.513   9.259  71.932  1.00  0.00    -0.430 C  
ENDBRANCH  28  32
ENDBRANCH  18  24
ENDBRANCH  17  18
ENDBRANCH  16  17
ENDBRANCH  15  16
ENDBRANCH  13  15
ENDBRANCH  12  13
ENDBRANCH  11  12
ENDBRANCH   7  11
ENDBRANCH   2   3
TORSDOF 12
ENDMDL
MODEL       36
REMARK 921   NORMALIZED FREE ENERGY PREDICTED BY IDOCK:   -5.52 KCAL/MOL
REMARK 922        TOTAL FREE ENERGY PREDICTED BY IDOCK:  -11.61 KCAL/MOL
REMARK 923 INTER-LIGAND FREE ENERGY PREDICTED BY IDOCK:   -9.51 KCAL/MOL
REMARK 924 INTRA-LIGAND FREE ENERGY PREDICTED BY IDOCK:   -2.10 KCAL/MOL
REMARK 927      BINDING AFFINITY PREDICTED BY RF-SCORE:    0.00 PKD
ROOT
HETATM    1  C   UNL     1     -12.708  15.739  73.138  1.00  0.00    -0.507 C  
HETATM    2  O   UNL     1     -11.918  16.209  72.051  1.00  0.00    -0.479 OA 
ENDROOT
BRANCH   2   3
HETATM    3  C   UNL     1     -11.818  15.373  70.965  1.00  0.00    -0.360 A  
HETATM    4  C   UNL     1     -11.299  15.689  69.699  1.00  0.00    -0.329 A  
HETATM    5  C   UNL     1     -12.400  13.148  70.166  1.00  0.00    -0.284 A  
HETATM    6  C   UNL     1     -11.331  14.716  68.684  1.00  0.00    -0.305 A  
HETATM    7  C   UNL     1     -11.872  13.441  68.903  1.00  0.00    -0.373 A  
HETATM    8  C   UNL     1     -12.378  14.109  71.182  1.00  0.00    -0.447 A  
BRANCH   4   9
HETATM    9  O   UNL     1     -10.834  16.961  69.498  1.00  0.00    -0.303 OA 
HETATM   10  C   UNL     1      -9.796  17.143  68.544  1.00  0.00    -0.297 C  
ENDBRANCH   4   9
BRANCH   7  11
HETATM   11  C   UNL     1     -12.036  12.480  67.726  1.00  0.00    -0.286 C  
BRANCH  11  12
HETATM   12  C   UNL     1     -11.209  13.044  66.564  1.00  0.00    -0.302 C  
BRANCH  12  13
HETATM   13  N   UNL     1     -10.874  12.267  65.366  1.00  0.00    -0.277 NA 
HETATM   14  C   UNL     1     -10.675  13.105  64.185  1.00  0.00    -0.374 C  
BRANCH  13  15
HETATM   15  C   UNL     1      -9.697  11.385  65.586  1.00  0.00    -0.231 C  
BRANCH  15  16
HETATM   16  C   UNL     1      -9.846  10.045  66.374  1.00  0.00    -0.283 C  
BRANCH  16  17
HETATM   17  C   UNL     1      -9.198  10.037  67.777  1.00  0.00    -0.143 C  
BRANCH  17  18
HETATM   18  C   UNL     1      -9.035   8.693  68.540  1.00  0.00    -0.139 C  
HETATM   19  N   UNL     1      -9.609   6.782  66.772  1.00  0.00    -0.161 NA 
HETATM   20  C   UNL     1      -7.508   8.454  68.966  1.00  0.00    -0.093 C  
HETATM   21  C   UNL     1      -9.362   7.604  67.554  1.00  0.00    -0.139 C  
HETATM   22  C   UNL     1      -6.906   9.469  69.952  1.00  0.00    -0.067 C  
HETATM   23  C   UNL     1      -6.540   8.408  67.764  1.00  0.00    -0.062 C  
BRANCH  18  24
HETATM   24  C   UNL     1     -10.006   8.713  69.726  1.00  0.00    -0.190 A  
HETATM   25  C   UNL     1     -10.485   7.526  70.308  1.00  0.00    -0.227 A  
HETATM   26  C   UNL     1     -11.512   7.529  71.258  1.00  0.00    -0.274 A  
HETATM   27  C   UNL     1     -10.565   9.924  70.172  1.00  0.00    -0.350 A  
HETATM   28  C   UNL     1     -12.059   8.756  71.670  1.00  0.00    -0.337 A  
HETATM   29  C   UNL     1     -11.560   9.942  71.142  1.00  0.00    -0.468 A  
BRANCH  26  30
HETATM   30  O   UNL     1     -12.051   6.392  71.803  1.00  0.00    -0.340 OA 
HETATM   31  C   UNL     1     -11.215   5.619  72.656  1.00  0.00    -0.300 C  
ENDBRANCH  26  30
BRANCH  28  32
HETATM   32  O   UNL     1     -13.098   8.697  72.568  1.00  0.00    -0.363 OA 
HETATM   33  C   UNL     1     -14.411   8.656  72.023  1.00  0.00    -0.422 C  
ENDBRANCH  28  32
ENDBRANCH  18  24
ENDBRANCH  17  18
ENDBRANCH  16  17
ENDBRANCH  15  16
ENDBRANCH  13  15
ENDBRANCH  12  13
ENDBRANCH  11  12
ENDBRANCH   7  11
ENDBRANCH   2   3
TORSDOF 12
ENDMDL
MODEL       37
REMARK 921   NORMALIZED FREE ENERGY PREDICTED BY IDOCK:   -5.52 KCAL/MOL
REMARK 922        TOTAL FREE ENERGY PREDICTED BY IDOCK:  -11.61 KCAL/MOL
REMARK 923 INTER-LIGAND FREE ENERGY PREDICTED BY IDOCK:   -8.72 KCAL/MOL
REMARK 924 INTRA-LIGAND FREE ENERGY PREDICTED BY IDOCK:   -2.89 KCAL/MOL
REMARK 927      BINDING AFFINITY PREDICTED BY RF-SCORE:    0.00 PKD
ROOT
HETATM    1  C   UNL     1     -11.386  14.848  69.794  1.00  0.00    -0.283 C  
HETATM    2  O   UNL     1     -12.340  13.970  69.205  1.00  0.00    -0.313 OA 
ENDROOT
BRANCH   2   3
HETATM    3  C   UNL     1     -11.837  12.837  68.611  1.00  0.00    -0.304 A  
HETATM    4  C   UNL     1     -11.465  12.681  67.266  1.00  0.00    -0.342 A  
HETATM    5  C   UNL     1     -11.339  10.488  69.015  1.00  0.00    -0.319 A  
HETATM    6  C   UNL     1     -11.022  11.424  66.819  1.00  0.00    -0.347 A  
HETATM    7  C   UNL     1     -10.948  10.321  67.681  1.00  0.00    -0.356 A  
HETATM    8  C   UNL     1     -11.785  11.733  69.470  1.00  0.00    -0.408 A  
BRANCH   4   9
HETATM    9  O   UNL     1     -11.605  13.760  66.434  1.00  0.00    -0.331 OA 
HETATM   10  C   UNL     1     -12.651  13.723  65.472  1.00  0.00    -0.512 C  
ENDBRANCH   4   9
BRANCH   7  11
HETATM   11  C   UNL     1     -10.623   8.940  67.112  1.00  0.00    -0.301 C  
BRANCH  11  12
HETATM   12  C   UNL     1      -9.653   9.150  65.942  1.00  0.00    -0.273 C  
BRANCH  12  13
HETATM   13  N   UNL     1      -8.205   8.948  66.054  1.00  0.00    -0.114 NA 
HETATM   14  C   UNL     1      -7.456  10.203  66.026  1.00  0.00    -0.118 C  
BRANCH  13  15
HETATM   15  C   UNL     1      -7.845   8.150  67.256  1.00  0.00    -0.105 C  
BRANCH  15  16
HETATM   16  C   UNL     1      -7.730   6.596  67.171  1.00  0.00    -0.100 C  
BRANCH  16  17
HETATM   17  C   UNL     1      -8.053   5.844  68.482  1.00  0.00    -0.106 C  
BRANCH  17  18
HETATM   18  C   UNL     1      -9.497   5.328  68.736  1.00  0.00    -0.171 C  
HETATM   19  N   UNL     1     -10.650   5.190  66.335  1.00  0.00    -0.308 NA 
HETATM   20  C   UNL     1      -9.482   3.828  69.302  1.00  0.00    -0.252 C  
HETATM   21  C   UNL     1     -10.162   5.251  67.388  1.00  0.00    -0.191 C  
HETATM   22  C   UNL     1      -8.812   3.621  70.671  1.00  0.00    -0.138 C  
HETATM   23  C   UNL     1      -8.807   2.822  68.344  1.00  0.00    -0.165 C  
BRANCH  18  24
HETATM   24  C   UNL     1     -10.189   6.328  69.668  1.00  0.00    -0.233 A  
HETATM   25  C   UNL     1      -9.456   7.192  70.500  1.00  0.00    -0.162 A  
HETATM   26  C   UNL     1     -10.071   7.968  71.487  1.00  0.00    -0.180 A  
HETATM   27  C   UNL     1     -11.586   6.306  69.828  1.00  0.00    -0.330 A  
HETATM   28  C   UNL     1     -11.467   7.911  71.632  1.00  0.00    -0.263 A  
HETATM   29  C   UNL     1     -12.212   7.101  70.782  1.00  0.00    -0.308 A  
BRANCH  26  30
HETATM   30  O   UNL     1      -9.387   8.775  72.361  1.00  0.00    -0.331 OA 
HETATM   31  C   UNL     1      -8.591   8.134  73.352  1.00  0.00    -0.247 C  
ENDBRANCH  26  30
BRANCH  28  32
HETATM   32  O   UNL     1     -12.013   8.656  72.649  1.00  0.00    -0.340 OA 
HETATM   33  C   UNL     1     -13.309   9.197  72.420  1.00  0.00    -0.463 C  
ENDBRANCH  28  32
ENDBRANCH  18  24
ENDBRANCH  17  18
ENDBRANCH  16  17
ENDBRANCH  15  16
ENDBRANCH  13  15
ENDBRANCH  12  13
ENDBRANCH  11  12
ENDBRANCH   7  11
ENDBRANCH   2   3
TORSDOF 12
ENDMDL
MODEL       38
REMARK 921   NORMALIZED FREE ENERGY PREDICTED BY IDOCK:   -5.51 KCAL/MOL
REMARK 922        TOTAL FREE ENERGY PREDICTED BY IDOCK:  -11.59 KCAL/MOL
REMARK 923 INTER-LIGAND FREE ENERGY PREDICTED BY IDOCK:  -10.60 KCAL/MOL
REMARK 924 INTRA-LIGAND FREE ENERGY PREDICTED BY IDOCK:   -0.99 KCAL/MOL
REMARK 927      BINDING AFFINITY PREDICTED BY RF-SCORE:    0.00 PKD
ROOT
HETATM    1  C   UNL     1     -11.960  16.310  72.479  1.00  0.00    -0.554 C  
HETATM    2  O   UNL     1     -12.520  15.744  71.298  1.00  0.00    -0.418 OA 
ENDROOT
BRANCH   2   3
HETATM    3  C   UNL     1     -12.560  14.371  71.242  1.00  0.00    -0.351 A  
HETATM    4  C   UNL     1     -11.913  13.544  70.309  1.00  0.00    -0.316 A  
HETATM    5  C   UNL     1     -13.603  12.414  72.247  1.00  0.00    -0.371 A  
HETATM    6  C   UNL     1     -12.116  12.154  70.371  1.00  0.00    -0.395 A  
HETATM    7  C   UNL     1     -12.952  11.574  71.335  1.00  0.00    -0.450 A  
HETATM    8  C   UNL     1     -13.412  13.799  72.193  1.00  0.00    -0.596 A  
BRANCH   4   9
HETATM    9  O   UNL     1     -11.152  14.144  69.342  1.00  0.00    -0.251 OA 
HETATM   10  C   UNL     1     -11.829  14.788  68.272  1.00  0.00    -0.284 C  
ENDBRANCH   4   9
BRANCH   7  11
HETATM   11  C   UNL     1     -13.272  10.082  71.256  1.00  0.00    -0.469 C  
BRANCH  11  12
HETATM   12  C   UNL     1     -11.963   9.355  70.924  1.00  0.00    -0.280 C  
BRANCH  12  13
HETATM   13  N   UNL     1     -10.982   8.964  71.942  1.00  0.00    -0.359 NA 
HETATM   14  C   UNL     1     -11.245   7.640  72.501  1.00  0.00    -0.346 C  
BRANCH  13  15
HETATM   15  C   UNL     1      -9.587   9.050  71.432  1.00  0.00    -0.285 C  
BRANCH  15  16
HETATM   16  C   UNL     1      -9.218   8.469  70.031  1.00  0.00    -0.155 C  
BRANCH  16  17
HETATM   17  C   UNL     1      -9.763   9.272  68.827  1.00  0.00    -0.162 C  
BRANCH  17  18
HETATM   18  C   UNL     1      -9.235   8.965  67.398  1.00  0.00    -0.157 C  
HETATM   19  N   UNL     1      -6.600   9.360  67.498  1.00  0.00    -0.063 NA 
HETATM   20  C   UNL     1      -9.434   7.417  67.030  1.00  0.00    -0.199 C  
HETATM   21  C   UNL     1      -7.748   9.190  67.438  1.00  0.00    -0.092 C  
HETATM   22  C   UNL     1     -10.884   6.911  66.962  1.00  0.00    -0.436 C  
HETATM   23  C   UNL     1      -8.697   6.462  67.995  1.00  0.00    -0.115 C  
BRANCH  18  24
HETATM   24  C   UNL     1      -9.940   9.921  66.428  1.00  0.00    -0.309 A  
HETATM   25  C   UNL     1      -9.701   9.877  65.044  1.00  0.00    -0.359 A  
HETATM   26  C   UNL     1     -10.188  10.861  64.177  1.00  0.00    -0.359 A  
HETATM   27  C   UNL     1     -10.737  10.972  66.916  1.00  0.00    -0.325 A  
HETATM   28  C   UNL     1     -10.968  11.906  64.698  1.00  0.00    -0.316 A  
HETATM   29  C   UNL     1     -11.257  11.935  66.059  1.00  0.00    -0.377 A  
BRANCH  26  30
HETATM   30  O   UNL     1      -9.925  10.891  62.832  1.00  0.00    -0.302 OA 
HETATM   31  C   UNL     1      -8.566  11.039  62.437  1.00  0.00    -0.286 C  
ENDBRANCH  26  30
BRANCH  28  32
HETATM   32  O   UNL     1     -11.379  12.872  63.811  1.00  0.00    -0.414 OA 
HETATM   33  C   UNL     1     -11.923  14.062  64.368  1.00  0.00    -0.454 C  
ENDBRANCH  28  32
ENDBRANCH  18  24
ENDBRANCH  17  18
ENDBRANCH  16  17
ENDBRANCH  15  16
ENDBRANCH  13  15
ENDBRANCH  12  13
ENDBRANCH  11  12
ENDBRANCH   7  11
ENDBRANCH   2   3
TORSDOF 12
ENDMDL
MODEL       39
REMARK 921   NORMALIZED FREE ENERGY PREDICTED BY IDOCK:   -5.48 KCAL/MOL
REMARK 922        TOTAL FREE ENERGY PREDICTED BY IDOCK:  -11.55 KCAL/MOL
REMARK 923 INTER-LIGAND FREE ENERGY PREDICTED BY IDOCK:   -9.94 KCAL/MOL
REMARK 924 INTRA-LIGAND FREE ENERGY PREDICTED BY IDOCK:   -1.61 KCAL/MOL
REMARK 927      BINDING AFFINITY PREDICTED BY RF-SCORE:    0.00 PKD
ROOT
HETATM    1  C   UNL     1      -8.639   5.277  72.409  1.00  0.00    -0.122 C  
HETATM    2  O   UNL     1      -8.472   6.663  72.689  1.00  0.00    -0.123 OA 
ENDROOT
BRANCH   2   3
HETATM    3  C   UNL     1      -9.522   7.483  72.351  1.00  0.00    -0.157 A  
HETATM    4  C   UNL     1      -9.484   8.598  71.497  1.00  0.00    -0.250 A  
HETATM    5  C   UNL     1     -11.868   7.931  72.822  1.00  0.00    -0.287 A  
HETATM    6  C   UNL     1     -10.652   9.358  71.312  1.00  0.00    -0.400 A  
HETATM    7  C   UNL     1     -11.851   9.035  71.961  1.00  0.00    -0.426 A  
HETATM    8  C   UNL     1     -10.712   7.169  73.018  1.00  0.00    -0.359 A  
BRANCH   4   9
HETATM    9  O   UNL     1      -8.283   8.924  70.924  1.00  0.00    -0.142 OA 
HETATM   10  C   UNL     1      -8.304   9.757  69.774  1.00  0.00    -0.178 C  
ENDBRANCH   4   9
BRANCH   7  11
HETATM   11  C   UNL     1     -13.043   9.986  71.860  1.00  0.00    -0.563 C  
BRANCH  11  12
HETATM   12  C   UNL     1     -12.830  10.845  70.607  1.00  0.00    -0.255 C  
BRANCH  12  13
HETATM   13  N   UNL     1     -12.994  12.302  70.595  1.00  0.00     0.087 NA 
HETATM   14  C   UNL     1     -13.186  12.860  71.933  1.00  0.00    -0.423 C  
BRANCH  13  15
HETATM   15  C   UNL     1     -11.869  12.983  69.901  1.00  0.00    -0.307 C  
BRANCH  15  16
HETATM   16  C   UNL     1     -11.287  12.400  68.574  1.00  0.00    -0.336 C  
BRANCH  16  17
HETATM   17  C   UNL     1     -11.639  13.200  67.299  1.00  0.00    -0.404 C  
BRANCH  17  18
HETATM   18  C   UNL     1     -10.500  13.707  66.372  1.00  0.00    -0.288 C  
HETATM   19  N   UNL     1      -8.353  12.255  67.000  1.00  0.00    -0.181 NA 
HETATM   20  C   UNL     1     -10.818  13.378  64.835  1.00  0.00    -0.363 C  
HETATM   21  C   UNL     1      -9.279  12.899  66.720  1.00  0.00    -0.230 C  
HETATM   22  C   UNL     1     -12.060  14.057  64.234  1.00  0.00    -0.476 C  
HETATM   23  C   UNL     1     -10.985  11.868  64.557  1.00  0.00    -0.376 C  
BRANCH  18  24
HETATM   24  C   UNL     1     -10.306  15.202  66.651  1.00  0.00    -0.274 A  
HETATM   25  C   UNL     1      -9.320  15.954  65.989  1.00  0.00    -0.385 A  
HETATM   26  C   UNL     1      -9.007  17.263  66.371  1.00  0.00    -0.252 A  
HETATM   27  C   UNL     1     -11.013  15.831  67.691  1.00  0.00    -0.302 A  
HETATM   28  C   UNL     1      -9.722  17.858  67.424  1.00  0.00    -0.288 A  
HETATM   29  C   UNL     1     -10.735  17.144  68.055  1.00  0.00    -0.372 A  
BRANCH  26  30
HETATM   30  O   UNL     1      -8.011  18.009  65.795  1.00  0.00    -0.532 OA 
HETATM   31  C   UNL     1      -6.669  17.652  66.104  1.00  0.00    -0.285 C  
ENDBRANCH  26  30
BRANCH  28  32
HETATM   32  O   UNL     1      -9.340  19.126  67.790  1.00  0.00    -0.294 OA 
HETATM   33  C   UNL     1     -10.168  20.195  67.346  1.00  0.00    -0.394 C  
ENDBRANCH  28  32
ENDBRANCH  18  24
ENDBRANCH  17  18
ENDBRANCH  16  17
ENDBRANCH  15  16
ENDBRANCH  13  15
ENDBRANCH  12  13
ENDBRANCH  11  12
ENDBRANCH   7  11
ENDBRANCH   2   3
TORSDOF 12
ENDMDL
MODEL       40
REMARK 921   NORMALIZED FREE ENERGY PREDICTED BY IDOCK:   -5.48 KCAL/MOL
REMARK 922        TOTAL FREE ENERGY PREDICTED BY IDOCK:  -11.55 KCAL/MOL
REMARK 923 INTER-LIGAND FREE ENERGY PREDICTED BY IDOCK:   -9.09 KCAL/MOL
REMARK 924 INTRA-LIGAND FREE ENERGY PREDICTED BY IDOCK:   -2.45 KCAL/MOL
REMARK 927      BINDING AFFINITY PREDICTED BY RF-SCORE:    0.00 PKD
ROOT
HETATM    1  C   UNL     1     -12.251  14.774  64.365  1.00  0.00    -0.428 C  
HETATM    2  O   UNL     1     -12.835  13.608  64.938  1.00  0.00    -0.688 OA 
ENDROOT
BRANCH   2   3
HETATM    3  C   UNL     1     -11.988  12.548  65.153  1.00  0.00    -0.434 A  
HETATM    4  C   UNL     1     -11.609  12.007  66.393  1.00  0.00    -0.313 A  
HETATM    5  C   UNL     1     -10.496  10.990  64.023  1.00  0.00    -0.433 A  
HETATM    6  C   UNL     1     -10.681  10.951  66.423  1.00  0.00    -0.257 A  
HETATM    7  C   UNL     1     -10.121  10.428  65.249  1.00  0.00    -0.370 A  
HETATM    8  C   UNL     1     -11.416  12.043  63.980  1.00  0.00    -0.484 A  
BRANCH   4   9
HETATM    9  O   UNL     1     -12.126  12.578  67.525  1.00  0.00    -0.453 OA 
HETATM   10  C   UNL     1     -11.625  12.133  68.778  1.00  0.00    -0.327 C  
ENDBRANCH   4   9
BRANCH   7  11
HETATM   11  C   UNL     1      -8.995   9.399  65.344  1.00  0.00    -0.251 C  
BRANCH  11  12
HETATM   12  C   UNL     1      -8.135   9.781  66.555  1.00  0.00    -0.116 C  
BRANCH  12  13
HETATM   13  N   UNL     1      -8.160   9.042  67.822  1.00  0.00    -0.109 NA 
HETATM   14  C   UNL     1      -7.062   8.084  67.939  1.00  0.00    -0.086 C  
BRANCH  13  15
HETATM   15  C   UNL     1      -8.186   9.954  68.997  1.00  0.00    -0.124 C  
BRANCH  15  16
HETATM   16  C   UNL     1      -9.001   9.578  70.274  1.00  0.00    -0.288 C  
BRANCH  16  17
HETATM   17  C   UNL     1     -10.218   8.658  70.025  1.00  0.00    -0.201 C  
BRANCH  17  18
HETATM   18  C   UNL     1     -10.146   7.161  70.434  1.00  0.00    -0.199 C  
HETATM   19  N   UNL     1      -7.775   6.845  71.612  1.00  0.00    -0.094 NA 
HETATM   20  C   UNL     1     -11.242   6.815  71.553  1.00  0.00    -0.300 C  
HETATM   21  C   UNL     1      -8.808   6.967  71.096  1.00  0.00    -0.142 C  
HETATM   22  C   UNL     1     -12.714   6.974  71.140  1.00  0.00    -0.361 C  
HETATM   23  C   UNL     1     -11.074   7.642  72.846  1.00  0.00    -0.448 C  
BRANCH  18  24
HETATM   24  C   UNL     1     -10.289   6.324  69.158  1.00  0.00    -0.262 A  
HETATM   25  C   UNL     1      -9.736   5.036  69.053  1.00  0.00    -0.238 A  
HETATM   26  C   UNL     1      -9.694   4.345  67.838  1.00  0.00    -0.129 A  
HETATM   27  C   UNL     1     -10.852   6.884  67.997  1.00  0.00    -0.266 A  
HETATM   28  C   UNL     1     -10.251   4.939  66.693  1.00  0.00    -0.255 A  
HETATM   29  C   UNL     1     -10.848   6.191  66.791  1.00  0.00    -0.360 A  
BRANCH  26  30
HETATM   30  O   UNL     1      -9.108   3.115  67.679  1.00  0.00    -0.143 OA 
HETATM   31  C   UNL     1      -9.385   2.129  68.667  1.00  0.00    -0.175 C  
ENDBRANCH  26  30
BRANCH  28  32
HETATM   32  O   UNL     1     -10.138   4.237  65.517  1.00  0.00    -0.217 OA 
HETATM   33  C   UNL     1      -9.131   4.670  64.610  1.00  0.00    -0.141 C  
ENDBRANCH  28  32
ENDBRANCH  18  24
ENDBRANCH  17  18
ENDBRANCH  16  17
ENDBRANCH  15  16
ENDBRANCH  13  15
ENDBRANCH  12  13
ENDBRANCH  11  12
ENDBRANCH   7  11
ENDBRANCH   2   3
TORSDOF 12
ENDMDL
MODEL       41
REMARK 921   NORMALIZED FREE ENERGY PREDICTED BY IDOCK:   -5.47 KCAL/MOL
REMARK 922        TOTAL FREE ENERGY PREDICTED BY IDOCK:  -11.53 KCAL/MOL
REMARK 923 INTER-LIGAND FREE ENERGY PREDICTED BY IDOCK:   -8.95 KCAL/MOL
REMARK 924 INTRA-LIGAND FREE ENERGY PREDICTED BY IDOCK:   -2.58 KCAL/MOL
REMARK 927      BINDING AFFINITY PREDICTED BY RF-SCORE:    0.00 PKD
ROOT
HETATM    1  C   UNL     1     -11.241  15.829  64.485  1.00  0.00    -0.322 C  
HETATM    2  O   UNL     1     -12.260  14.856  64.690  1.00  0.00    -0.418 OA 
ENDROOT
BRANCH   2   3
HETATM    3  C   UNL     1     -11.977  13.857  65.590  1.00  0.00    -0.392 A  
HETATM    4  C   UNL     1     -11.639  12.526  65.297  1.00  0.00    -0.364 A  
HETATM    5  C   UNL     1     -11.923  13.342  67.969  1.00  0.00    -0.357 A  
HETATM    6  C   UNL     1     -11.437  11.622  66.356  1.00  0.00    -0.238 A  
HETATM    7  C   UNL     1     -11.569  12.016  67.695  1.00  0.00    -0.392 A  
HETATM    8  C   UNL     1     -12.131  14.249  66.925  1.00  0.00    -0.440 A  
BRANCH   4   9
HETATM    9  O   UNL     1     -11.576  12.156  63.980  1.00  0.00    -0.364 OA 
HETATM   10  C   UNL     1     -10.297  12.127  63.361  1.00  0.00    -0.402 C  
ENDBRANCH   4   9
BRANCH   7  11
HETATM   11  C   UNL     1     -11.506  10.962  68.800  1.00  0.00    -0.376 C  
BRANCH  11  12
HETATM   12  C   UNL     1     -11.725  11.690  70.132  1.00  0.00    -0.296 C  
BRANCH  12  13
HETATM   13  N   UNL     1     -12.325  11.050  71.307  1.00  0.00    -0.346 NA 
HETATM   14  C   UNL     1     -13.317  11.897  71.967  1.00  0.00    -0.320 C  
BRANCH  13  15
HETATM   15  C   UNL     1     -12.905   9.720  70.981  1.00  0.00    -0.291 C  
BRANCH  15  16
HETATM   16  C   UNL     1     -12.283   8.417  71.574  1.00  0.00    -0.340 C  
BRANCH  16  17
HETATM   17  C   UNL     1     -11.650   7.464  70.534  1.00  0.00    -0.256 C  
BRANCH  17  18
HETATM   18  C   UNL     1     -10.104   7.317  70.470  1.00  0.00    -0.195 C  
HETATM   19  N   UNL     1      -9.148   8.827  72.449  1.00  0.00    -0.375 NA 
HETATM   20  C   UNL     1      -9.653   5.815  70.805  1.00  0.00    -0.210 C  
HETATM   21  C   UNL     1      -9.551   8.170  71.579  1.00  0.00    -0.173 C  
HETATM   22  C   UNL     1     -10.130   4.725  69.832  1.00  0.00    -0.299 C  
HETATM   23  C   UNL     1     -10.090   5.348  72.211  1.00  0.00    -0.231 C  
BRANCH  18  24
HETATM   24  C   UNL     1      -9.650   7.798  69.087  1.00  0.00    -0.155 A  
HETATM   25  C   UNL     1      -8.499   8.587  68.920  1.00  0.00    -0.123 A  
HETATM   26  C   UNL     1      -8.183   9.188  67.698  1.00  0.00    -0.108 A  
HETATM   27  C   UNL     1     -10.460   7.588  67.956  1.00  0.00    -0.253 A  
HETATM   28  C   UNL     1      -9.022   8.970  66.592  1.00  0.00    -0.135 A  
HETATM   29  C   UNL     1     -10.137   8.151  66.727  1.00  0.00    -0.365 A  
BRANCH  26  30
HETATM   30  O   UNL     1      -7.105  10.015  67.509  1.00  0.00    -0.085 OA 
HETATM   31  C   UNL     1      -5.846   9.565  67.995  1.00  0.00    -0.041 C  
ENDBRANCH  26  30
BRANCH  28  32
HETATM   32  O   UNL     1      -8.692   9.625  65.429  1.00  0.00    -0.141 OA 
HETATM   33  C   UNL     1      -8.329   8.811  64.320  1.00  0.00    -0.151 C  
ENDBRANCH  28  32
ENDBRANCH  18  24
ENDBRANCH  17  18
ENDBRANCH  16  17
ENDBRANCH  15  16
ENDBRANCH  13  15
ENDBRANCH  12  13
ENDBRANCH  11  12
ENDBRANCH   7  11
ENDBRANCH   2   3
TORSDOF 12
ENDMDL
MODEL       42
REMARK 921   NORMALIZED FREE ENERGY PREDICTED BY IDOCK:   -5.47 KCAL/MOL
REMARK 922        TOTAL FREE ENERGY PREDICTED BY IDOCK:  -11.53 KCAL/MOL
REMARK 923 INTER-LIGAND FREE ENERGY PREDICTED BY IDOCK:   -9.69 KCAL/MOL
REMARK 924 INTRA-LIGAND FREE ENERGY PREDICTED BY IDOCK:   -1.84 KCAL/MOL
REMARK 927      BINDING AFFINITY PREDICTED BY RF-SCORE:    0.00 PKD
ROOT
HETATM    1  C   UNL     1     -11.395   7.431  72.598  1.00  0.00    -0.313 C  
HETATM    2  O   UNL     1     -11.908   8.755  72.477  1.00  0.00    -0.334 OA 
ENDROOT
BRANCH   2   3
HETATM    3  C   UNL     1     -11.731   9.367  71.259  1.00  0.00    -0.360 A  
HETATM    4  C   UNL     1     -12.334  10.554  70.814  1.00  0.00    -0.378 A  
HETATM    5  C   UNL     1     -10.660   9.103  69.089  1.00  0.00    -0.224 A  
HETATM    6  C   UNL     1     -12.077  11.004  69.507  1.00  0.00    -0.400 A  
HETATM    7  C   UNL     1     -11.239  10.294  68.635  1.00  0.00    -0.263 A  
HETATM    8  C   UNL     1     -10.910   8.643  70.386  1.00  0.00    -0.250 A  
BRANCH   4   9
HETATM    9  O   UNL     1     -13.195  11.193  71.666  1.00  0.00    -0.418 OA 
HETATM   10  C   UNL     1     -13.282  12.609  71.580  1.00  0.00    -0.221 C  
ENDBRANCH   4   9
BRANCH   7  11
HETATM   11  C   UNL     1     -11.126  10.731  67.175  1.00  0.00    -0.297 C  
BRANCH  11  12
HETATM   12  C   UNL     1      -9.667  10.518  66.751  1.00  0.00    -0.179 C  
BRANCH  12  13
HETATM   13  N   UNL     1      -9.115  11.026  65.491  1.00  0.00    -0.207 NA 
HETATM   14  C   UNL     1      -8.332  10.023  64.772  1.00  0.00    -0.163 C  
BRANCH  13  15
HETATM   15  C   UNL     1     -10.170  11.597  64.612  1.00  0.00    -0.281 C  
BRANCH  15  16
HETATM   16  C   UNL     1     -10.224  13.132  64.331  1.00  0.00    -0.319 C  
BRANCH  16  17
HETATM   17  C   UNL     1      -9.711  14.025  65.484  1.00  0.00    -0.141 C  
BRANCH  17  18
HETATM   18  C   UNL     1     -10.552  15.251  65.938  1.00  0.00    -0.345 C  
HETATM   19  N   UNL     1     -11.985  15.975  63.809  1.00  0.00    -0.759 NA 
HETATM   20  C   UNL     1     -11.617  14.834  67.063  1.00  0.00    -0.352 C  
HETATM   21  C   UNL     1     -11.362  15.674  64.743  1.00  0.00    -0.343 C  
HETATM   22  C   UNL     1     -11.041  14.319  68.392  1.00  0.00    -0.274 C  
HETATM   23  C   UNL     1     -12.615  13.756  66.587  1.00  0.00    -0.171 C  
BRANCH  18  24
HETATM   24  C   UNL     1      -9.575  16.341  66.393  1.00  0.00    -0.316 A  
HETATM   25  C   UNL     1     -10.000  17.658  66.636  1.00  0.00    -0.328 A  
HETATM   26  C   UNL     1      -9.093  18.698  66.864  1.00  0.00    -0.294 A  
HETATM   27  C   UNL     1      -8.192  16.087  66.435  1.00  0.00    -0.309 A  
HETATM   28  C   UNL     1      -7.717  18.414  66.885  1.00  0.00    -0.224 A  
HETATM   29  C   UNL     1      -7.284  17.106  66.696  1.00  0.00    -0.282 A  
BRANCH  26  30
HETATM   30  O   UNL     1      -9.462  20.007  67.042  1.00  0.00    -0.347 OA 
HETATM   31  C   UNL     1     -10.130  20.336  68.255  1.00  0.00    -0.245 C  
ENDBRANCH  26  30
BRANCH  28  32
HETATM   32  O   UNL     1      -6.870  19.481  67.063  1.00  0.00    -0.193 OA 
HETATM   33  C   UNL     1      -5.475  19.199  67.039  1.00  0.00    -0.163 C  
ENDBRANCH  28  32
ENDBRANCH  18  24
ENDBRANCH  17  18
ENDBRANCH  16  17
ENDBRANCH  15  16
ENDBRANCH  13  15
ENDBRANCH  12  13
ENDBRANCH  11  12
ENDBRANCH   7  11
ENDBRANCH   2   3
TORSDOF 12
ENDMDL
MODEL       43
REMARK 921   NORMALIZED FREE ENERGY PREDICTED BY IDOCK:   -5.44 KCAL/MOL
REMARK 922        TOTAL FREE ENERGY PREDICTED BY IDOCK:  -11.48 KCAL/MOL
REMARK 923 INTER-LIGAND FREE ENERGY PREDICTED BY IDOCK:   -9.91 KCAL/MOL
REMARK 924 INTRA-LIGAND FREE ENERGY PREDICTED BY IDOCK:   -1.57 KCAL/MOL
REMARK 927      BINDING AFFINITY PREDICTED BY RF-SCORE:    0.00 PKD
ROOT
HETATM    1  C   UNL     1     -10.153   5.927  74.168  1.00  0.00    -0.267 C  
HETATM    2  O   UNL     1     -11.281   5.601  73.362  1.00  0.00    -0.247 OA 
ENDROOT
BRANCH   2   3
HETATM    3  C   UNL     1     -11.131   5.775  72.008  1.00  0.00    -0.260 A  
HETATM    4  C   UNL     1     -11.907   6.592  71.169  1.00  0.00    -0.360 A  
HETATM    5  C   UNL     1      -9.877   4.990  70.074  1.00  0.00    -0.298 A  
HETATM    6  C   UNL     1     -11.643   6.602  69.788  1.00  0.00    -0.354 A  
HETATM    7  C   UNL     1     -10.630   5.812  69.226  1.00  0.00    -0.376 A  
HETATM    8  C   UNL     1     -10.132   4.969  71.449  1.00  0.00    -0.268 A  
BRANCH   4   9
HETATM    9  O   UNL     1     -12.928   7.306  71.738  1.00  0.00    -0.345 OA 
HETATM   10  C   UNL     1     -12.673   8.657  72.094  1.00  0.00    -0.392 C  
ENDBRANCH   4   9
BRANCH   7  11
HETATM   11  C   UNL     1     -10.494   5.729  67.707  1.00  0.00    -0.289 C  
BRANCH  11  12
HETATM   12  C   UNL     1      -9.005   5.899  67.376  1.00  0.00    -0.108 C  
BRANCH  12  13
HETATM   13  N   UNL     1      -8.449   7.122  66.786  1.00  0.00    -0.118 NA 
HETATM   14  C   UNL     1      -8.348   7.051  65.330  1.00  0.00    -0.118 C  
BRANCH  13  15
HETATM   15  C   UNL     1      -9.204   8.333  67.202  1.00  0.00    -0.144 C  
BRANCH  15  16
HETATM   16  C   UNL     1      -9.837   9.279  66.132  1.00  0.00    -0.363 C  
BRANCH  16  17
HETATM   17  C   UNL     1     -10.898  10.263  66.675  1.00  0.00    -0.115 C  
BRANCH  17  18
HETATM   18  C   UNL     1     -10.585  11.785  66.714  1.00  0.00    -0.273 C  
HETATM   19  N   UNL     1      -7.927  11.976  66.803  1.00  0.00    -0.111 NA 
HETATM   20  C   UNL     1     -11.031  12.500  65.350  1.00  0.00    -0.329 C  
HETATM   21  C   UNL     1      -9.086  11.907  66.771  1.00  0.00    -0.197 C  
HETATM   22  C   UNL     1     -12.535  12.480  65.029  1.00  0.00    -0.494 C  
HETATM   23  C   UNL     1     -10.324  11.928  64.103  1.00  0.00    -0.377 C  
BRANCH  18  24
HETATM   24  C   UNL     1     -11.262  12.365  67.961  1.00  0.00    -0.317 A  
HETATM   25  C   UNL     1     -11.366  13.752  68.167  1.00  0.00    -0.315 A  
HETATM   26  C   UNL     1     -11.806  14.289  69.380  1.00  0.00    -0.326 A  
HETATM   27  C   UNL     1     -11.668  11.522  69.011  1.00  0.00    -0.400 A  
HETATM   28  C   UNL     1     -12.189  13.419  70.415  1.00  0.00    -0.345 A  
HETATM   29  C   UNL     1     -12.141  12.045  70.209  1.00  0.00    -0.395 A  
BRANCH  26  30
HETATM   30  O   UNL     1     -11.862  15.634  69.644  1.00  0.00    -0.334 OA 
HETATM   31  C   UNL     1     -10.874  16.458  69.037  1.00  0.00    -0.331 C  
ENDBRANCH  26  30
BRANCH  28  32
HETATM   32  O   UNL     1     -12.566  14.000  71.602  1.00  0.00    -0.331 OA 
HETATM   33  C   UNL     1     -13.680  13.421  72.271  1.00  0.00    -0.607 C  
ENDBRANCH  28  32
ENDBRANCH  18  24
ENDBRANCH  17  18
ENDBRANCH  16  17
ENDBRANCH  15  16
ENDBRANCH  13  15
ENDBRANCH  12  13
ENDBRANCH  11  12
ENDBRANCH   7  11
ENDBRANCH   2   3
TORSDOF 12
ENDMDL
MODEL       44
REMARK 921   NORMALIZED FREE ENERGY PREDICTED BY IDOCK:   -5.44 KCAL/MOL
REMARK 922        TOTAL FREE ENERGY PREDICTED BY IDOCK:  -11.48 KCAL/MOL
REMARK 923 INTER-LIGAND FREE ENERGY PREDICTED BY IDOCK:   -9.62 KCAL/MOL
REMARK 924 INTRA-LIGAND FREE ENERGY PREDICTED BY IDOCK:   -1.86 KCAL/MOL
REMARK 927      BINDING AFFINITY PREDICTED BY RF-SCORE:    0.00 PKD
ROOT
HETATM    1  C   UNL     1     -13.996   7.448  71.673  1.00  0.00    -0.403 C  
HETATM    2  O   UNL     1     -12.834   6.627  71.618  1.00  0.00    -0.323 OA 
ENDROOT
BRANCH   2   3
HETATM    3  C   UNL     1     -11.662   7.255  71.273  1.00  0.00    -0.296 A  
HETATM    4  C   UNL     1     -10.978   7.157  70.050  1.00  0.00    -0.262 A  
HETATM    5  C   UNL     1      -9.881   8.664  72.150  1.00  0.00    -0.387 A  
HETATM    6  C   UNL     1      -9.753   7.829  69.895  1.00  0.00    -0.176 A  
HETATM    7  C   UNL     1      -9.195   8.591  70.932  1.00  0.00    -0.213 A  
HETATM    8  C   UNL     1     -11.098   7.996  72.318  1.00  0.00    -0.393 A  
BRANCH   4   9
HETATM    9  O   UNL     1     -11.517   6.357  69.078  1.00  0.00    -0.337 OA 
HETATM   10  C   UNL     1     -10.695   6.017  67.970  1.00  0.00    -0.282 C  
ENDBRANCH   4   9
BRANCH   7  11
HETATM   11  C   UNL     1      -7.786   9.162  70.774  1.00  0.00    -0.173 C  
BRANCH  11  12
HETATM   12  C   UNL     1      -7.874  10.303  69.752  1.00  0.00    -0.139 C  
BRANCH  12  13
HETATM   13  N   UNL     1      -7.217  10.259  68.441  1.00  0.00    -0.078 NA 
HETATM   14  C   UNL     1      -6.832   8.905  68.048  1.00  0.00    -0.070 C  
BRANCH  13  15
HETATM   15  C   UNL     1      -8.045  10.896  67.382  1.00  0.00    -0.114 C  
BRANCH  15  16
HETATM   16  C   UNL     1      -8.482  12.390  67.509  1.00  0.00    -0.175 C  
BRANCH  16  17
HETATM   17  C   UNL     1      -9.949  12.677  67.115  1.00  0.00    -0.217 C  
BRANCH  17  18
HETATM   18  C   UNL     1     -10.502  14.126  67.220  1.00  0.00    -0.272 C  
HETATM   19  N   UNL     1      -8.397  15.731  66.901  1.00  0.00    -0.224 NA 
HETATM   20  C   UNL     1     -11.494  14.453  66.003  1.00  0.00    -0.349 C  
HETATM   21  C   UNL     1      -9.322  15.043  67.047  1.00  0.00    -0.224 C  
HETATM   22  C   UNL     1     -12.779  13.613  65.923  1.00  0.00    -0.428 C  
HETATM   23  C   UNL     1     -10.820  14.329  64.619  1.00  0.00    -0.384 C  
BRANCH  18  24
HETATM   24  C   UNL     1     -11.156  14.273  68.599  1.00  0.00    -0.273 A  
HETATM   25  C   UNL     1     -11.552  13.155  69.352  1.00  0.00    -0.360 A  
HETATM   26  C   UNL     1     -12.317  13.279  70.516  1.00  0.00    -0.316 A  
HETATM   27  C   UNL     1     -11.515  15.543  69.086  1.00  0.00    -0.356 A  
HETATM   28  C   UNL     1     -12.672  14.561  70.968  1.00  0.00    -0.343 A  
HETATM   29  C   UNL     1     -12.244  15.680  70.262  1.00  0.00    -0.416 A  
BRANCH  26  30
HETATM   30  O   UNL     1     -12.778  12.212  71.244  1.00  0.00    -0.366 OA 
HETATM   31  C   UNL     1     -12.468  10.910  70.760  1.00  0.00    -0.394 C  
ENDBRANCH  26  30
BRANCH  28  32
HETATM   32  O   UNL     1     -13.466  14.623  72.088  1.00  0.00    -0.335 OA 
HETATM   33  C   UNL     1     -13.276  15.744  72.943  1.00  0.00    -0.545 C  
ENDBRANCH  28  32
ENDBRANCH  18  24
ENDBRANCH  17  18
ENDBRANCH  16  17
ENDBRANCH  15  16
ENDBRANCH  13  15
ENDBRANCH  12  13
ENDBRANCH  11  12
ENDBRANCH   7  11
ENDBRANCH   2   3
TORSDOF 12
ENDMDL
MODEL       45
REMARK 921   NORMALIZED FREE ENERGY PREDICTED BY IDOCK:   -5.44 KCAL/MOL
REMARK 922        TOTAL FREE ENERGY PREDICTED BY IDOCK:  -11.48 KCAL/MOL
REMARK 923 INTER-LIGAND FREE ENERGY PREDICTED BY IDOCK:  -10.05 KCAL/MOL
REMARK 924 INTRA-LIGAND FREE ENERGY PREDICTED BY IDOCK:   -1.43 KCAL/MOL
REMARK 927      BINDING AFFINITY PREDICTED BY RF-SCORE:    0.00 PKD
ROOT
HETATM    1  C   UNL     1      -9.625   8.186  68.283  1.00  0.00    -0.144 C  
HETATM    2  O   UNL     1     -10.507   8.057  69.394  1.00  0.00    -0.219 OA 
ENDROOT
BRANCH   2   3
HETATM    3  C   UNL     1     -11.064   9.220  69.867  1.00  0.00    -0.181 A  
HETATM    4  C   UNL     1     -11.898   9.364  70.988  1.00  0.00    -0.322 A  
HETATM    5  C   UNL     1     -11.326  11.591  69.375  1.00  0.00    -0.355 A  
HETATM    6  C   UNL     1     -12.425  10.632  71.291  1.00  0.00    -0.515 A  
HETATM    7  C   UNL     1     -12.145  11.754  70.499  1.00  0.00    -0.439 A  
HETATM    8  C   UNL     1     -10.798  10.334  69.061  1.00  0.00    -0.265 A  
BRANCH   4   9
HETATM    9  O   UNL     1     -12.203   8.239  71.707  1.00  0.00    -0.294 OA 
HETATM   10  C   UNL     1     -11.223   7.746  72.611  1.00  0.00    -0.381 C  
ENDBRANCH   4   9
BRANCH   7  11
HETATM   11  C   UNL     1     -12.874  13.069  70.770  1.00  0.00    -0.150 C  
BRANCH  11  12
HETATM   12  C   UNL     1     -12.248  14.130  69.855  1.00  0.00    -0.359 C  
BRANCH  12  13
HETATM   13  N   UNL     1     -12.173  15.552  70.209  1.00  0.00    -0.389 NA 
HETATM   14  C   UNL     1     -12.530  15.807  71.603  1.00  0.00    -0.463 C  
BRANCH  13  15
HETATM   15  C   UNL     1     -10.842  16.134  69.894  1.00  0.00    -0.355 C  
BRANCH  15  16
HETATM   16  C   UNL     1     -10.728  17.450  69.061  1.00  0.00    -0.085 C  
BRANCH  16  17
HETATM   17  C   UNL     1      -9.380  17.646  68.331  1.00  0.00    -0.289 C  
BRANCH  17  18
HETATM   18  C   UNL     1      -9.332  17.588  66.779  1.00  0.00    -0.275 C  
HETATM   19  N   UNL     1     -10.992  19.494  65.929  1.00  0.00    -0.294 NA 
HETATM   20  C   UNL     1      -7.880  17.993  66.231  1.00  0.00    -0.288 C  
HETATM   21  C   UNL     1     -10.270  18.656  66.285  1.00  0.00    -0.427 C  
HETATM   22  C   UNL     1      -6.716  17.072  66.633  1.00  0.00    -0.273 C  
HETATM   23  C   UNL     1      -7.452  19.420  66.640  1.00  0.00    -0.253 C  
BRANCH  18  24
HETATM   24  C   UNL     1      -9.776  16.183  66.354  1.00  0.00    -0.308 A  
HETATM   25  C   UNL     1      -9.151  15.028  66.855  1.00  0.00    -0.269 A  
HETATM   26  C   UNL     1      -9.417  13.758  66.334  1.00  0.00    -0.243 A  
HETATM   27  C   UNL     1     -10.728  16.014  65.332  1.00  0.00    -0.399 A  
HETATM   28  C   UNL     1     -10.362  13.625  65.303  1.00  0.00    -0.348 A  
HETATM   29  C   UNL     1     -11.026  14.752  64.831  1.00  0.00    -0.425 A  
BRANCH  26  30
HETATM   30  O   UNL     1      -8.784  12.614  66.750  1.00  0.00    -0.199 OA 
HETATM   31  C   UNL     1      -7.635  12.770  67.576  1.00  0.00    -0.162 C  
ENDBRANCH  26  30
BRANCH  28  32
HETATM   32  O   UNL     1     -10.547  12.362  64.795  1.00  0.00    -0.278 OA 
HETATM   33  C   UNL     1     -10.846  12.269  63.407  1.00  0.00    -0.403 C  
ENDBRANCH  28  32
ENDBRANCH  18  24
ENDBRANCH  17  18
ENDBRANCH  16  17
ENDBRANCH  15  16
ENDBRANCH  13  15
ENDBRANCH  12  13
ENDBRANCH  11  12
ENDBRANCH   7  11
ENDBRANCH   2   3
TORSDOF 12
ENDMDL
MODEL       46
REMARK 921   NORMALIZED FREE ENERGY PREDICTED BY IDOCK:   -5.43 KCAL/MOL
REMARK 922        TOTAL FREE ENERGY PREDICTED BY IDOCK:  -11.47 KCAL/MOL
REMARK 923 INTER-LIGAND FREE ENERGY PREDICTED BY IDOCK:   -9.96 KCAL/MOL
REMARK 924 INTRA-LIGAND FREE ENERGY PREDICTED BY IDOCK:   -1.50 KCAL/MOL
REMARK 927      BINDING AFFINITY PREDICTED BY RF-SCORE:    0.00 PKD
ROOT
HETATM    1  C   UNL     1     -11.124   6.761  68.991  1.00  0.00    -0.197 C  
HETATM    2  O   UNL     1     -10.070   7.713  68.879  1.00  0.00    -0.186 OA 
ENDROOT
BRANCH   2   3
HETATM    3  C   UNL     1     -10.113   8.541  67.783  1.00  0.00    -0.211 A  
HETATM    4  C   UNL     1      -9.611   8.272  66.499  1.00  0.00    -0.244 A  
HETATM    5  C   UNL     1     -10.735  10.783  67.064  1.00  0.00    -0.320 A  
HETATM    6  C   UNL     1      -9.692   9.268  65.510  1.00  0.00    -0.247 A  
HETATM    7  C   UNL     1     -10.256  10.524  65.775  1.00  0.00    -0.310 A  
HETATM    8  C   UNL     1     -10.657   9.801  68.058  1.00  0.00    -0.291 A  
BRANCH   4   9
HETATM    9  O   UNL     1      -9.012   7.058  66.288  1.00  0.00    -0.150 OA 
HETATM   10  C   UNL     1      -7.603   7.039  66.108  1.00  0.00    -0.095 C  
ENDBRANCH   4   9
BRANCH   7  11
HETATM   11  C   UNL     1     -10.168  11.626  64.720  1.00  0.00    -0.321 C  
BRANCH  11  12
HETATM   12  C   UNL     1     -11.579  12.207  64.555  1.00  0.00    -0.336 C  
BRANCH  12  13
HETATM   13  N   UNL     1     -11.870  13.643  64.630  1.00  0.00    -0.379 NA 
HETATM   14  C   UNL     1     -12.907  13.958  65.610  1.00  0.00    -0.424 C  
BRANCH  13  15
HETATM   15  C   UNL     1     -10.645  14.446  64.888  1.00  0.00    -0.434 C  
BRANCH  15  16
HETATM   16  C   UNL     1     -10.578  15.422  66.104  1.00  0.00    -0.321 C  
BRANCH  16  17
HETATM   17  C   UNL     1      -9.431  15.144  67.103  1.00  0.00    -0.224 C  
BRANCH  17  18
HETATM   18  C   UNL     1      -9.460  15.804  68.509  1.00  0.00    -0.201 C  
HETATM   19  N   UNL     1      -7.155  15.138  69.672  1.00  0.00    -0.190 NA 
HETATM   20  C   UNL     1      -9.448  17.404  68.395  1.00  0.00    -0.293 C  
HETATM   21  C   UNL     1      -8.166  15.431  69.180  1.00  0.00    -0.243 C  
HETATM   22  C   UNL     1     -10.660  18.049  67.702  1.00  0.00    -0.413 C  
HETATM   23  C   UNL     1      -8.202  17.953  67.667  1.00  0.00    -0.232 C  
BRANCH  18  24
HETATM   24  C   UNL     1     -10.681  15.252  69.255  1.00  0.00    -0.252 A  
HETATM   25  C   UNL     1     -11.312  15.981  70.278  1.00  0.00    -0.391 A  
HETATM   26  C   UNL     1     -12.299  15.413  71.090  1.00  0.00    -0.385 A  
HETATM   27  C   UNL     1     -11.113  13.932  69.038  1.00  0.00    -0.302 A  
HETATM   28  C   UNL     1     -12.698  14.086  70.857  1.00  0.00    -0.350 A  
HETATM   29  C   UNL     1     -12.119  13.369  69.815  1.00  0.00    -0.374 A  
BRANCH  26  30
HETATM   30  O   UNL     1     -12.895  16.067  72.138  1.00  0.00    -0.453 OA 
HETATM   31  C   UNL     1     -12.199  16.079  73.379  1.00  0.00    -0.525 C  
ENDBRANCH  26  30
BRANCH  28  32
HETATM   32  O   UNL     1     -13.635  13.563  71.715  1.00  0.00    -0.380 OA 
HETATM   33  C   UNL     1     -13.489  12.191  72.060  1.00  0.00    -0.286 C  
ENDBRANCH  28  32
ENDBRANCH  18  24
ENDBRANCH  17  18
ENDBRANCH  16  17
ENDBRANCH  15  16
ENDBRANCH  13  15
ENDBRANCH  12  13
ENDBRANCH  11  12
ENDBRANCH   7  11
ENDBRANCH   2   3
TORSDOF 12
ENDMDL
MODEL       47
REMARK 921   NORMALIZED FREE ENERGY PREDICTED BY IDOCK:   -5.43 KCAL/MOL
REMARK 922        TOTAL FREE ENERGY PREDICTED BY IDOCK:  -11.46 KCAL/MOL
REMARK 923 INTER-LIGAND FREE ENERGY PREDICTED BY IDOCK:  -10.15 KCAL/MOL
REMARK 924 INTRA-LIGAND FREE ENERGY PREDICTED BY IDOCK:   -1.31 KCAL/MOL
REMARK 927      BINDING AFFINITY PREDICTED BY RF-SCORE:    0.00 PKD
ROOT
HETATM    1  C   UNL     1     -10.101  20.339  67.040  1.00  0.00    -0.427 C  
HETATM    2  O   UNL     1      -9.989  19.729  68.322  1.00  0.00    -0.400 OA 
ENDROOT
BRANCH   2   3
HETATM    3  C   UNL     1      -9.179  18.621  68.400  1.00  0.00    -0.326 A  
HETATM    4  C   UNL     1      -9.581  17.276  68.371  1.00  0.00    -0.285 A  
HETATM    5  C   UNL     1      -6.874  17.920  68.751  1.00  0.00    -0.255 A  
HETATM    6  C   UNL     1      -8.612  16.269  68.522  1.00  0.00    -0.211 A  
HETATM    7  C   UNL     1      -7.256  16.574  68.706  1.00  0.00    -0.197 A  
HETATM    8  C   UNL     1      -7.830  18.931  68.605  1.00  0.00    -0.375 A  
BRANCH   4   9
HETATM    9  O   UNL     1     -10.919  17.010  68.250  1.00  0.00    -0.365 OA 
HETATM   10  C   UNL     1     -11.309  15.662  68.028  1.00  0.00    -0.324 C  
ENDBRANCH   4   9
BRANCH   7  11
HETATM   11  C   UNL     1      -6.269  15.454  69.034  1.00  0.00    -0.105 C  
BRANCH  11  12
HETATM   12  C   UNL     1      -6.279  14.482  67.847  1.00  0.00    -0.155 C  
BRANCH  12  13
HETATM   13  N   UNL     1      -6.198  13.025  68.001  1.00  0.00    -0.096 NA 
HETATM   14  C   UNL     1      -6.107  12.610  69.400  1.00  0.00    -0.107 C  
BRANCH  13  15
HETATM   15  C   UNL     1      -7.324  12.330  67.321  1.00  0.00    -0.140 C  
BRANCH  15  16
HETATM   16  C   UNL     1      -8.796  12.797  67.546  1.00  0.00    -0.187 C  
BRANCH  16  17
HETATM   17  C   UNL     1      -9.672  12.834  66.273  1.00  0.00    -0.262 C  
BRANCH  17  18
HETATM   18  C   UNL     1     -10.814  11.794  66.097  1.00  0.00    -0.336 C  
HETATM   19  N   UNL     1     -12.911  13.169  65.190  1.00  0.00    -0.729 NA 
HETATM   20  C   UNL     1     -10.455  10.733  64.949  1.00  0.00    -0.324 C  
HETATM   21  C   UNL     1     -12.007  12.559  65.590  1.00  0.00    -0.433 C  
HETATM   22  C   UNL     1      -9.231   9.838  65.205  1.00  0.00    -0.297 C  
HETATM   23  C   UNL     1     -10.223  11.384  63.569  1.00  0.00    -0.461 C  
BRANCH  18  24
HETATM   24  C   UNL     1     -11.073  11.154  67.465  1.00  0.00    -0.353 A  
HETATM   25  C   UNL     1     -11.765  11.836  68.481  1.00  0.00    -0.390 A  
HETATM   26  C   UNL     1     -11.840  11.342  69.787  1.00  0.00    -0.364 A  
HETATM   27  C   UNL     1     -10.494   9.916  67.795  1.00  0.00    -0.292 A  
HETATM   28  C   UNL     1     -11.236  10.109  70.087  1.00  0.00    -0.310 A  
HETATM   29  C   UNL     1     -10.593   9.396  69.081  1.00  0.00    -0.234 A  
BRANCH  26  30
HETATM   30  O   UNL     1     -12.449  12.005  70.821  1.00  0.00    -0.348 OA 
HETATM   31  C   UNL     1     -12.362  13.426  70.824  1.00  0.00    -0.354 C  
ENDBRANCH  26  30
BRANCH  28  32
HETATM   32  O   UNL     1     -11.298   9.694  71.396  1.00  0.00    -0.361 OA 
HETATM   33  C   UNL     1     -10.320   8.748  71.812  1.00  0.00    -0.343 C  
ENDBRANCH  28  32
ENDBRANCH  18  24
ENDBRANCH  17  18
ENDBRANCH  16  17
ENDBRANCH  15  16
ENDBRANCH  13  15
ENDBRANCH  12  13
ENDBRANCH  11  12
ENDBRANCH   7  11
ENDBRANCH   2   3
TORSDOF 12
ENDMDL
MODEL       48
REMARK 921   NORMALIZED FREE ENERGY PREDICTED BY IDOCK:   -5.43 KCAL/MOL
REMARK 922        TOTAL FREE ENERGY PREDICTED BY IDOCK:  -11.46 KCAL/MOL
REMARK 923 INTER-LIGAND FREE ENERGY PREDICTED BY IDOCK:  -10.05 KCAL/MOL
REMARK 924 INTRA-LIGAND FREE ENERGY PREDICTED BY IDOCK:   -1.41 KCAL/MOL
REMARK 927      BINDING AFFINITY PREDICTED BY RF-SCORE:    0.00 PKD
ROOT
HETATM    1  C   UNL     1     -10.484  19.521  67.105  1.00  0.00    -0.474 C  
HETATM    2  O   UNL     1      -9.114  19.901  67.187  1.00  0.00    -0.316 OA 
ENDROOT
BRANCH   2   3
HETATM    3  C   UNL     1      -8.214  18.886  67.408  1.00  0.00    -0.270 A  
HETATM    4  C   UNL     1      -7.263  18.807  68.439  1.00  0.00    -0.280 A  
HETATM    5  C   UNL     1      -7.363  16.806  66.471  1.00  0.00    -0.306 A  
HETATM    6  C   UNL     1      -6.380  17.714  68.473  1.00  0.00    -0.185 A  
HETATM    7  C   UNL     1      -6.421  16.703  67.502  1.00  0.00    -0.183 A  
HETATM    8  C   UNL     1      -8.244  17.891  66.424  1.00  0.00    -0.287 A  
BRANCH   4   9
HETATM    9  O   UNL     1      -7.207  19.839  69.337  1.00  0.00    -0.338 OA 
HETATM   10  C   UNL     1      -6.059  19.931  70.169  1.00  0.00    -0.334 C  
ENDBRANCH   4   9
BRANCH   7  11
HETATM   11  C   UNL     1      -5.335  15.628  67.487  1.00  0.00    -0.033 C  
BRANCH  11  12
HETATM   12  C   UNL     1      -5.669  14.633  68.605  1.00  0.00    -0.092 C  
BRANCH  12  13
HETATM   13  N   UNL     1      -6.044  13.238  68.352  1.00  0.00    -0.078 NA 
HETATM   14  C   UNL     1      -6.231  12.470  69.582  1.00  0.00    -0.126 C  
BRANCH  13  15
HETATM   15  C   UNL     1      -7.247  13.134  67.483  1.00  0.00    -0.151 C  
BRANCH  15  16
HETATM   16  C   UNL     1      -8.666  13.455  68.051  1.00  0.00    -0.178 C  
BRANCH  16  17
HETATM   17  C   UNL     1      -9.778  13.598  66.987  1.00  0.00    -0.251 C  
BRANCH  17  18
HETATM   18  C   UNL     1     -11.162  12.934  67.229  1.00  0.00    -0.329 C  
HETATM   19  N   UNL     1     -12.801  13.991  65.410  1.00  0.00    -0.716 NA 
HETATM   20  C   UNL     1     -11.110  11.363  66.913  1.00  0.00    -0.356 C  
HETATM   21  C   UNL     1     -12.099  13.527  66.211  1.00  0.00    -0.428 C  
HETATM   22  C   UNL     1     -10.179  10.518  67.798  1.00  0.00    -0.223 C  
HETATM   23  C   UNL     1     -10.709  11.047  65.455  1.00  0.00    -0.218 C  
BRANCH  18  24
HETATM   24  C   UNL     1     -11.586  13.257  68.666  1.00  0.00    -0.362 A  
HETATM   25  C   UNL     1     -11.941  12.246  69.575  1.00  0.00    -0.333 A  
HETATM   26  C   UNL     1     -12.510  12.535  70.820  1.00  0.00    -0.268 A  
HETATM   27  C   UNL     1     -11.776  14.590  69.072  1.00  0.00    -0.346 A  
HETATM   28  C   UNL     1     -12.701  13.877  71.189  1.00  0.00    -0.367 A  
HETATM   29  C   UNL     1     -12.307  14.891  70.322  1.00  0.00    -0.393 A  
BRANCH  26  30
HETATM   30  O   UNL     1     -12.929  11.579  71.709  1.00  0.00    -0.446 OA 
HETATM   31  C   UNL     1     -12.578  10.229  71.427  1.00  0.00    -0.434 C  
ENDBRANCH  26  30
BRANCH  28  32
HETATM   32  O   UNL     1     -13.308  14.104  72.401  1.00  0.00    -0.413 OA 
HETATM   33  C   UNL     1     -13.439  15.461  72.806  1.00  0.00    -0.538 C  
ENDBRANCH  28  32
ENDBRANCH  18  24
ENDBRANCH  17  18
ENDBRANCH  16  17
ENDBRANCH  15  16
ENDBRANCH  13  15
ENDBRANCH  12  13
ENDBRANCH  11  12
ENDBRANCH   7  11
ENDBRANCH   2   3
TORSDOF 12
ENDMDL
MODEL       49
REMARK 921   NORMALIZED FREE ENERGY PREDICTED BY IDOCK:   -5.43 KCAL/MOL
REMARK 922        TOTAL FREE ENERGY PREDICTED BY IDOCK:  -11.46 KCAL/MOL
REMARK 923 INTER-LIGAND FREE ENERGY PREDICTED BY IDOCK:   -9.46 KCAL/MOL
REMARK 924 INTRA-LIGAND FREE ENERGY PREDICTED BY IDOCK:   -2.00 KCAL/MOL
REMARK 927      BINDING AFFINITY PREDICTED BY RF-SCORE:    0.00 PKD
ROOT
HETATM    1  C   UNL     1     -10.639  17.339  65.565  1.00  0.00    -0.127 C  
HETATM    2  O   UNL     1     -10.633  16.057  64.945  1.00  0.00    -0.587 OA 
ENDROOT
BRANCH   2   3
HETATM    3  C   UNL     1     -10.934  14.988  65.755  1.00  0.00    -0.350 A  
HETATM    4  C   UNL     1     -11.787  13.913  65.456  1.00  0.00    -0.362 A  
HETATM    5  C   UNL     1     -10.599  14.091  67.994  1.00  0.00    -0.250 A  
HETATM    6  C   UNL     1     -12.023  12.933  66.436  1.00  0.00    -0.462 A  
HETATM    7  C   UNL     1     -11.433  13.004  67.705  1.00  0.00    -0.359 A  
HETATM    8  C   UNL     1     -10.359  15.075  67.028  1.00  0.00    -0.269 A  
BRANCH   4   9
HETATM    9  O   UNL     1     -12.397  13.903  64.229  1.00  0.00    -0.586 OA 
HETATM   10  C   UNL     1     -12.214  12.757  63.410  1.00  0.00    -0.504 C  
ENDBRANCH   4   9
BRANCH   7  11
HETATM   11  C   UNL     1     -11.851  12.010  68.788  1.00  0.00    -0.358 C  
BRANCH  11  12
HETATM   12  C   UNL     1     -12.269  12.829  70.016  1.00  0.00    -0.209 C  
BRANCH  12  13
HETATM   13  N   UNL     1     -12.544  12.229  71.326  1.00  0.00    -0.306 NA 
HETATM   14  C   UNL     1     -13.543  12.973  72.090  1.00  0.00    -0.526 C  
BRANCH  13  15
HETATM   15  C   UNL     1     -12.932  10.797  71.211  1.00  0.00    -0.402 C  
BRANCH  15  16
HETATM   16  C   UNL     1     -12.030   9.680  71.823  1.00  0.00    -0.421 C  
BRANCH  16  17
HETATM   17  C   UNL     1     -11.779   8.465  70.900  1.00  0.00    -0.269 C  
BRANCH  17  18
HETATM   18  C   UNL     1     -10.321   8.040  70.569  1.00  0.00    -0.205 C  
HETATM   19  N   UNL     1      -8.994   8.143  72.880  1.00  0.00    -0.238 NA 
HETATM   20  C   UNL     1     -10.260   6.510  70.095  1.00  0.00    -0.226 C  
HETATM   21  C   UNL     1      -9.558   8.100  71.865  1.00  0.00    -0.201 C  
HETATM   22  C   UNL     1     -11.007   6.166  68.796  1.00  0.00    -0.421 C  
HETATM   23  C   UNL     1     -10.785   5.521  71.160  1.00  0.00    -0.280 C  
BRANCH  18  24
HETATM   24  C   UNL     1      -9.776   9.026  69.530  1.00  0.00    -0.171 A  
HETATM   25  C   UNL     1     -10.007   8.851  68.154  1.00  0.00    -0.208 A  
HETATM   26  C   UNL     1      -9.360   9.630  67.190  1.00  0.00    -0.139 A  
HETATM   27  C   UNL     1      -8.898  10.056  69.913  1.00  0.00    -0.177 A  
HETATM   28  C   UNL     1      -8.477  10.640  67.606  1.00  0.00    -0.118 A  
HETATM   29  C   UNL     1      -8.277  10.860  68.965  1.00  0.00    -0.126 A  
BRANCH  26  30
HETATM   30  O   UNL     1      -9.508   9.450  65.838  1.00  0.00    -0.211 OA 
HETATM   31  C   UNL     1      -8.729   8.428  65.227  1.00  0.00    -0.113 C  
ENDBRANCH  26  30
BRANCH  28  32
HETATM   32  O   UNL     1      -7.831  11.341  66.616  1.00  0.00    -0.150 OA 
HETATM   33  C   UNL     1      -6.409  11.364  66.674  1.00  0.00    -0.127 C  
ENDBRANCH  28  32
ENDBRANCH  18  24
ENDBRANCH  17  18
ENDBRANCH  16  17
ENDBRANCH  15  16
ENDBRANCH  13  15
ENDBRANCH  12  13
ENDBRANCH  11  12
ENDBRANCH   7  11
ENDBRANCH   2   3
TORSDOF 12
ENDMDL
MODEL       50
REMARK 921   NORMALIZED FREE ENERGY PREDICTED BY IDOCK:   -5.42 KCAL/MOL
REMARK 922        TOTAL FREE ENERGY PREDICTED BY IDOCK:  -11.45 KCAL/MOL
REMARK 923 INTER-LIGAND FREE ENERGY PREDICTED BY IDOCK:   -9.88 KCAL/MOL
REMARK 924 INTRA-LIGAND FREE ENERGY PREDICTED BY IDOCK:   -1.57 KCAL/MOL
REMARK 927      BINDING AFFINITY PREDICTED BY RF-SCORE:    0.00 PKD
ROOT
HETATM    1  C   UNL     1     -10.148   6.618  73.769  1.00  0.00    -0.301 C  
HETATM    2  O   UNL     1     -11.251   7.497  73.568  1.00  0.00    -0.271 OA 
ENDROOT
BRANCH   2   3
HETATM    3  C   UNL     1     -11.164   8.346  72.491  1.00  0.00    -0.336 A  
HETATM    4  C   UNL     1     -12.212   9.063  71.893  1.00  0.00    -0.381 A  
HETATM    5  C   UNL     1      -9.629   9.186  70.797  1.00  0.00    -0.338 A  
HETATM    6  C   UNL     1     -11.945   9.844  70.754  1.00  0.00    -0.410 A  
HETATM    7  C   UNL     1     -10.660   9.920  70.199  1.00  0.00    -0.350 A  
HETATM    8  C   UNL     1      -9.884   8.402  71.928  1.00  0.00    -0.328 A  
BRANCH   4   9
HETATM    9  O   UNL     1     -13.468   8.921  72.421  1.00  0.00    -0.425 OA 
HETATM   10  C   UNL     1     -14.375   8.059  71.748  1.00  0.00    -0.478 C  
ENDBRANCH   4   9
BRANCH   7  11
HETATM   11  C   UNL     1     -10.455  10.644  68.869  1.00  0.00    -0.232 C  
BRANCH  11  12
HETATM   12  C   UNL     1      -8.943  10.822  68.679  1.00  0.00    -0.162 C  
BRANCH  12  13
HETATM   13  N   UNL     1      -8.350  11.423  67.480  1.00  0.00    -0.133 NA 
HETATM   14  C   UNL     1      -7.030  10.878  67.169  1.00  0.00    -0.098 C  
BRANCH  13  15
HETATM   15  C   UNL     1      -9.251  11.318  66.301  1.00  0.00    -0.200 C  
BRANCH  15  16
HETATM   16  C   UNL     1      -9.976  12.583  65.742  1.00  0.00    -0.272 C  
BRANCH  16  17
HETATM   17  C   UNL     1      -9.560  13.919  66.400  1.00  0.00    -0.292 C  
BRANCH  17  18
HETATM   18  C   UNL     1     -10.599  15.067  66.529  1.00  0.00    -0.305 C  
HETATM   19  N   UNL     1     -12.445  14.588  64.665  1.00  0.00    -0.601 NA 
HETATM   20  C   UNL     1     -11.366  14.996  67.935  1.00  0.00    -0.344 C  
HETATM   21  C   UNL     1     -11.645  14.812  65.477  1.00  0.00    -0.301 C  
HETATM   22  C   UNL     1     -10.504  15.186  69.194  1.00  0.00    -0.252 C  
HETATM   23  C   UNL     1     -12.132  13.671  68.144  1.00  0.00    -0.310 C  
BRANCH  18  24
HETATM   24  C   UNL     1      -9.858  16.390  66.302  1.00  0.00    -0.336 A  
HETATM   25  C   UNL     1      -8.456  16.446  66.218  1.00  0.00    -0.372 A  
HETATM   26  C   UNL     1      -7.763  17.661  66.204  1.00  0.00    -0.258 A  
HETATM   27  C   UNL     1     -10.555  17.611  66.320  1.00  0.00    -0.215 A  
HETATM   28  C   UNL     1      -8.489  18.863  66.239  1.00  0.00    -0.256 A  
HETATM   29  C   UNL     1      -9.879  18.825  66.270  1.00  0.00    -0.382 A  
BRANCH  26  30
HETATM   30  O   UNL     1      -6.395  17.759  66.187  1.00  0.00    -0.200 OA 
HETATM   31  C   UNL     1      -5.680  17.076  67.211  1.00  0.00    -0.151 C  
ENDBRANCH  26  30
BRANCH  28  32
HETATM   32  O   UNL     1      -7.756  20.025  66.273  1.00  0.00    -0.294 OA 
HETATM   33  C   UNL     1      -7.567  20.623  67.550  1.00  0.00    -0.297 C  
ENDBRANCH  28  32
ENDBRANCH  18  24
ENDBRANCH  17  18
ENDBRANCH  16  17
ENDBRANCH  15  16
ENDBRANCH  13  15
ENDBRANCH  12  13
ENDBRANCH  11  12
ENDBRANCH   7  11
ENDBRANCH   2   3
TORSDOF 12
ENDMDL
MODEL       51
REMARK 921   NORMALIZED FREE ENERGY PREDICTED BY IDOCK:   -5.42 KCAL/MOL
REMARK 922        TOTAL FREE ENERGY PREDICTED BY IDOCK:  -11.45 KCAL/MOL
REMARK 923 INTER-LIGAND FREE ENERGY PREDICTED BY IDOCK:   -9.65 KCAL/MOL
REMARK 924 INTRA-LIGAND FREE ENERGY PREDICTED BY IDOCK:   -1.80 KCAL/MOL
REMARK 927      BINDING AFFINITY PREDICTED BY RF-SCORE:    0.00 PKD
ROOT
HETATM    1  C   UNL     1      -6.607  20.732  68.138  1.00  0.00    -0.261 C  
HETATM    2  O   UNL     1      -7.882  20.641  67.510  1.00  0.00    -0.317 OA 
ENDROOT
BRANCH   2   3
HETATM    3  C   UNL     1      -8.468  19.398  67.501  1.00  0.00    -0.292 A  
HETATM    4  C   UNL     1      -8.287  18.384  66.545  1.00  0.00    -0.272 A  
HETATM    5  C   UNL     1     -10.110  18.015  68.650  1.00  0.00    -0.401 A  
HETATM    6  C   UNL     1      -9.019  17.190  66.668  1.00  0.00    -0.278 A  
HETATM    7  C   UNL     1      -9.928  16.988  67.716  1.00  0.00    -0.280 A  
HETATM    8  C   UNL     1      -9.390  19.209  68.536  1.00  0.00    -0.426 A  
BRANCH   4   9
HETATM    9  O   UNL     1      -7.438  18.634  65.500  1.00  0.00    -0.505 OA 
HETATM   10  C   UNL     1      -6.115  18.124  65.586  1.00  0.00    -0.230 C  
ENDBRANCH   4   9
BRANCH   7  11
HETATM   11  C   UNL     1     -10.820  15.747  67.711  1.00  0.00    -0.316 C  
BRANCH  11  12
HETATM   12  C   UNL     1     -11.706  15.822  68.961  1.00  0.00    -0.396 C  
BRANCH  12  13
HETATM   13  N   UNL     1     -11.412  15.092  70.198  1.00  0.00    -0.262 NA 
HETATM   14  C   UNL     1     -11.631  15.900  71.397  1.00  0.00    -0.464 C  
BRANCH  13  15
HETATM   15  C   UNL     1     -12.168  13.814  70.283  1.00  0.00    -0.359 C  
BRANCH  15  16
HETATM   16  C   UNL     1     -12.024  12.732  69.166  1.00  0.00    -0.296 C  
BRANCH  16  17
HETATM   17  C   UNL     1     -10.625  12.084  69.060  1.00  0.00    -0.136 C  
BRANCH  17  18
HETATM   18  C   UNL     1     -10.270  11.223  67.816  1.00  0.00    -0.203 C  
HETATM   19  N   UNL     1     -11.828  12.118  65.846  1.00  0.00    -0.546 NA 
HETATM   20  C   UNL     1      -8.762  11.492  67.340  1.00  0.00    -0.147 C  
HETATM   21  C   UNL     1     -11.148  11.714  66.697  1.00  0.00    -0.307 C  
HETATM   22  C   UNL     1      -7.653  11.110  68.334  1.00  0.00    -0.110 C  
HETATM   23  C   UNL     1      -8.498  12.965  66.958  1.00  0.00    -0.146 C  
BRANCH  18  24
HETATM   24  C   UNL     1     -10.548   9.758  68.172  1.00  0.00    -0.276 A  
HETATM   25  C   UNL     1     -10.809   9.356  69.493  1.00  0.00    -0.231 A  
HETATM   26  C   UNL     1     -10.874   8.007  69.857  1.00  0.00    -0.217 A  
HETATM   27  C   UNL     1     -10.400   8.748  67.204  1.00  0.00    -0.364 A  
HETATM   28  C   UNL     1     -10.707   7.022  68.869  1.00  0.00    -0.200 A  
HETATM   29  C   UNL     1     -10.498   7.404  67.548  1.00  0.00    -0.338 A  
BRANCH  26  30
HETATM   30  O   UNL     1     -11.064   7.572  71.144  1.00  0.00    -0.244 OA 
HETATM   31  C   UNL     1     -11.533   8.525  72.091  1.00  0.00    -0.376 C  
ENDBRANCH  26  30
BRANCH  28  32
HETATM   32  O   UNL     1     -10.730   5.715  69.291  1.00  0.00    -0.291 OA 
HETATM   33  C   UNL     1      -9.703   4.865  68.793  1.00  0.00    -0.165 C  
ENDBRANCH  28  32
ENDBRANCH  18  24
ENDBRANCH  17  18
ENDBRANCH  16  17
ENDBRANCH  15  16
ENDBRANCH  13  15
ENDBRANCH  12  13
ENDBRANCH  11  12
ENDBRANCH   7  11
ENDBRANCH   2   3
TORSDOF 12
ENDMDL
MODEL       52
REMARK 921   NORMALIZED FREE ENERGY PREDICTED BY IDOCK:   -5.42 KCAL/MOL
REMARK 922        TOTAL FREE ENERGY PREDICTED BY IDOCK:  -11.45 KCAL/MOL
REMARK 923 INTER-LIGAND FREE ENERGY PREDICTED BY IDOCK:   -9.87 KCAL/MOL
REMARK 924 INTRA-LIGAND FREE ENERGY PREDICTED BY IDOCK:   -1.58 KCAL/MOL
REMARK 927      BINDING AFFINITY PREDICTED BY RF-SCORE:    0.00 PKD
ROOT
HETATM    1  C   UNL     1      -8.240   3.666  71.123  1.00  0.00    -0.067 C  
HETATM    2  O   UNL     1      -9.328   3.757  70.208  1.00  0.00    -0.134 OA 
ENDROOT
BRANCH   2   3
HETATM    3  C   UNL     1     -10.101   4.890  70.293  1.00  0.00    -0.252 A  
HETATM    4  C   UNL     1     -10.602   5.654  69.226  1.00  0.00    -0.288 A  
HETATM    5  C   UNL     1     -11.045   6.486  71.872  1.00  0.00    -0.300 A  
HETATM    6  C   UNL     1     -11.332   6.823  69.505  1.00  0.00    -0.292 A  
HETATM    7  C   UNL     1     -11.566   7.249  70.820  1.00  0.00    -0.334 A  
HETATM    8  C   UNL     1     -10.314   5.322  71.607  1.00  0.00    -0.281 A  
BRANCH   4   9
HETATM    9  O   UNL     1     -10.306   5.246  67.953  1.00  0.00    -0.175 OA 
HETATM   10  C   UNL     1     -10.663   6.109  66.882  1.00  0.00    -0.340 C  
ENDBRANCH   4   9
BRANCH   7  11
HETATM   11  C   UNL     1     -12.216   8.610  71.067  1.00  0.00    -0.207 C  
BRANCH  11  12
HETATM   12  C   UNL     1     -11.081   9.625  71.250  1.00  0.00    -0.355 C  
BRANCH  12  13
HETATM   13  N   UNL     1     -10.533  10.423  70.148  1.00  0.00    -0.208 NA 
HETATM   14  C   UNL     1      -9.333   9.829  69.562  1.00  0.00    -0.213 C  
BRANCH  13  15
HETATM   15  C   UNL     1     -11.550  10.694  69.097  1.00  0.00    -0.271 C  
BRANCH  15  16
HETATM   16  C   UNL     1     -11.160  10.654  67.586  1.00  0.00    -0.385 C  
BRANCH  16  17
HETATM   17  C   UNL     1     -11.532  11.920  66.782  1.00  0.00    -0.384 C  
BRANCH  17  18
HETATM   18  C   UNL     1     -10.434  12.666  65.973  1.00  0.00    -0.288 C  
HETATM   19  N   UNL     1      -8.175  11.316  66.401  1.00  0.00    -0.166 NA 
HETATM   20  C   UNL     1     -10.713  12.568  64.397  1.00  0.00    -0.379 C  
HETATM   21  C   UNL     1      -9.151  11.917  66.211  1.00  0.00    -0.188 C  
HETATM   22  C   UNL     1     -12.004  13.230  63.889  1.00  0.00    -0.541 C  
HETATM   23  C   UNL     1     -10.746  11.116  63.873  1.00  0.00    -0.407 C  
BRANCH  18  24
HETATM   24  C   UNL     1     -10.372  14.106  66.496  1.00  0.00    -0.284 A  
HETATM   25  C   UNL     1     -10.994  14.482  67.699  1.00  0.00    -0.293 A  
HETATM   26  C   UNL     1     -11.107  15.821  68.087  1.00  0.00    -0.341 A  
HETATM   27  C   UNL     1      -9.814  15.128  65.708  1.00  0.00    -0.384 A  
HETATM   28  C   UNL     1     -10.552  16.819  67.269  1.00  0.00    -0.275 A  
HETATM   29  C   UNL     1      -9.888  16.459  66.102  1.00  0.00    -0.362 A  
BRANCH  26  30
HETATM   30  O   UNL     1     -11.760  16.235  69.220  1.00  0.00    -0.263 OA 
HETATM   31  C   UNL     1     -12.085  15.241  70.185  1.00  0.00    -0.358 C  
ENDBRANCH  26  30
BRANCH  28  32
HETATM   32  O   UNL     1     -10.735  18.120  67.673  1.00  0.00    -0.416 OA 
HETATM   33  C   UNL     1     -10.436  19.132  66.720  1.00  0.00    -0.436 C  
ENDBRANCH  28  32
ENDBRANCH  18  24
ENDBRANCH  17  18
ENDBRANCH  16  17
ENDBRANCH  15  16
ENDBRANCH  13  15
ENDBRANCH  12  13
ENDBRANCH  11  12
ENDBRANCH   7  11
ENDBRANCH   2   3
TORSDOF 12
ENDMDL
MODEL       53
REMARK 921   NORMALIZED FREE ENERGY PREDICTED BY IDOCK:   -5.39 KCAL/MOL
REMARK 922        TOTAL FREE ENERGY PREDICTED BY IDOCK:  -11.39 KCAL/MOL
REMARK 923 INTER-LIGAND FREE ENERGY PREDICTED BY IDOCK:   -9.08 KCAL/MOL
REMARK 924 INTRA-LIGAND FREE ENERGY PREDICTED BY IDOCK:   -2.31 KCAL/MOL
REMARK 927      BINDING AFFINITY PREDICTED BY RF-SCORE:    0.00 PKD
ROOT
HETATM    1  C   UNL     1      -9.920  19.838  67.961  1.00  0.00    -0.433 C  
HETATM    2  O   UNL     1      -9.503  18.642  68.613  1.00  0.00    -0.342 OA 
ENDROOT
BRANCH   2   3
HETATM    3  C   UNL     1     -10.079  17.476  68.171  1.00  0.00    -0.341 A  
HETATM    4  C   UNL     1      -9.916  16.875  66.912  1.00  0.00    -0.279 A  
HETATM    5  C   UNL     1     -11.680  15.746  68.784  1.00  0.00    -0.387 A  
HETATM    6  C   UNL     1     -10.636  15.704  66.615  1.00  0.00    -0.307 A  
HETATM    7  C   UNL     1     -11.515  15.125  67.540  1.00  0.00    -0.306 A  
HETATM    8  C   UNL     1     -10.972  16.913  69.091  1.00  0.00    -0.151 A  
BRANCH   4   9
HETATM    9  O   UNL     1      -9.097  17.497  66.008  1.00  0.00    -0.489 OA 
HETATM   10  C   UNL     1      -7.728  17.120  65.987  1.00  0.00    -0.158 C  
ENDBRANCH   4   9
BRANCH   7  11
HETATM   11  C   UNL     1     -12.398  13.954  67.110  1.00  0.00    -0.246 C  
BRANCH  11  12
HETATM   12  C   UNL     1     -12.472  13.982  65.578  1.00  0.00    -0.509 C  
BRANCH  12  13
HETATM   13  N   UNL     1     -12.404  12.775  64.748  1.00  0.00    -0.459 NA 
HETATM   14  C   UNL     1     -12.094  13.066  63.350  1.00  0.00    -0.515 C  
BRANCH  13  15
HETATM   15  C   UNL     1     -11.451  11.774  65.299  1.00  0.00    -0.186 C  
BRANCH  15  16
HETATM   16  C   UNL     1      -9.912  12.030  65.241  1.00  0.00    -0.273 C  
BRANCH  16  17
HETATM   17  C   UNL     1      -9.197  12.025  66.612  1.00  0.00    -0.211 C  
BRANCH  17  18
HETATM   18  C   UNL     1      -8.682  10.684  67.204  1.00  0.00    -0.130 C  
HETATM   19  N   UNL     1      -8.755   8.930  65.197  1.00  0.00    -0.186 NA 
HETATM   20  C   UNL     1      -7.140  10.797  67.632  1.00  0.00    -0.091 C  
HETATM   21  C   UNL     1      -8.724   9.682  66.082  1.00  0.00    -0.136 C  
HETATM   22  C   UNL     1      -6.814  11.800  68.751  1.00  0.00    -0.095 C  
HETATM   23  C   UNL     1      -6.207  11.157  66.456  1.00  0.00    -0.139 C  
BRANCH  18  24
HETATM   24  C   UNL     1      -9.612  10.300  68.360  1.00  0.00    -0.155 A  
HETATM   25  C   UNL     1      -9.753   8.966  68.782  1.00  0.00    -0.170 A  
HETATM   26  C   UNL     1     -10.735   8.581  69.701  1.00  0.00    -0.197 A  
HETATM   27  C   UNL     1     -10.467  11.256  68.936  1.00  0.00    -0.232 A  
HETATM   28  C   UNL     1     -11.584   9.559  70.246  1.00  0.00    -0.169 A  
HETATM   29  C   UNL     1     -11.423  10.890  69.878  1.00  0.00    -0.402 A  
BRANCH  26  30
HETATM   30  O   UNL     1     -10.948   7.283  70.091  1.00  0.00    -0.251 OA 
HETATM   31  C   UNL     1     -11.126   6.315  69.063  1.00  0.00    -0.378 C  
ENDBRANCH  26  30
BRANCH  28  32
HETATM   32  O   UNL     1     -12.561   9.117  71.105  1.00  0.00    -0.301 OA 
HETATM   33  C   UNL     1     -13.260  10.114  71.842  1.00  0.00    -0.452 C  
ENDBRANCH  28  32
ENDBRANCH  18  24
ENDBRANCH  17  18
ENDBRANCH  16  17
ENDBRANCH  15  16
ENDBRANCH  13  15
ENDBRANCH  12  13
ENDBRANCH  11  12
ENDBRANCH   7  11
ENDBRANCH   2   3
TORSDOF 12
ENDMDL
MODEL       54
REMARK 921   NORMALIZED FREE ENERGY PREDICTED BY IDOCK:   -5.38 KCAL/MOL
REMARK 922        TOTAL FREE ENERGY PREDICTED BY IDOCK:  -11.38 KCAL/MOL
REMARK 923 INTER-LIGAND FREE ENERGY PREDICTED BY IDOCK:   -8.97 KCAL/MOL
REMARK 924 INTRA-LIGAND FREE ENERGY PREDICTED BY IDOCK:   -2.41 KCAL/MOL
REMARK 927      BINDING AFFINITY PREDICTED BY RF-SCORE:    0.00 PKD
ROOT
HETATM    1  C   UNL     1     -11.792  14.079  68.994  1.00  0.00    -0.354 C  
HETATM    2  O   UNL     1     -12.213  14.487  67.697  1.00  0.00    -0.298 OA 
ENDROOT
BRANCH   2   3
HETATM    3  C   UNL     1     -11.630  13.837  66.635  1.00  0.00    -0.369 A  
HETATM    4  C   UNL     1     -11.034  14.425  65.507  1.00  0.00    -0.329 A  
HETATM    5  C   UNL     1     -11.237  11.630  65.686  1.00  0.00    -0.275 A  
HETATM    6  C   UNL     1     -10.537  13.596  64.486  1.00  0.00    -0.428 A  
HETATM    7  C   UNL     1     -10.625  12.199  64.563  1.00  0.00    -0.350 A  
HETATM    8  C   UNL     1     -11.739  12.444  66.707  1.00  0.00    -0.430 A  
BRANCH   4   9
HETATM    9  O   UNL     1     -11.017  15.792  65.432  1.00  0.00    -0.345 OA 
HETATM   10  C   UNL     1      -9.957  16.478  66.084  1.00  0.00    -0.343 C  
ENDBRANCH   4   9
BRANCH   7  11
HETATM   11  C   UNL     1     -10.224  11.351  63.357  1.00  0.00    -0.457 C  
BRANCH  11  12
HETATM   12  C   UNL     1      -8.965  10.569  63.753  1.00  0.00    -0.215 C  
BRANCH  12  13
HETATM   13  N   UNL     1      -8.904   9.104  63.775  1.00  0.00    -0.136 NA 
HETATM   14  C   UNL     1      -8.122   8.554  62.670  1.00  0.00    -0.176 C  
BRANCH  13  15
HETATM   15  C   UNL     1      -8.405   8.588  65.078  1.00  0.00    -0.165 C  
BRANCH  15  16
HETATM   16  C   UNL     1      -9.338   8.560  66.330  1.00  0.00    -0.287 C  
BRANCH  16  17
HETATM   17  C   UNL     1      -8.988   9.589  67.428  1.00  0.00    -0.141 C  
BRANCH  17  18
HETATM   18  C   UNL     1      -8.477   9.093  68.810  1.00  0.00    -0.130 C  
HETATM   19  N   UNL     1      -7.896   6.511  68.484  1.00  0.00    -0.105 NA 
HETATM   20  C   UNL     1      -7.096   9.808  69.204  1.00  0.00    -0.067 C  
HETATM   21  C   UNL     1      -8.150   7.634  68.642  1.00  0.00    -0.127 C  
HETATM   22  C   UNL     1      -7.147  11.332  69.398  1.00  0.00    -0.090 C  
HETATM   23  C   UNL     1      -5.964   9.548  68.187  1.00  0.00    -0.047 C  
BRANCH  18  24
HETATM   24  C   UNL     1      -9.599   9.323  69.829  1.00  0.00    -0.203 A  
HETATM   25  C   UNL     1      -9.674   8.586  71.023  1.00  0.00    -0.243 A  
HETATM   26  C   UNL     1     -10.789   8.650  71.864  1.00  0.00    -0.348 A  
HETATM   27  C   UNL     1     -10.673  10.179  69.527  1.00  0.00    -0.277 A  
HETATM   28  C   UNL     1     -11.853   9.503  71.525  1.00  0.00    -0.405 A  
HETATM   29  C   UNL     1     -11.771  10.278  70.373  1.00  0.00    -0.404 A  
BRANCH  26  30
HETATM   30  O   UNL     1     -10.931   7.901  73.004  1.00  0.00    -0.393 OA 
HETATM   31  C   UNL     1     -10.848   6.487  72.868  1.00  0.00    -0.258 C  
ENDBRANCH  26  30
BRANCH  28  32
HETATM   32  O   UNL     1     -12.944   9.490  72.360  1.00  0.00    -0.386 OA 
HETATM   33  C   UNL     1     -14.135   8.906  71.846  1.00  0.00    -0.388 C  
ENDBRANCH  28  32
ENDBRANCH  18  24
ENDBRANCH  17  18
ENDBRANCH  16  17
ENDBRANCH  15  16
ENDBRANCH  13  15
ENDBRANCH  12  13
ENDBRANCH  11  12
ENDBRANCH   7  11
ENDBRANCH   2   3
TORSDOF 12
ENDMDL
MODEL       55
REMARK 921   NORMALIZED FREE ENERGY PREDICTED BY IDOCK:   -5.38 KCAL/MOL
REMARK 922        TOTAL FREE ENERGY PREDICTED BY IDOCK:  -11.37 KCAL/MOL
REMARK 923 INTER-LIGAND FREE ENERGY PREDICTED BY IDOCK:   -8.76 KCAL/MOL
REMARK 924 INTRA-LIGAND FREE ENERGY PREDICTED BY IDOCK:   -2.61 KCAL/MOL
REMARK 927      BINDING AFFINITY PREDICTED BY RF-SCORE:    0.00 PKD
ROOT
HETATM    1  C   UNL     1     -12.231  14.123  65.321  1.00  0.00    -0.434 C  
HETATM    2  O   UNL     1     -12.020  14.624  66.637  1.00  0.00    -0.368 OA 
ENDROOT
BRANCH   2   3
HETATM    3  C   UNL     1     -11.969  13.690  67.643  1.00  0.00    -0.351 A  
HETATM    4  C   UNL     1     -12.033  13.930  69.026  1.00  0.00    -0.364 A  
HETATM    5  C   UNL     1     -11.633  11.317  68.077  1.00  0.00    -0.343 A  
HETATM    6  C   UNL     1     -11.906  12.849  69.915  1.00  0.00    -0.373 A  
HETATM    7  C   UNL     1     -11.712  11.538  69.457  1.00  0.00    -0.413 A  
HETATM    8  C   UNL     1     -11.754  12.386  67.182  1.00  0.00    -0.415 A  
BRANCH   4   9
HETATM    9  O   UNL     1     -12.163  15.228  69.444  1.00  0.00    -0.288 OA 
HETATM   10  C   UNL     1     -11.493  15.608  70.638  1.00  0.00    -0.375 C  
ENDBRANCH   4   9
BRANCH   7  11
HETATM   11  C   UNL     1     -11.412  10.426  70.462  1.00  0.00    -0.431 C  
BRANCH  11  12
HETATM   12  C   UNL     1     -12.679  10.221  71.302  1.00  0.00    -0.421 C  
BRANCH  12  13
HETATM   13  N   UNL     1     -12.994   8.963  71.985  1.00  0.00    -0.369 NA 
HETATM   14  C   UNL     1     -14.386   8.892  72.425  1.00  0.00    -0.300 C  
BRANCH  13  15
HETATM   15  C   UNL     1     -12.645   7.777  71.158  1.00  0.00    -0.198 C  
BRANCH  15  16
HETATM   16  C   UNL     1     -11.425   6.879  71.534  1.00  0.00    -0.315 C  
BRANCH  16  17
HETATM   17  C   UNL     1     -10.501   6.506  70.352  1.00  0.00    -0.256 C  
BRANCH  17  18
HETATM   18  C   UNL     1      -9.092   7.153  70.246  1.00  0.00    -0.156 C  
HETATM   19  N   UNL     1      -8.857   8.735  72.380  1.00  0.00    -0.400 NA 
HETATM   20  C   UNL     1      -7.937   6.049  70.388  1.00  0.00    -0.107 C  
HETATM   21  C   UNL     1      -8.948   8.054  71.442  1.00  0.00    -0.141 C  
HETATM   22  C   UNL     1      -7.888   4.968  69.297  1.00  0.00    -0.076 C  
HETATM   23  C   UNL     1      -7.983   5.291  71.733  1.00  0.00    -0.112 C  
BRANCH  18  24
HETATM   24  C   UNL     1      -9.037   7.929  68.925  1.00  0.00    -0.141 A  
HETATM   25  C   UNL     1      -8.197   9.043  68.757  1.00  0.00    -0.117 A  
HETATM   26  C   UNL     1      -8.278   9.869  67.632  1.00  0.00    -0.114 A  
HETATM   27  C   UNL     1      -9.942   7.638  67.888  1.00  0.00    -0.208 A  
HETATM   28  C   UNL     1      -9.203   9.559  66.621  1.00  0.00    -0.152 A  
HETATM   29  C   UNL     1     -10.006   8.431  66.748  1.00  0.00    -0.354 A  
BRANCH  26  30
HETATM   30  O   UNL     1      -7.521  11.000  67.458  1.00  0.00    -0.096 OA 
HETATM   31  C   UNL     1      -8.016  12.208  68.027  1.00  0.00    -0.152 C  
ENDBRANCH  26  30
BRANCH  28  32
HETATM   32  O   UNL     1      -9.275  10.432  65.562  1.00  0.00    -0.164 OA 
HETATM   33  C   UNL     1      -9.151   9.869  64.261  1.00  0.00    -0.253 C  
ENDBRANCH  28  32
ENDBRANCH  18  24
ENDBRANCH  17  18
ENDBRANCH  16  17
ENDBRANCH  15  16
ENDBRANCH  13  15
ENDBRANCH  12  13
ENDBRANCH  11  12
ENDBRANCH   7  11
ENDBRANCH   2   3
TORSDOF 12
ENDMDL
MODEL       56
REMARK 921   NORMALIZED FREE ENERGY PREDICTED BY IDOCK:   -5.36 KCAL/MOL
REMARK 922        TOTAL FREE ENERGY PREDICTED BY IDOCK:  -11.35 KCAL/MOL
REMARK 923 INTER-LIGAND FREE ENERGY PREDICTED BY IDOCK:   -9.81 KCAL/MOL
REMARK 924 INTRA-LIGAND FREE ENERGY PREDICTED BY IDOCK:   -1.54 KCAL/MOL
REMARK 927      BINDING AFFINITY PREDICTED BY RF-SCORE:    0.00 PKD
ROOT
HETATM    1  C   UNL     1     -10.526   5.160  65.901  1.00  0.00    -0.125 C  
HETATM    2  O   UNL     1     -10.743   4.913  67.287  1.00  0.00    -0.042 OA 
ENDROOT
BRANCH   2   3
HETATM    3  C   UNL     1     -10.489   5.961  68.139  1.00  0.00    -0.233 A  
HETATM    4  C   UNL     1     -10.267   5.890  69.524  1.00  0.00    -0.225 A  
HETATM    5  C   UNL     1     -10.354   8.390  68.246  1.00  0.00    -0.244 A  
HETATM    6  C   UNL     1     -10.080   7.080  70.249  1.00  0.00    -0.198 A  
HETATM    7  C   UNL     1     -10.114   8.335  69.625  1.00  0.00    -0.199 A  
HETATM    8  C   UNL     1     -10.546   7.213  67.515  1.00  0.00    -0.348 A  
BRANCH   4   9
HETATM    9  O   UNL     1     -10.299   4.655  70.115  1.00  0.00    -0.208 OA 
HETATM   10  C   UNL     1      -9.981   4.574  71.497  1.00  0.00    -0.189 C  
ENDBRANCH   4   9
BRANCH   7  11
HETATM   11  C   UNL     1     -10.073   9.603  70.478  1.00  0.00    -0.338 C  
BRANCH  11  12
HETATM   12  C   UNL     1     -11.484   9.812  71.043  1.00  0.00    -0.383 C  
BRANCH  12  13
HETATM   13  N   UNL     1     -12.377  10.887  70.595  1.00  0.00    -0.345 NA 
HETATM   14  C   UNL     1     -12.975  11.624  71.705  1.00  0.00    -0.377 C  
BRANCH  13  15
HETATM   15  C   UNL     1     -11.698  11.817  69.653  1.00  0.00    -0.344 C  
BRANCH  15  16
HETATM   16  C   UNL     1     -11.782  11.586  68.111  1.00  0.00    -0.357 C  
BRANCH  16  17
HETATM   17  C   UNL     1     -11.828  12.875  67.259  1.00  0.00    -0.416 C  
BRANCH  17  18
HETATM   18  C   UNL     1     -10.576  13.299  66.442  1.00  0.00    -0.288 C  
HETATM   19  N   UNL     1      -8.555  11.854  67.409  1.00  0.00    -0.157 NA 
HETATM   20  C   UNL     1     -10.723  12.875  64.902  1.00  0.00    -0.333 C  
HETATM   21  C   UNL     1      -9.425  12.495  66.982  1.00  0.00    -0.217 C  
HETATM   22  C   UNL     1     -11.869  13.534  64.117  1.00  0.00    -0.483 C  
HETATM   23  C   UNL     1     -10.894  11.353  64.704  1.00  0.00    -0.359 C  
BRANCH  18  24
HETATM   24  C   UNL     1     -10.378  14.806  66.646  1.00  0.00    -0.273 A  
HETATM   25  C   UNL     1      -9.362  15.513  65.980  1.00  0.00    -0.379 A  
HETATM   26  C   UNL     1      -9.051  16.839  66.300  1.00  0.00    -0.285 A  
HETATM   27  C   UNL     1     -11.115  15.497  67.624  1.00  0.00    -0.311 A  
HETATM   28  C   UNL     1      -9.797  17.496  67.293  1.00  0.00    -0.294 A  
HETATM   29  C   UNL     1     -10.839  16.825  67.925  1.00  0.00    -0.311 A  
BRANCH  26  30
HETATM   30  O   UNL     1      -8.028  17.545  65.721  1.00  0.00    -0.548 OA 
HETATM   31  C   UNL     1      -6.724  17.364  66.261  1.00  0.00    -0.260 C  
ENDBRANCH  26  30
BRANCH  28  32
HETATM   32  O   UNL     1      -9.416  18.780  67.603  1.00  0.00    -0.294 OA 
HETATM   33  C   UNL     1      -9.855  19.291  68.856  1.00  0.00    -0.446 C  
ENDBRANCH  28  32
ENDBRANCH  18  24
ENDBRANCH  17  18
ENDBRANCH  16  17
ENDBRANCH  15  16
ENDBRANCH  13  15
ENDBRANCH  12  13
ENDBRANCH  11  12
ENDBRANCH   7  11
ENDBRANCH   2   3
TORSDOF 12
ENDMDL
MODEL       57
REMARK 921   NORMALIZED FREE ENERGY PREDICTED BY IDOCK:   -5.36 KCAL/MOL
REMARK 922        TOTAL FREE ENERGY PREDICTED BY IDOCK:  -11.34 KCAL/MOL
REMARK 923 INTER-LIGAND FREE ENERGY PREDICTED BY IDOCK:   -9.19 KCAL/MOL
REMARK 924 INTRA-LIGAND FREE ENERGY PREDICTED BY IDOCK:   -2.14 KCAL/MOL
REMARK 927      BINDING AFFINITY PREDICTED BY RF-SCORE:    0.00 PKD
ROOT
HETATM    1  C   UNL     1     -12.910   9.599  71.822  1.00  0.00    -0.421 C  
HETATM    2  O   UNL     1     -13.285  10.946  72.090  1.00  0.00    -0.474 OA 
ENDROOT
BRANCH   2   3
HETATM    3  C   UNL     1     -12.762  11.901  71.252  1.00  0.00    -0.298 A  
HETATM    4  C   UNL     1     -12.928  13.293  71.348  1.00  0.00    -0.311 A  
HETATM    5  C   UNL     1     -11.504  12.199  69.188  1.00  0.00    -0.352 A  
HETATM    6  C   UNL     1     -12.363  14.119  70.360  1.00  0.00    -0.428 A  
HETATM    7  C   UNL     1     -11.645  13.588  69.279  1.00  0.00    -0.369 A  
HETATM    8  C   UNL     1     -12.064  11.366  70.163  1.00  0.00    -0.439 A  
BRANCH   4   9
HETATM    9  O   UNL     1     -13.686  13.777  72.381  1.00  0.00    -0.512 OA 
HETATM   10  C   UNL     1     -14.215  15.090  72.254  1.00  0.00    -0.497 C  
ENDBRANCH   4   9
BRANCH   7  11
HETATM   11  C   UNL     1     -11.197  14.511  68.146  1.00  0.00    -0.301 C  
BRANCH  11  12
HETATM   12  C   UNL     1     -12.102  14.220  66.942  1.00  0.00    -0.409 C  
BRANCH  12  13
HETATM   13  N   UNL     1     -11.587  13.983  65.589  1.00  0.00    -0.323 NA 
HETATM   14  C   UNL     1     -11.468  15.211  64.807  1.00  0.00    -0.383 C  
BRANCH  13  15
HETATM   15  C   UNL     1     -10.295  13.246  65.607  1.00  0.00    -0.287 C  
BRANCH  15  16
HETATM   16  C   UNL     1     -10.264  11.705  65.852  1.00  0.00    -0.277 C  
BRANCH  16  17
HETATM   17  C   UNL     1      -8.931  11.158  66.410  1.00  0.00    -0.190 C  
BRANCH  17  18
HETATM   18  C   UNL     1      -8.466   9.726  66.022  1.00  0.00    -0.131 C  
HETATM   19  N   UNL     1      -9.028   9.458  63.430  1.00  0.00    -0.189 NA 
HETATM   20  C   UNL     1      -6.873   9.585  66.143  1.00  0.00    -0.090 C  
HETATM   21  C   UNL     1      -8.783   9.559  64.561  1.00  0.00    -0.205 C  
HETATM   22  C   UNL     1      -6.276   9.757  67.549  1.00  0.00    -0.059 C  
HETATM   23  C   UNL     1      -6.104  10.569  65.234  1.00  0.00    -0.110 C  
BRANCH  18  24
HETATM   24  C   UNL     1      -9.237   8.735  66.901  1.00  0.00    -0.195 A  
HETATM   25  C   UNL     1      -9.317   8.892  68.295  1.00  0.00    -0.149 A  
HETATM   26  C   UNL     1      -9.851   7.899  69.123  1.00  0.00    -0.174 A  
HETATM   27  C   UNL     1      -9.762   7.552  66.351  1.00  0.00    -0.180 A  
HETATM   28  C   UNL     1     -10.353   6.722  68.543  1.00  0.00    -0.190 A  
HETATM   29  C   UNL     1     -10.327   6.573  67.160  1.00  0.00    -0.311 A  
BRANCH  26  30
HETATM   30  O   UNL     1      -9.891   7.985  70.491  1.00  0.00    -0.181 OA 
HETATM   31  C   UNL     1      -9.342   9.155  71.086  1.00  0.00    -0.243 C  
ENDBRANCH  26  30
BRANCH  28  32
HETATM   32  O   UNL     1     -10.820   5.759  69.405  1.00  0.00    -0.318 OA 
HETATM   33  C   UNL     1     -10.011   4.600  69.565  1.00  0.00    -0.196 C  
ENDBRANCH  28  32
ENDBRANCH  18  24
ENDBRANCH  17  18
ENDBRANCH  16  17
ENDBRANCH  15  16
ENDBRANCH  13  15
ENDBRANCH  12  13
ENDBRANCH  11  12
ENDBRANCH   7  11
ENDBRANCH   2   3
TORSDOF 12
ENDMDL
MODEL       58
REMARK 921   NORMALIZED FREE ENERGY PREDICTED BY IDOCK:   -5.33 KCAL/MOL
REMARK 922        TOTAL FREE ENERGY PREDICTED BY IDOCK:  -11.29 KCAL/MOL
REMARK 923 INTER-LIGAND FREE ENERGY PREDICTED BY IDOCK:   -9.30 KCAL/MOL
REMARK 924 INTRA-LIGAND FREE ENERGY PREDICTED BY IDOCK:   -2.00 KCAL/MOL
REMARK 927      BINDING AFFINITY PREDICTED BY RF-SCORE:    0.00 PKD
ROOT
HETATM    1  C   UNL     1     -13.071  16.041  73.257  1.00  0.00    -0.557 C  
HETATM    2  O   UNL     1     -13.373  14.678  72.975  1.00  0.00    -0.492 OA 
ENDROOT
BRANCH   2   3
HETATM    3  C   UNL     1     -12.946  14.199  71.760  1.00  0.00    -0.348 A  
HETATM    4  C   UNL     1     -12.875  12.855  71.358  1.00  0.00    -0.283 A  
HETATM    5  C   UNL     1     -11.961  14.880  69.640  1.00  0.00    -0.360 A  
HETATM    6  C   UNL     1     -12.355  12.547  70.089  1.00  0.00    -0.210 A  
HETATM    7  C   UNL     1     -11.900  13.547  69.217  1.00  0.00    -0.392 A  
HETATM    8  C   UNL     1     -12.473  15.199  70.902  1.00  0.00    -0.425 A  
BRANCH   4   9
HETATM    9  O   UNL     1     -13.271  11.898  72.254  1.00  0.00    -0.451 OA 
HETATM   10  C   UNL     1     -13.051  10.537  71.908  1.00  0.00    -0.462 C  
ENDBRANCH   4   9
BRANCH   7  11
HETATM   11  C   UNL     1     -11.190  13.152  67.923  1.00  0.00    -0.300 C  
BRANCH  11  12
HETATM   12  C   UNL     1     -11.628  11.721  67.586  1.00  0.00    -0.294 C  
BRANCH  12  13
HETATM   13  N   UNL     1     -10.681  10.624  67.359  1.00  0.00    -0.256 NA 
HETATM   14  C   UNL     1     -10.198  10.570  65.980  1.00  0.00    -0.245 C  
BRANCH  13  15
HETATM   15  C   UNL     1      -9.540  10.668  68.312  1.00  0.00    -0.162 C  
BRANCH  15  16
HETATM   16  C   UNL     1      -9.674  10.047  69.738  1.00  0.00    -0.259 C  
BRANCH  16  17
HETATM   17  C   UNL     1     -10.717   8.914  69.862  1.00  0.00    -0.236 C  
BRANCH  17  18
HETATM   18  C   UNL     1     -10.257   7.488  70.275  1.00  0.00    -0.204 C  
HETATM   19  N   UNL     1      -7.706   7.735  71.012  1.00  0.00    -0.082 NA 
HETATM   20  C   UNL     1     -11.044   6.983  71.578  1.00  0.00    -0.271 C  
HETATM   21  C   UNL     1      -8.815   7.611  70.688  1.00  0.00    -0.145 C  
HETATM   22  C   UNL     1     -12.565   6.810  71.433  1.00  0.00    -0.348 C  
HETATM   23  C   UNL     1     -10.836   7.895  72.806  1.00  0.00    -0.451 C  
BRANCH  18  24
HETATM   24  C   UNL     1     -10.436   6.572  69.058  1.00  0.00    -0.252 A  
HETATM   25  C   UNL     1      -9.931   5.261  69.041  1.00  0.00    -0.260 A  
HETATM   26  C   UNL     1      -9.920   4.487  67.876  1.00  0.00    -0.053 A  
HETATM   27  C   UNL     1     -10.982   7.073  67.862  1.00  0.00    -0.202 A  
HETATM   28  C   UNL     1     -10.459   5.022  66.694  1.00  0.00    -0.250 A  
HETATM   29  C   UNL     1     -11.008   6.300  66.707  1.00  0.00    -0.328 A  
BRANCH  26  30
HETATM   30  O   UNL     1      -9.380   3.228  67.800  1.00  0.00    -0.181 OA 
HETATM   31  C   UNL     1      -9.276   2.491  69.012  1.00  0.00    -0.143 C  
ENDBRANCH  26  30
BRANCH  28  32
HETATM   32  O   UNL     1     -10.376   4.239  65.568  1.00  0.00    -0.239 OA 
HETATM   33  C   UNL     1      -9.261   4.465  64.713  1.00  0.00    -0.157 C  
ENDBRANCH  28  32
ENDBRANCH  18  24
ENDBRANCH  17  18
ENDBRANCH  16  17
ENDBRANCH  15  16
ENDBRANCH  13  15
ENDBRANCH  12  13
ENDBRANCH  11  12
ENDBRANCH   7  11
ENDBRANCH   2   3
TORSDOF 12
ENDMDL
MODEL       59
REMARK 921   NORMALIZED FREE ENERGY PREDICTED BY IDOCK:   -5.33 KCAL/MOL
REMARK 922        TOTAL FREE ENERGY PREDICTED BY IDOCK:  -11.29 KCAL/MOL
REMARK 923 INTER-LIGAND FREE ENERGY PREDICTED BY IDOCK:   -9.05 KCAL/MOL
REMARK 924 INTRA-LIGAND FREE ENERGY PREDICTED BY IDOCK:   -2.24 KCAL/MOL
REMARK 927      BINDING AFFINITY PREDICTED BY RF-SCORE:    0.00 PKD
ROOT
HETATM    1  C   UNL     1     -13.660   8.908  71.938  1.00  0.00    -0.425 C  
HETATM    2  O   UNL     1     -13.520  10.258  72.369  1.00  0.00    -0.310 OA 
ENDROOT
BRANCH   2   3
HETATM    3  C   UNL     1     -12.938  11.125  71.476  1.00  0.00    -0.437 A  
HETATM    4  C   UNL     1     -12.953  12.528  71.527  1.00  0.00    -0.280 A  
HETATM    5  C   UNL     1     -11.746  11.220  69.355  1.00  0.00    -0.409 A  
HETATM    6  C   UNL     1     -12.349  13.257  70.488  1.00  0.00    -0.389 A  
HETATM    7  C   UNL     1     -11.737  12.619  69.399  1.00  0.00    -0.387 A  
HETATM    8  C   UNL     1     -12.347  10.483  70.381  1.00  0.00    -0.409 A  
BRANCH   4   9
HETATM    9  O   UNL     1     -13.610  13.123  72.571  1.00  0.00    -0.579 OA 
HETATM   10  C   UNL     1     -13.249  14.456  72.906  1.00  0.00    -0.517 C  
ENDBRANCH   4   9
BRANCH   7  11
HETATM   11  C   UNL     1     -11.246  13.452  68.216  1.00  0.00    -0.310 C  
BRANCH  11  12
HETATM   12  C   UNL     1     -12.211  13.196  67.051  1.00  0.00    -0.210 C  
BRANCH  12  13
HETATM   13  N   UNL     1     -11.940  12.229  65.982  1.00  0.00    -0.609 NA 
HETATM   14  C   UNL     1     -12.360  12.708  64.667  1.00  0.00    -0.476 C  
BRANCH  13  15
HETATM   15  C   UNL     1     -10.512  11.813  65.957  1.00  0.00    -0.246 C  
BRANCH  15  16
HETATM   16  C   UNL     1     -10.126  10.313  65.762  1.00  0.00    -0.325 C  
BRANCH  16  17
HETATM   17  C   UNL     1     -10.065   9.480  67.062  1.00  0.00    -0.297 C  
BRANCH  17  18
HETATM   18  C   UNL     1      -8.777   8.679  67.401  1.00  0.00    -0.136 C  
HETATM   19  N   UNL     1      -6.808   9.870  66.054  1.00  0.00    -0.094 NA 
HETATM   20  C   UNL     1      -8.399   8.825  68.953  1.00  0.00    -0.127 C  
HETATM   21  C   UNL     1      -7.657   9.338  66.642  1.00  0.00    -0.093 C  
HETATM   22  C   UNL     1      -9.414   8.259  69.959  1.00  0.00    -0.167 C  
HETATM   23  C   UNL     1      -8.145  10.286  69.383  1.00  0.00    -0.167 C  
BRANCH  18  24
HETATM   24  C   UNL     1      -9.003   7.228  66.959  1.00  0.00    -0.140 A  
HETATM   25  C   UNL     1      -7.950   6.429  66.483  1.00  0.00    -0.109 A  
HETATM   26  C   UNL     1      -8.175   5.177  65.901  1.00  0.00    -0.115 A  
HETATM   27  C   UNL     1     -10.305   6.702  66.876  1.00  0.00    -0.324 A  
HETATM   28  C   UNL     1      -9.489   4.687  65.820  1.00  0.00    -0.173 A  
HETATM   29  C   UNL     1     -10.537   5.444  66.332  1.00  0.00    -0.322 A  
BRANCH  26  30
HETATM   30  O   UNL     1      -7.184   4.393  65.368  1.00  0.00    -0.066 OA 
HETATM   31  C   UNL     1      -6.417   4.948  64.305  1.00  0.00    -0.038 C  
ENDBRANCH  26  30
BRANCH  28  32
HETATM   32  O   UNL     1      -9.658   3.475  65.194  1.00  0.00    -0.161 OA 
HETATM   33  C   UNL     1     -10.148   3.509  63.859  1.00  0.00    -0.205 C  
ENDBRANCH  28  32
ENDBRANCH  18  24
ENDBRANCH  17  18
ENDBRANCH  16  17
ENDBRANCH  15  16
ENDBRANCH  13  15
ENDBRANCH  12  13
ENDBRANCH  11  12
ENDBRANCH   7  11
ENDBRANCH   2   3
TORSDOF 12
ENDMDL
MODEL       60
REMARK 921   NORMALIZED FREE ENERGY PREDICTED BY IDOCK:   -5.32 KCAL/MOL
REMARK 922        TOTAL FREE ENERGY PREDICTED BY IDOCK:  -11.28 KCAL/MOL
REMARK 923 INTER-LIGAND FREE ENERGY PREDICTED BY IDOCK:   -9.51 KCAL/MOL
REMARK 924 INTRA-LIGAND FREE ENERGY PREDICTED BY IDOCK:   -1.78 KCAL/MOL
REMARK 927      BINDING AFFINITY PREDICTED BY RF-SCORE:    0.00 PKD
ROOT
HETATM    1  C   UNL     1     -10.440  18.267  67.529  1.00  0.00    -0.411 C  
HETATM    2  O   UNL     1      -9.900  16.953  67.620  1.00  0.00    -0.249 OA 
ENDROOT
BRANCH   2   3
HETATM    3  C   UNL     1     -10.633  15.951  67.030  1.00  0.00    -0.306 A  
HETATM    4  C   UNL     1     -11.275  14.881  67.674  1.00  0.00    -0.323 A  
HETATM    5  C   UNL     1     -11.305  15.048  64.871  1.00  0.00    -0.419 A  
HETATM    6  C   UNL     1     -11.935  13.912  66.898  1.00  0.00    -0.467 A  
HETATM    7  C   UNL     1     -11.965  13.985  65.499  1.00  0.00    -0.393 A  
HETATM    8  C   UNL     1     -10.642  16.016  65.632  1.00  0.00    -0.392 A  
BRANCH   4   9
HETATM    9  O   UNL     1     -11.177  14.804  69.038  1.00  0.00    -0.244 OA 
HETATM   10  C   UNL     1     -12.046  13.905  69.714  1.00  0.00    -0.345 C  
ENDBRANCH   4   9
BRANCH   7  11
HETATM   11  C   UNL     1     -12.548  12.822  64.696  1.00  0.00    -0.491 C  
BRANCH  11  12
HETATM   12  C   UNL     1     -11.428  12.290  63.793  1.00  0.00    -0.466 C  
BRANCH  12  13
HETATM   13  N   UNL     1     -10.652  11.084  64.103  1.00  0.00    -0.380 NA 
HETATM   14  C   UNL     1      -9.679  10.755  63.063  1.00  0.00    -0.340 C  
BRANCH  13  15
HETATM   15  C   UNL     1      -9.988  11.177  65.431  1.00  0.00    -0.259 C  
BRANCH  15  16
HETATM   16  C   UNL     1     -10.570  10.416  66.664  1.00  0.00    -0.245 C  
BRANCH  16  17
HETATM   17  C   UNL     1      -9.604  10.277  67.862  1.00  0.00    -0.161 C  
BRANCH  17  18
HETATM   18  C   UNL     1      -8.996   8.888  68.202  1.00  0.00    -0.137 C  
HETATM   19  N   UNL     1      -8.668   7.649  65.864  1.00  0.00    -0.162 NA 
HETATM   20  C   UNL     1      -7.527   9.039  68.828  1.00  0.00    -0.076 C  
HETATM   21  C   UNL     1      -8.811   8.175  66.890  1.00  0.00    -0.131 C  
HETATM   22  C   UNL     1      -7.430   9.780  70.172  1.00  0.00    -0.170 C  
HETATM   23  C   UNL     1      -6.531   9.746  67.883  1.00  0.00    -0.060 C  
BRANCH  18  24
HETATM   24  C   UNL     1      -9.983   8.163  69.123  1.00  0.00    -0.192 A  
HETATM   25  C   UNL     1     -10.878   8.867  69.947  1.00  0.00    -0.219 A  
HETATM   26  C   UNL     1     -11.644   8.226  70.925  1.00  0.00    -0.262 A  
HETATM   27  C   UNL     1      -9.919   6.767  69.281  1.00  0.00    -0.168 A  
HETATM   28  C   UNL     1     -11.545   6.832  71.068  1.00  0.00    -0.339 A  
HETATM   29  C   UNL     1     -10.703   6.114  70.226  1.00  0.00    -0.355 A  
BRANCH  26  30
HETATM   30  O   UNL     1     -12.481   8.883  71.792  1.00  0.00    -0.319 OA 
HETATM   31  C   UNL     1     -12.665  10.279  71.586  1.00  0.00    -0.456 C  
ENDBRANCH  26  30
BRANCH  28  32
HETATM   32  O   UNL     1     -12.283   6.261  72.077  1.00  0.00    -0.338 OA 
HETATM   33  C   UNL     1     -11.602   5.343  72.925  1.00  0.00    -0.228 C  
ENDBRANCH  28  32
ENDBRANCH  18  24
ENDBRANCH  17  18
ENDBRANCH  16  17
ENDBRANCH  15  16
ENDBRANCH  13  15
ENDBRANCH  12  13
ENDBRANCH  11  12
ENDBRANCH   7  11
ENDBRANCH   2   3
TORSDOF 12
ENDMDL
MODEL       61
REMARK 921   NORMALIZED FREE ENERGY PREDICTED BY IDOCK:   -5.32 KCAL/MOL
REMARK 922        TOTAL FREE ENERGY PREDICTED BY IDOCK:  -11.27 KCAL/MOL
REMARK 923 INTER-LIGAND FREE ENERGY PREDICTED BY IDOCK:   -9.13 KCAL/MOL
REMARK 924 INTRA-LIGAND FREE ENERGY PREDICTED BY IDOCK:   -2.14 KCAL/MOL
REMARK 927      BINDING AFFINITY PREDICTED BY RF-SCORE:    0.00 PKD
ROOT
HETATM    1  C   UNL     1      -6.647  18.097  65.804  1.00  0.00    -0.278 C  
HETATM    2  O   UNL     1      -7.861  17.421  65.496  1.00  0.00    -0.326 OA 
ENDROOT
BRANCH   2   3
HETATM    3  C   UNL     1      -8.694  17.155  66.556  1.00  0.00    -0.261 A  
HETATM    4  C   UNL     1     -10.086  16.970  66.513  1.00  0.00    -0.314 A  
HETATM    5  C   UNL     1      -8.748  16.944  68.982  1.00  0.00    -0.150 A  
HETATM    6  C   UNL     1     -10.787  16.763  67.714  1.00  0.00    -0.285 A  
HETATM    7  C   UNL     1     -10.133  16.741  68.954  1.00  0.00    -0.285 A  
HETATM    8  C   UNL     1      -8.040  17.156  67.794  1.00  0.00    -0.197 A  
BRANCH   4   9
HETATM    9  O   UNL     1     -10.705  17.057  65.294  1.00  0.00    -0.616 OA 
HETATM   10  C   UNL     1     -11.064  15.844  64.647  1.00  0.00    -0.354 C  
ENDBRANCH   4   9
BRANCH   7  11
HETATM   11  C   UNL     1     -10.956  16.681  70.240  1.00  0.00    -0.066 C  
BRANCH  11  12
HETATM   12  C   UNL     1     -12.027  15.601  70.040  1.00  0.00    -0.368 C  
BRANCH  12  13
HETATM   13  N   UNL     1     -12.489  14.721  71.119  1.00  0.00    -0.305 NA 
HETATM   14  C   UNL     1     -13.842  15.042  71.569  1.00  0.00    -0.484 C  
BRANCH  13  15
HETATM   15  C   UNL     1     -12.389  13.284  70.746  1.00  0.00    -0.344 C  
BRANCH  15  16
HETATM   16  C   UNL     1     -12.129  12.866  69.264  1.00  0.00    -0.234 C  
BRANCH  16  17
HETATM   17  C   UNL     1     -10.719  12.297  68.984  1.00  0.00    -0.149 C  
BRANCH  17  18
HETATM   18  C   UNL     1     -10.459  11.500  67.675  1.00  0.00    -0.218 C  
HETATM   19  N   UNL     1     -12.251  12.395  65.914  1.00  0.00    -0.632 NA 
HETATM   20  C   UNL     1      -9.022  11.857  67.059  1.00  0.00    -0.190 C  
HETATM   21  C   UNL     1     -11.469  11.992  66.673  1.00  0.00    -0.346 C  
HETATM   22  C   UNL     1      -7.800  11.489  67.917  1.00  0.00    -0.123 C  
HETATM   23  C   UNL     1      -8.862  13.353  66.713  1.00  0.00    -0.145 C  
BRANCH  18  24
HETATM   24  C   UNL     1     -10.636  10.012  67.996  1.00  0.00    -0.280 A  
HETATM   25  C   UNL     1     -10.814   9.557  69.313  1.00  0.00    -0.211 A  
HETATM   26  C   UNL     1     -10.785   8.197  69.637  1.00  0.00    -0.195 A  
HETATM   27  C   UNL     1     -10.476   9.041  66.991  1.00  0.00    -0.316 A  
HETATM   28  C   UNL     1     -10.607   7.253  68.612  1.00  0.00    -0.168 A  
HETATM   29  C   UNL     1     -10.482   7.685  67.296  1.00  0.00    -0.396 A  
BRANCH  26  30
HETATM   30  O   UNL     1     -10.890   7.714  70.917  1.00  0.00    -0.233 OA 
HETATM   31  C   UNL     1     -11.290   8.632  71.928  1.00  0.00    -0.347 C  
ENDBRANCH  26  30
BRANCH  28  32
HETATM   32  O   UNL     1     -10.537   5.934  68.992  1.00  0.00    -0.233 OA 
HETATM   33  C   UNL     1     -10.281   4.986  67.963  1.00  0.00    -0.078 C  
ENDBRANCH  28  32
ENDBRANCH  18  24
ENDBRANCH  17  18
ENDBRANCH  16  17
ENDBRANCH  15  16
ENDBRANCH  13  15
ENDBRANCH  12  13
ENDBRANCH  11  12
ENDBRANCH   7  11
ENDBRANCH   2   3
TORSDOF 12
ENDMDL
MODEL       62
REMARK 921   NORMALIZED FREE ENERGY PREDICTED BY IDOCK:   -5.30 KCAL/MOL
REMARK 922        TOTAL FREE ENERGY PREDICTED BY IDOCK:  -11.25 KCAL/MOL
REMARK 923 INTER-LIGAND FREE ENERGY PREDICTED BY IDOCK:   -9.11 KCAL/MOL
REMARK 924 INTRA-LIGAND FREE ENERGY PREDICTED BY IDOCK:   -2.14 KCAL/MOL
REMARK 927      BINDING AFFINITY PREDICTED BY RF-SCORE:    0.00 PKD
ROOT
HETATM    1  C   UNL     1     -13.112  11.398  71.771  1.00  0.00    -0.418 C  
HETATM    2  O   UNL     1     -12.814  10.012  71.907  1.00  0.00    -0.403 OA 
ENDROOT
BRANCH   2   3
HETATM    3  C   UNL     1     -11.917   9.491  71.007  1.00  0.00    -0.328 A  
HETATM    4  C   UNL     1     -11.584   8.138  70.831  1.00  0.00    -0.267 A  
HETATM    5  C   UNL     1     -10.259  10.111  69.335  1.00  0.00    -0.246 A  
HETATM    6  C   UNL     1     -10.594   7.793  69.894  1.00  0.00    -0.239 A  
HETATM    7  C   UNL     1      -9.928   8.765  69.135  1.00  0.00    -0.193 A  
HETATM    8  C   UNL     1     -11.240  10.467  70.267  1.00  0.00    -0.395 A  
BRANCH   4   9
HETATM    9  O   UNL     1     -12.208   7.217  71.630  1.00  0.00    -0.312 OA 
HETATM   10  C   UNL     1     -11.428   6.141  72.133  1.00  0.00    -0.311 C  
ENDBRANCH   4   9
BRANCH   7  11
HETATM   11  C   UNL     1      -8.746   8.356  68.256  1.00  0.00    -0.143 C  
BRANCH  11  12
HETATM   12  C   UNL     1      -8.671   9.365  67.103  1.00  0.00    -0.128 C  
BRANCH  12  13
HETATM   13  N   UNL     1      -7.436  10.060  66.724  1.00  0.00    -0.095 NA 
HETATM   14  C   UNL     1      -7.156   9.972  65.292  1.00  0.00    -0.137 C  
BRANCH  13  15
HETATM   15  C   UNL     1      -7.436  11.478  67.172  1.00  0.00    -0.142 C  
BRANCH  15  16
HETATM   16  C   UNL     1      -8.574  12.450  66.727  1.00  0.00    -0.129 C  
BRANCH  16  17
HETATM   17  C   UNL     1      -9.064  13.426  67.822  1.00  0.00    -0.202 C  
BRANCH  17  18
HETATM   18  C   UNL     1     -10.123  14.507  67.468  1.00  0.00    -0.228 C  
HETATM   19  N   UNL     1     -10.476  14.340  64.830  1.00  0.00    -0.429 NA 
HETATM   20  C   UNL     1     -11.544  14.158  68.125  1.00  0.00    -0.365 C  
HETATM   21  C   UNL     1     -10.328  14.428  65.980  1.00  0.00    -0.309 C  
HETATM   22  C   UNL     1     -11.599  14.131  69.661  1.00  0.00    -0.349 C  
HETATM   23  C   UNL     1     -12.114  12.801  67.657  1.00  0.00    -0.200 C  
BRANCH  18  24
HETATM   24  C   UNL     1      -9.563  15.865  67.906  1.00  0.00    -0.215 A  
HETATM   25  C   UNL     1     -10.218  17.069  67.594  1.00  0.00    -0.317 A  
HETATM   26  C   UNL     1      -9.624  18.315  67.819  1.00  0.00    -0.283 A  
HETATM   27  C   UNL     1      -8.293  15.954  68.505  1.00  0.00    -0.182 A  
HETATM   28  C   UNL     1      -8.348  18.369  68.405  1.00  0.00    -0.308 A  
HETATM   29  C   UNL     1      -7.708  17.188  68.766  1.00  0.00    -0.259 A  
BRANCH  26  30
HETATM   30  O   UNL     1     -10.201  19.510  67.472  1.00  0.00    -0.370 OA 
HETATM   31  C   UNL     1     -10.499  19.713  66.096  1.00  0.00    -0.524 C  
ENDBRANCH  26  30
BRANCH  28  32
HETATM   32  O   UNL     1      -7.791  19.616  68.557  1.00  0.00    -0.336 OA 
HETATM   33  C   UNL     1      -6.538  19.678  69.227  1.00  0.00    -0.344 C  
ENDBRANCH  28  32
ENDBRANCH  18  24
ENDBRANCH  17  18
ENDBRANCH  16  17
ENDBRANCH  15  16
ENDBRANCH  13  15
ENDBRANCH  12  13
ENDBRANCH  11  12
ENDBRANCH   7  11
ENDBRANCH   2   3
TORSDOF 12
ENDMDL
MODEL       63
REMARK 921   NORMALIZED FREE ENERGY PREDICTED BY IDOCK:   -5.30 KCAL/MOL
REMARK 922        TOTAL FREE ENERGY PREDICTED BY IDOCK:  -11.24 KCAL/MOL
REMARK 923 INTER-LIGAND FREE ENERGY PREDICTED BY IDOCK:   -9.58 KCAL/MOL
REMARK 924 INTRA-LIGAND FREE ENERGY PREDICTED BY IDOCK:   -1.66 KCAL/MOL
REMARK 927      BINDING AFFINITY PREDICTED BY RF-SCORE:    0.00 PKD
ROOT
HETATM    1  C   UNL     1     -14.242   8.468  72.105  1.00  0.00    -0.434 C  
HETATM    2  O   UNL     1     -13.506   9.684  72.207  1.00  0.00    -0.441 OA 
ENDROOT
BRANCH   2   3
HETATM    3  C   UNL     1     -12.483   9.853  71.306  1.00  0.00    -0.381 A  
HETATM    4  C   UNL     1     -11.180   9.336  71.398  1.00  0.00    -0.362 A  
HETATM    5  C   UNL     1     -11.870  11.018  69.258  1.00  0.00    -0.411 A  
HETATM    6  C   UNL     1     -10.242   9.664  70.403  1.00  0.00    -0.348 A  
HETATM    7  C   UNL     1     -10.573  10.497  69.326  1.00  0.00    -0.265 A  
HETATM    8  C   UNL     1     -12.811  10.703  70.243  1.00  0.00    -0.211 A  
BRANCH   4   9
HETATM    9  O   UNL     1     -10.870   8.575  72.494  1.00  0.00    -0.337 OA 
HETATM   10  C   UNL     1     -10.791   7.167  72.320  1.00  0.00    -0.232 C  
ENDBRANCH   4   9
BRANCH   7  11
HETATM   11  C   UNL     1      -9.476  10.958  68.366  1.00  0.00    -0.178 C  
BRANCH  11  12
HETATM   12  C   UNL     1      -9.993  10.717  66.941  1.00  0.00    -0.200 C  
BRANCH  12  13
HETATM   13  N   UNL     1      -9.107  10.544  65.785  1.00  0.00    -0.171 NA 
HETATM   14  C   UNL     1      -8.960   9.145  65.390  1.00  0.00    -0.207 C  
BRANCH  13  15
HETATM   15  C   UNL     1      -9.536  11.373  64.627  1.00  0.00    -0.148 C  
BRANCH  15  16
HETATM   16  C   UNL     1     -10.484  12.596  64.835  1.00  0.00    -0.331 C  
BRANCH  16  17
HETATM   17  C   UNL     1      -9.823  13.831  65.489  1.00  0.00    -0.189 C  
BRANCH  17  18
HETATM   18  C   UNL     1     -10.698  15.059  65.867  1.00  0.00    -0.337 C  
HETATM   19  N   UNL     1     -12.493  15.301  63.910  1.00  0.00    -0.672 NA 
HETATM   20  C   UNL     1     -11.539  14.778  67.203  1.00  0.00    -0.373 C  
HETATM   21  C   UNL     1     -11.713  15.211  64.766  1.00  0.00    -0.331 C  
HETATM   22  C   UNL     1     -10.726  14.544  68.486  1.00  0.00    -0.253 C  
HETATM   23  C   UNL     1     -12.492  13.570  67.079  1.00  0.00    -0.106 C  
BRANCH  18  24
HETATM   24  C   UNL     1      -9.769  16.274  65.972  1.00  0.00    -0.370 A  
HETATM   25  C   UNL     1      -8.377  16.131  66.102  1.00  0.00    -0.222 A  
HETATM   26  C   UNL     1      -7.544  17.217  66.389  1.00  0.00    -0.312 A  
HETATM   27  C   UNL     1     -10.301  17.571  66.092  1.00  0.00    -0.330 A  
HETATM   28  C   UNL     1      -8.109  18.497  66.519  1.00  0.00    -0.280 A  
HETATM   29  C   UNL     1      -9.478  18.664  66.342  1.00  0.00    -0.319 A  
BRANCH  26  30
HETATM   30  O   UNL     1      -6.191  17.110  66.587  1.00  0.00    -0.186 OA 
HETATM   31  C   UNL     1      -5.741  16.098  67.480  1.00  0.00    -0.146 C  
ENDBRANCH  26  30
BRANCH  28  32
HETATM   32  O   UNL     1      -7.252  19.518  66.850  1.00  0.00    -0.210 OA 
HETATM   33  C   UNL     1      -7.844  20.708  67.358  1.00  0.00    -0.283 C  
ENDBRANCH  28  32
ENDBRANCH  18  24
ENDBRANCH  17  18
ENDBRANCH  16  17
ENDBRANCH  15  16
ENDBRANCH  13  15
ENDBRANCH  12  13
ENDBRANCH  11  12
ENDBRANCH   7  11
ENDBRANCH   2   3
TORSDOF 12
ENDMDL
MODEL       64
REMARK 921   NORMALIZED FREE ENERGY PREDICTED BY IDOCK:   -5.29 KCAL/MOL
REMARK 922        TOTAL FREE ENERGY PREDICTED BY IDOCK:  -11.23 KCAL/MOL
REMARK 923 INTER-LIGAND FREE ENERGY PREDICTED BY IDOCK:   -9.68 KCAL/MOL
REMARK 924 INTRA-LIGAND FREE ENERGY PREDICTED BY IDOCK:   -1.55 KCAL/MOL
REMARK 927      BINDING AFFINITY PREDICTED BY RF-SCORE:    0.00 PKD
ROOT
HETATM    1  C   UNL     1      -9.890   6.175  74.437  1.00  0.00    -0.284 C  
HETATM    2  O   UNL     1     -10.814   5.344  73.743  1.00  0.00    -0.284 OA 
ENDROOT
BRANCH   2   3
HETATM    3  C   UNL     1     -10.856   5.489  72.377  1.00  0.00    -0.248 A  
HETATM    4  C   UNL     1     -10.046   4.839  71.432  1.00  0.00    -0.189 A  
HETATM    5  C   UNL     1     -11.911   6.763  70.590  1.00  0.00    -0.442 A  
HETATM    6  C   UNL     1     -10.193   5.157  70.070  1.00  0.00    -0.354 A  
HETATM    7  C   UNL     1     -11.123   6.111  69.633  1.00  0.00    -0.489 A  
HETATM    8  C   UNL     1     -11.771   6.457  71.948  1.00  0.00    -0.378 A  
BRANCH   4   9
HETATM    9  O   UNL     1      -9.105   3.957  71.894  1.00  0.00    -0.110 OA 
HETATM   10  C   UNL     1      -9.447   2.579  71.922  1.00  0.00    -0.125 C  
ENDBRANCH   4   9
BRANCH   7  11
HETATM   11  C   UNL     1     -11.127   6.543  68.167  1.00  0.00    -0.332 C  
BRANCH  11  12
HETATM   12  C   UNL     1      -9.731   6.245  67.604  1.00  0.00    -0.119 C  
BRANCH  12  13
HETATM   13  N   UNL     1      -8.722   7.283  67.370  1.00  0.00    -0.121 NA 
HETATM   14  C   UNL     1      -8.240   7.301  65.990  1.00  0.00    -0.138 C  
BRANCH  13  15
HETATM   15  C   UNL     1      -9.205   8.630  67.774  1.00  0.00    -0.134 C  
BRANCH  15  16
HETATM   16  C   UNL     1      -9.653   9.668  66.697  1.00  0.00    -0.241 C  
BRANCH  16  17
HETATM   17  C   UNL     1     -10.741  10.663  67.162  1.00  0.00    -0.327 C  
BRANCH  17  18
HETATM   18  C   UNL     1     -10.401  12.175  67.274  1.00  0.00    -0.230 C  
HETATM   19  N   UNL     1      -7.739  12.316  67.335  1.00  0.00    -0.156 NA 
HETATM   20  C   UNL     1     -10.853  12.967  65.955  1.00  0.00    -0.291 C  
HETATM   21  C   UNL     1      -8.899  12.269  67.316  1.00  0.00    -0.190 C  
HETATM   22  C   UNL     1     -12.360  12.989  65.654  1.00  0.00    -0.504 C  
HETATM   23  C   UNL     1     -10.172  12.448  64.670  1.00  0.00    -0.312 C  
BRANCH  18  24
HETATM   24  C   UNL     1     -11.051  12.702  68.558  1.00  0.00    -0.300 A  
HETATM   25  C   UNL     1     -11.529  11.833  69.554  1.00  0.00    -0.363 A  
HETATM   26  C   UNL     1     -12.291  12.291  70.634  1.00  0.00    -0.286 A  
HETATM   27  C   UNL     1     -11.325  14.073  68.709  1.00  0.00    -0.309 A  
HETATM   28  C   UNL     1     -12.559  13.666  70.747  1.00  0.00    -0.325 A  
HETATM   29  C   UNL     1     -12.050  14.545  69.797  1.00  0.00    -0.380 A  
BRANCH  26  30
HETATM   30  O   UNL     1     -12.829  11.471  71.592  1.00  0.00    -0.408 OA 
HETATM   31  C   UNL     1     -12.989  10.097  71.257  1.00  0.00    -0.413 C  
ENDBRANCH  26  30
BRANCH  28  32
HETATM   32  O   UNL     1     -13.354  14.055  71.799  1.00  0.00    -0.341 OA 
HETATM   33  C   UNL     1     -14.349  15.032  71.519  1.00  0.00    -0.555 C  
ENDBRANCH  28  32
ENDBRANCH  18  24
ENDBRANCH  17  18
ENDBRANCH  16  17
ENDBRANCH  15  16
ENDBRANCH  13  15
ENDBRANCH  12  13
ENDBRANCH  11  12
ENDBRANCH   7  11
ENDBRANCH   2   3
TORSDOF 12
ENDMDL
MODEL       65
REMARK 921   NORMALIZED FREE ENERGY PREDICTED BY IDOCK:   -5.29 KCAL/MOL
REMARK 922        TOTAL FREE ENERGY PREDICTED BY IDOCK:  -11.23 KCAL/MOL
REMARK 923 INTER-LIGAND FREE ENERGY PREDICTED BY IDOCK:   -8.30 KCAL/MOL
REMARK 924 INTRA-LIGAND FREE ENERGY PREDICTED BY IDOCK:   -2.92 KCAL/MOL
REMARK 927      BINDING AFFINITY PREDICTED BY RF-SCORE:    0.00 PKD
ROOT
HETATM    1  C   UNL     1      -6.265   9.254  65.003  1.00  0.00    -0.066 C  
HETATM    2  O   UNL     1      -5.996   9.261  66.401  1.00  0.00    -0.057 OA 
ENDROOT
BRANCH   2   3
HETATM    3  C   UNL     1      -6.577  10.273  67.127  1.00  0.00    -0.073 A  
HETATM    4  C   UNL     1      -7.532  10.140  68.149  1.00  0.00    -0.083 A  
HETATM    5  C   UNL     1      -6.727  12.696  67.310  1.00  0.00    -0.105 A  
HETATM    6  C   UNL     1      -8.062  11.297  68.745  1.00  0.00    -0.130 A  
HETATM    7  C   UNL     1      -7.666  12.580  68.342  1.00  0.00    -0.136 A  
HETATM    8  C   UNL     1      -6.195  11.552  66.707  1.00  0.00    -0.140 A  
BRANCH   4   9
HETATM    9  O   UNL     1      -7.943   8.876  68.479  1.00  0.00    -0.101 OA 
HETATM   10  C   UNL     1      -9.297   8.703  68.875  1.00  0.00    -0.145 C  
ENDBRANCH   4   9
BRANCH   7  11
HETATM   11  C   UNL     1      -8.392  13.803  68.901  1.00  0.00     0.111 C  
BRANCH  11  12
HETATM   12  C   UNL     1      -7.802  15.037  68.205  1.00  0.00    -0.119 C  
BRANCH  12  13
HETATM   13  N   UNL     1      -8.620  16.150  67.714  1.00  0.00    -0.166 NA 
HETATM   14  C   UNL     1      -8.207  17.440  68.263  1.00  0.00    -0.247 C  
BRANCH  13  15
HETATM   15  C   UNL     1      -8.657  16.201  66.229  1.00  0.00    -0.338 C  
BRANCH  15  16
HETATM   16  C   UNL     1      -9.780  15.459  65.437  1.00  0.00    -0.250 C  
BRANCH  16  17
HETATM   17  C   UNL     1      -9.721  13.916  65.512  1.00  0.00    -0.119 C  
BRANCH  17  18
HETATM   18  C   UNL     1     -11.039  13.094  65.455  1.00  0.00    -0.299 C  
HETATM   19  N   UNL     1     -12.703  14.497  63.914  1.00  0.00    -0.716 NA 
HETATM   20  C   UNL     1     -10.814  11.696  64.701  1.00  0.00    -0.373 C  
HETATM   21  C   UNL     1     -11.990  13.878  64.592  1.00  0.00    -0.419 C  
HETATM   22  C   UNL     1      -9.838  10.711  65.364  1.00  0.00    -0.325 C  
HETATM   23  C   UNL     1     -10.325  11.862  63.246  1.00  0.00    -0.432 C  
BRANCH  18  24
HETATM   24  C   UNL     1     -11.551  12.939  66.892  1.00  0.00    -0.425 A  
HETATM   25  C   UNL     1     -11.852  14.055  67.692  1.00  0.00    -0.430 A  
HETATM   26  C   UNL     1     -12.134  13.932  69.057  1.00  0.00    -0.329 A  
HETATM   27  C   UNL     1     -11.592  11.673  67.503  1.00  0.00    -0.345 A  
HETATM   28  C   UNL     1     -12.152  12.654  69.640  1.00  0.00    -0.213 A  
HETATM   29  C   UNL     1     -11.906  11.536  68.850  1.00  0.00    -0.406 A  
BRANCH  26  30
HETATM   30  O   UNL     1     -12.370  14.999  69.886  1.00  0.00    -0.312 OA 
HETATM   31  C   UNL     1     -11.270  15.852  70.179  1.00  0.00    -0.364 C  
ENDBRANCH  26  30
BRANCH  28  32
HETATM   32  O   UNL     1     -12.385  12.596  70.993  1.00  0.00    -0.351 OA 
HETATM   33  C   UNL     1     -12.938  11.385  71.494  1.00  0.00    -0.399 C  
ENDBRANCH  28  32
ENDBRANCH  18  24
ENDBRANCH  17  18
ENDBRANCH  16  17
ENDBRANCH  15  16
ENDBRANCH  13  15
ENDBRANCH  12  13
ENDBRANCH  11  12
ENDBRANCH   7  11
ENDBRANCH   2   3
TORSDOF 12
ENDMDL
MODEL       66
REMARK 921   NORMALIZED FREE ENERGY PREDICTED BY IDOCK:   -5.27 KCAL/MOL
REMARK 922        TOTAL FREE ENERGY PREDICTED BY IDOCK:  -11.20 KCAL/MOL
REMARK 923 INTER-LIGAND FREE ENERGY PREDICTED BY IDOCK:   -9.61 KCAL/MOL
REMARK 924 INTRA-LIGAND FREE ENERGY PREDICTED BY IDOCK:   -1.58 KCAL/MOL
REMARK 927      BINDING AFFINITY PREDICTED BY RF-SCORE:    0.00 PKD
ROOT
HETATM    1  C   UNL     1     -10.422   7.212  67.447  1.00  0.00    -0.284 C  
HETATM    2  O   UNL     1      -9.394   8.173  67.227  1.00  0.00    -0.134 OA 
ENDROOT
BRANCH   2   3
HETATM    3  C   UNL     1      -9.638   9.113  66.255  1.00  0.00    -0.255 A  
HETATM    4  C   UNL     1      -9.115   9.138  64.952  1.00  0.00    -0.132 A  
HETATM    5  C   UNL     1     -10.751  11.240  65.843  1.00  0.00    -0.291 A  
HETATM    6  C   UNL     1      -9.431  10.217  64.108  1.00  0.00    -0.358 A  
HETATM    7  C   UNL     1     -10.251  11.271  64.536  1.00  0.00    -0.370 A  
HETATM    8  C   UNL     1     -10.440  10.173  66.694  1.00  0.00    -0.254 A  
BRANCH   4   9
HETATM    9  O   UNL     1      -8.268   8.126  64.583  1.00  0.00    -0.154 OA 
HETATM   10  C   UNL     1      -6.919   8.465  64.295  1.00  0.00    -0.081 C  
ENDBRANCH   4   9
BRANCH   7  11
HETATM   11  C   UNL     1     -10.427  12.499  63.643  1.00  0.00    -0.418 C  
BRANCH  11  12
HETATM   12  C   UNL     1     -11.920  12.853  63.652  1.00  0.00    -0.541 C  
BRANCH  12  13
HETATM   13  N   UNL     1     -12.451  14.079  64.256  1.00  0.00    -0.684 NA 
HETATM   14  C   UNL     1     -12.940  13.872  65.618  1.00  0.00    -0.315 C  
BRANCH  13  15
HETATM   15  C   UNL     1     -11.463  15.190  64.219  1.00  0.00    -0.136 C  
BRANCH  15  16
HETATM   16  C   UNL     1     -10.879  15.778  65.542  1.00  0.00    -0.343 C  
BRANCH  16  17
HETATM   17  C   UNL     1      -9.479  15.252  65.930  1.00  0.00    -0.351 C  
BRANCH  17  18
HETATM   18  C   UNL     1      -8.881  15.610  67.319  1.00  0.00    -0.215 C  
HETATM   19  N   UNL     1      -6.564  14.299  67.471  1.00  0.00    -0.287 NA 
HETATM   20  C   UNL     1      -8.511  17.168  67.402  1.00  0.00    -0.202 C  
HETATM   21  C   UNL     1      -7.574  14.871  67.421  1.00  0.00    -0.204 C  
HETATM   22  C   UNL     1      -9.682  18.156  67.282  1.00  0.00    -0.297 C  
HETATM   23  C   UNL     1      -7.477  17.606  66.342  1.00  0.00    -0.324 C  
BRANCH  18  24
HETATM   24  C   UNL     1      -9.886  15.161  68.386  1.00  0.00    -0.223 A  
HETATM   25  C   UNL     1     -10.485  13.890  68.347  1.00  0.00    -0.250 A  
HETATM   26  C   UNL     1     -11.539  13.542  69.198  1.00  0.00    -0.310 A  
HETATM   27  C   UNL     1     -10.352  16.068  69.354  1.00  0.00    -0.272 A  
HETATM   28  C   UNL     1     -11.992  14.478  70.144  1.00  0.00    -0.315 A  
HETATM   29  C   UNL     1     -11.375  15.721  70.230  1.00  0.00    -0.371 A  
BRANCH  26  30
HETATM   30  O   UNL     1     -12.193  12.338  69.151  1.00  0.00    -0.201 OA 
HETATM   31  C   UNL     1     -11.591  11.243  69.832  1.00  0.00    -0.334 C  
ENDBRANCH  26  30
BRANCH  28  32
HETATM   32  O   UNL     1     -13.062  14.101  70.921  1.00  0.00    -0.334 OA 
HETATM   33  C   UNL     1     -12.919  14.266  72.327  1.00  0.00    -0.376 C  
ENDBRANCH  28  32
ENDBRANCH  18  24
ENDBRANCH  17  18
ENDBRANCH  16  17
ENDBRANCH  15  16
ENDBRANCH  13  15
ENDBRANCH  12  13
ENDBRANCH  11  12
ENDBRANCH   7  11
ENDBRANCH   2   3
TORSDOF 12
ENDMDL
MODEL       67
REMARK 921   NORMALIZED FREE ENERGY PREDICTED BY IDOCK:   -5.27 KCAL/MOL
REMARK 922        TOTAL FREE ENERGY PREDICTED BY IDOCK:  -11.19 KCAL/MOL
REMARK 923 INTER-LIGAND FREE ENERGY PREDICTED BY IDOCK:   -9.62 KCAL/MOL
REMARK 924 INTRA-LIGAND FREE ENERGY PREDICTED BY IDOCK:   -1.57 KCAL/MOL
REMARK 927      BINDING AFFINITY PREDICTED BY RF-SCORE:    0.00 PKD
ROOT
HETATM    1  C   UNL     1     -11.074   6.122  72.968  1.00  0.00    -0.218 C  
HETATM    2  O   UNL     1     -10.904   7.497  73.298  1.00  0.00    -0.386 OA 
ENDROOT
BRANCH   2   3
HETATM    3  C   UNL     1     -11.056   8.392  72.267  1.00  0.00    -0.368 A  
HETATM    4  C   UNL     1     -10.101   8.733  71.294  1.00  0.00    -0.266 A  
HETATM    5  C   UNL     1     -12.588  10.037  71.331  1.00  0.00    -0.518 A  
HETATM    6  C   UNL     1     -10.415   9.720  70.343  1.00  0.00    -0.358 A  
HETATM    7  C   UNL     1     -11.654  10.376  70.344  1.00  0.00    -0.423 A  
HETATM    8  C   UNL     1     -12.286   9.060  72.285  1.00  0.00    -0.402 A  
BRANCH   4   9
HETATM    9  O   UNL     1      -8.879   8.119  71.356  1.00  0.00    -0.131 OA 
HETATM   10  C   UNL     1      -7.738   8.877  70.977  1.00  0.00    -0.132 C  
ENDBRANCH   4   9
BRANCH   7  11
HETATM   11  C   UNL     1     -11.883  11.555  69.399  1.00  0.00    -0.417 C  
BRANCH  11  12
HETATM   12  C   UNL     1     -11.530  11.076  67.985  1.00  0.00    -0.290 C  
BRANCH  12  13
HETATM   13  N   UNL     1     -10.619  11.804  67.096  1.00  0.00    -0.223 NA 
HETATM   14  C   UNL     1     -11.304  12.397  65.949  1.00  0.00    -0.356 C  
BRANCH  13  15
HETATM   15  C   UNL     1      -9.833  12.833  67.826  1.00  0.00    -0.220 C  
BRANCH  15  16
HETATM   16  C   UNL     1      -9.206  14.042  67.062  1.00  0.00    -0.262 C  
BRANCH  16  17
HETATM   17  C   UNL     1      -9.906  15.399  67.300  1.00  0.00    -0.217 C  
BRANCH  17  18
HETATM   18  C   UNL     1      -9.667  16.163  68.633  1.00  0.00    -0.227 C  
HETATM   19  N   UNL     1      -7.361  15.235  69.596  1.00  0.00    -0.205 NA 
HETATM   20  C   UNL     1      -9.435  17.727  68.366  1.00  0.00    -0.297 C  
HETATM   21  C   UNL     1      -8.370  15.644  69.191  1.00  0.00    -0.251 C  
HETATM   22  C   UNL     1     -10.614  18.498  67.750  1.00  0.00    -0.422 C  
HETATM   23  C   UNL     1      -8.219  18.016  67.458  1.00  0.00    -0.235 C  
BRANCH  18  24
HETATM   24  C   UNL     1     -10.856  15.869  69.555  1.00  0.00    -0.305 A  
HETATM   25  C   UNL     1     -10.720  15.862  70.954  1.00  0.00     0.045 A  
HETATM   26  C   UNL     1     -11.742  15.410  71.795  1.00  0.00    -0.416 A  
HETATM   27  C   UNL     1     -12.087  15.448  69.022  1.00  0.00    -0.254 A  
HETATM   28  C   UNL     1     -12.954  14.982  71.229  1.00  0.00    -0.377 A  
HETATM   29  C   UNL     1     -13.123  15.031  69.850  1.00  0.00     0.217 A  
BRANCH  26  30
HETATM   30  O   UNL     1     -11.628  15.327  73.159  1.00  0.00    -0.402 OA 
HETATM   31  C   UNL     1     -12.225  16.366  73.927  1.00  0.00    -0.446 C  
ENDBRANCH  26  30
BRANCH  28  32
HETATM   32  O   UNL     1     -13.905  14.502  72.098  1.00  0.00    -0.396 OA 
HETATM   33  C   UNL     1     -13.744  13.160  72.542  1.00  0.00    -0.459 C  
ENDBRANCH  28  32
ENDBRANCH  18  24
ENDBRANCH  17  18
ENDBRANCH  16  17
ENDBRANCH  15  16
ENDBRANCH  13  15
ENDBRANCH  12  13
ENDBRANCH  11  12
ENDBRANCH   7  11
ENDBRANCH   2   3
TORSDOF 12
ENDMDL
MODEL       68
REMARK 921   NORMALIZED FREE ENERGY PREDICTED BY IDOCK:   -5.25 KCAL/MOL
REMARK 922        TOTAL FREE ENERGY PREDICTED BY IDOCK:  -11.16 KCAL/MOL
REMARK 923 INTER-LIGAND FREE ENERGY PREDICTED BY IDOCK:   -9.97 KCAL/MOL
REMARK 924 INTRA-LIGAND FREE ENERGY PREDICTED BY IDOCK:   -1.20 KCAL/MOL
REMARK 927      BINDING AFFINITY PREDICTED BY RF-SCORE:    0.00 PKD
ROOT
HETATM    1  C   UNL     1     -10.975   4.185  73.440  1.00  0.00    -0.259 C  
HETATM    2  O   UNL     1     -10.224   5.217  72.808  1.00  0.00    -0.176 OA 
ENDROOT
BRANCH   2   3
HETATM    3  C   UNL     1     -10.912   6.365  72.496  1.00  0.00    -0.251 A  
HETATM    4  C   UNL     1     -10.524   7.686  72.778  1.00  0.00    -0.311 A  
HETATM    5  C   UNL     1     -13.006   7.185  71.562  1.00  0.00    -0.431 A  
HETATM    6  C   UNL     1     -11.387   8.741  72.433  1.00  0.00    -0.272 A  
HETATM    7  C   UNL     1     -12.627   8.507  71.820  1.00  0.00    -0.387 A  
HETATM    8  C   UNL     1     -12.157   6.126  71.904  1.00  0.00    -0.225 A  
BRANCH   4   9
HETATM    9  O   UNL     1      -9.336   7.878  73.431  1.00  0.00    -0.262 OA 
HETATM   10  C   UNL     1      -8.208   8.256  72.654  1.00  0.00    -0.162 C  
ENDBRANCH   4   9
BRANCH   7  11
HETATM   11  C   UNL     1     -13.599   9.670  71.619  1.00  0.00    -0.402 C  
BRANCH  11  12
HETATM   12  C   UNL     1     -12.798  10.965  71.801  1.00  0.00    -0.404 C  
BRANCH  12  13
HETATM   13  N   UNL     1     -13.146  12.224  71.134  1.00  0.00    -0.133 NA 
HETATM   14  C   UNL     1     -13.415  13.308  72.077  1.00  0.00    -0.507 C  
BRANCH  13  15
HETATM   15  C   UNL     1     -12.112  12.635  70.146  1.00  0.00    -0.294 C  
BRANCH  15  16
HETATM   16  C   UNL     1     -11.315  11.562  69.340  1.00  0.00    -0.355 C  
BRANCH  16  17
HETATM   17  C   UNL     1     -11.216  11.827  67.820  1.00  0.00    -0.331 C  
BRANCH  17  18
HETATM   18  C   UNL     1      -9.818  11.957  67.153  1.00  0.00    -0.206 C  
HETATM   19  N   UNL     1      -8.088  10.898  68.884  1.00  0.00    -0.144 NA 
HETATM   20  C   UNL     1      -9.724  11.055  65.831  1.00  0.00    -0.267 C  
HETATM   21  C   UNL     1      -8.830  11.368  68.123  1.00  0.00    -0.162 C  
HETATM   22  C   UNL     1     -10.675  11.427  64.681  1.00  0.00    -0.378 C  
HETATM   23  C   UNL     1      -9.955   9.552  66.101  1.00  0.00    -0.342 C  
BRANCH  18  24
HETATM   24  C   UNL     1      -9.563  13.447  66.898  1.00  0.00    -0.257 A  
HETATM   25  C   UNL     1     -10.371  14.195  66.024  1.00  0.00    -0.316 A  
HETATM   26  C   UNL     1     -10.035  15.497  65.638  1.00  0.00    -0.360 A  
HETATM   27  C   UNL     1      -8.417  14.074  67.419  1.00  0.00    -0.209 A  
HETATM   28  C   UNL     1      -8.875  16.089  66.164  1.00  0.00    -0.331 A  
HETATM   29  C   UNL     1      -8.093  15.381  67.070  1.00  0.00    -0.265 A  
BRANCH  26  30
HETATM   30  O   UNL     1     -10.761  16.237  64.740  1.00  0.00    -0.680 OA 
HETATM   31  C   UNL     1     -12.003  15.698  64.304  1.00  0.00    -0.115 C  
ENDBRANCH  26  30
BRANCH  28  32
HETATM   32  O   UNL     1      -8.567  17.350  65.713  1.00  0.00    -0.526 OA 
HETATM   33  C   UNL     1      -7.661  18.108  66.506  1.00  0.00    -0.249 C  
ENDBRANCH  28  32
ENDBRANCH  18  24
ENDBRANCH  17  18
ENDBRANCH  16  17
ENDBRANCH  15  16
ENDBRANCH  13  15
ENDBRANCH  12  13
ENDBRANCH  11  12
ENDBRANCH   7  11
ENDBRANCH   2   3
TORSDOF 12
ENDMDL
MODEL       69
REMARK 921   NORMALIZED FREE ENERGY PREDICTED BY IDOCK:   -5.25 KCAL/MOL
REMARK 922        TOTAL FREE ENERGY PREDICTED BY IDOCK:  -11.16 KCAL/MOL
REMARK 923 INTER-LIGAND FREE ENERGY PREDICTED BY IDOCK:   -8.89 KCAL/MOL
REMARK 924 INTRA-LIGAND FREE ENERGY PREDICTED BY IDOCK:   -2.27 KCAL/MOL
REMARK 927      BINDING AFFINITY PREDICTED BY RF-SCORE:    0.00 PKD
ROOT
HETATM    1  C   UNL     1     -12.496  11.883  63.554  1.00  0.00    -0.492 C  
HETATM    2  O   UNL     1     -13.072  12.544  64.675  1.00  0.00    -0.845 OA 
ENDROOT
BRANCH   2   3
HETATM    3  C   UNL     1     -12.266  13.445  65.331  1.00  0.00    -0.452 A  
HETATM    4  C   UNL     1     -11.850  13.388  66.671  1.00  0.00    -0.395 A  
HETATM    5  C   UNL     1     -11.136  15.586  65.076  1.00  0.00    -0.411 A  
HETATM    6  C   UNL     1     -11.069  14.436  67.190  1.00  0.00    -0.318 A  
HETATM    7  C   UNL     1     -10.699  15.537  66.405  1.00  0.00    -0.303 A  
HETATM    8  C   UNL     1     -11.917  14.552  64.549  1.00  0.00    -0.482 A  
BRANCH   4   9
HETATM    9  O   UNL     1     -12.278  12.331  67.429  1.00  0.00    -0.478 OA 
HETATM   10  C   UNL     1     -11.686  12.153  68.709  1.00  0.00    -0.321 C  
ENDBRANCH   4   9
BRANCH   7  11
HETATM   11  C   UNL     1      -9.995  16.726  67.058  1.00  0.00    -0.269 C  
BRANCH  11  12
HETATM   12  C   UNL     1      -9.275  16.195  68.305  1.00  0.00    -0.197 C  
BRANCH  12  13
HETATM   13  N   UNL     1      -7.892  15.707  68.286  1.00  0.00    -0.126 NA 
HETATM   14  C   UNL     1      -6.970  16.596  68.991  1.00  0.00    -0.212 C  
BRANCH  13  15
HETATM   15  C   UNL     1      -7.785  14.319  68.809  1.00  0.00    -0.134 C  
BRANCH  15  16
HETATM   16  C   UNL     1      -7.783  13.102  67.832  1.00  0.00    -0.147 C  
BRANCH  16  17
HETATM   17  C   UNL     1      -7.769  11.715  68.515  1.00  0.00    -0.134 C  
BRANCH  17  18
HETATM   18  C   UNL     1      -8.037  10.439  67.669  1.00  0.00    -0.107 C  
HETATM   19  N   UNL     1      -9.356  11.269  65.505  1.00  0.00    -0.222 NA 
HETATM   20  C   UNL     1      -6.665   9.806  67.132  1.00  0.00    -0.075 C  
HETATM   21  C   UNL     1      -8.787  10.893  66.446  1.00  0.00    -0.171 C  
HETATM   22  C   UNL     1      -5.684   9.294  68.199  1.00  0.00    -0.038 C  
HETATM   23  C   UNL     1      -5.855  10.773  66.241  1.00  0.00    -0.122 C  
BRANCH  18  24
HETATM   24  C   UNL     1      -8.861   9.476  68.531  1.00  0.00    -0.124 A  
HETATM   25  C   UNL     1      -9.520   8.367  67.974  1.00  0.00    -0.157 A  
HETATM   26  C   UNL     1     -10.425   7.596  68.712  1.00  0.00    -0.189 A  
HETATM   27  C   UNL     1      -9.103   9.761  69.887  1.00  0.00    -0.257 A  
HETATM   28  C   UNL     1     -10.656   7.917  70.060  1.00  0.00    -0.242 A  
HETATM   29  C   UNL     1      -9.973   8.980  70.640  1.00  0.00    -0.287 A  
BRANCH  26  30
HETATM   30  O   UNL     1     -11.136   6.546  68.190  1.00  0.00    -0.291 OA 
HETATM   31  C   UNL     1     -10.864   6.181  66.842  1.00  0.00    -0.335 C  
ENDBRANCH  26  30
BRANCH  28  32
HETATM   32  O   UNL     1     -11.591   7.158  70.723  1.00  0.00    -0.294 OA 
HETATM   33  C   UNL     1     -11.113   6.344  71.787  1.00  0.00    -0.265 C  
ENDBRANCH  28  32
ENDBRANCH  18  24
ENDBRANCH  17  18
ENDBRANCH  16  17
ENDBRANCH  15  16
ENDBRANCH  13  15
ENDBRANCH  12  13
ENDBRANCH  11  12
ENDBRANCH   7  11
ENDBRANCH   2   3
TORSDOF 12
ENDMDL
MODEL       70
REMARK 921   NORMALIZED FREE ENERGY PREDICTED BY IDOCK:   -5.23 KCAL/MOL
REMARK 922        TOTAL FREE ENERGY PREDICTED BY IDOCK:  -11.11 KCAL/MOL
REMARK 923 INTER-LIGAND FREE ENERGY PREDICTED BY IDOCK:   -9.67 KCAL/MOL
REMARK 924 INTRA-LIGAND FREE ENERGY PREDICTED BY IDOCK:   -1.44 KCAL/MOL
REMARK 927      BINDING AFFINITY PREDICTED BY RF-SCORE:    0.00 PKD
ROOT
HETATM    1  C   UNL     1      -9.734   4.400  66.668  1.00  0.00    -0.215 C  
HETATM    2  O   UNL     1      -9.048   4.970  67.778  1.00  0.00    -0.110 OA 
ENDROOT
BRANCH   2   3
HETATM    3  C   UNL     1      -9.762   5.862  68.542  1.00  0.00    -0.126 A  
HETATM    4  C   UNL     1      -9.879   7.246  68.337  1.00  0.00    -0.155 A  
HETATM    5  C   UNL     1     -11.078   6.057  70.581  1.00  0.00    -0.371 A  
HETATM    6  C   UNL     1     -10.609   8.015  69.261  1.00  0.00    -0.193 A  
HETATM    7  C   UNL     1     -11.219   7.436  70.382  1.00  0.00    -0.284 A  
HETATM    8  C   UNL     1     -10.351   5.282  69.672  1.00  0.00    -0.348 A  
BRANCH   4   9
HETATM    9  O   UNL     1      -9.222   7.793  67.267  1.00  0.00    -0.133 OA 
HETATM   10  C   UNL     1      -8.034   8.528  67.525  1.00  0.00    -0.106 C  
ENDBRANCH   4   9
BRANCH   7  11
HETATM   11  C   UNL     1     -11.856   8.334  71.442  1.00  0.00    -0.330 C  
BRANCH  11  12
HETATM   12  C   UNL     1     -11.529   9.783  71.062  1.00  0.00    -0.383 C  
BRANCH  12  13
HETATM   13  N   UNL     1     -12.519  10.708  70.500  1.00  0.00    -0.338 NA 
HETATM   14  C   UNL     1     -12.900  11.765  71.436  1.00  0.00    -0.335 C  
BRANCH  13  15
HETATM   15  C   UNL     1     -12.067  11.291  69.209  1.00  0.00    -0.303 C  
BRANCH  15  16
HETATM   16  C   UNL     1     -11.457  12.727  69.157  1.00  0.00    -0.361 C  
BRANCH  16  17
HETATM   17  C   UNL     1     -11.796  13.535  67.883  1.00  0.00    -0.397 C  
BRANCH  17  18
HETATM   18  C   UNL     1     -10.673  13.858  66.857  1.00  0.00    -0.284 C  
HETATM   19  N   UNL     1      -8.604  12.320  67.540  1.00  0.00    -0.164 NA 
HETATM   20  C   UNL     1     -11.093  13.398  65.379  1.00  0.00    -0.301 C  
HETATM   21  C   UNL     1      -9.496  13.000  67.235  1.00  0.00    -0.224 C  
HETATM   22  C   UNL     1     -12.314  14.103  64.766  1.00  0.00    -0.436 C  
HETATM   23  C   UNL     1     -11.379  11.885  65.270  1.00  0.00    -0.333 C  
BRANCH  18  24
HETATM   24  C   UNL     1     -10.361  15.354  66.968  1.00  0.00    -0.280 A  
HETATM   25  C   UNL     1      -9.364  15.960  66.184  1.00  0.00    -0.385 A  
HETATM   26  C   UNL     1      -8.941  17.274  66.411  1.00  0.00    -0.252 A  
HETATM   27  C   UNL     1     -10.963  16.137  67.970  1.00  0.00    -0.338 A  
HETATM   28  C   UNL     1      -9.552  18.024  67.429  1.00  0.00    -0.272 A  
HETATM   29  C   UNL     1     -10.576  17.455  68.180  1.00  0.00    -0.376 A  
BRANCH  26  30
HETATM   30  O   UNL     1      -7.929  17.881  65.712  1.00  0.00    -0.540 OA 
HETATM   31  C   UNL     1      -6.595  17.588  66.111  1.00  0.00    -0.247 C  
ENDBRANCH  26  30
BRANCH  28  32
HETATM   32  O   UNL     1      -9.064  19.291  67.641  1.00  0.00    -0.292 OA 
HETATM   33  C   UNL     1      -9.880  20.371  67.205  1.00  0.00    -0.456 C  
ENDBRANCH  28  32
ENDBRANCH  18  24
ENDBRANCH  17  18
ENDBRANCH  16  17
ENDBRANCH  15  16
ENDBRANCH  13  15
ENDBRANCH  12  13
ENDBRANCH  11  12
ENDBRANCH   7  11
ENDBRANCH   2   3
TORSDOF 12
ENDMDL
MODEL       71
REMARK 921   NORMALIZED FREE ENERGY PREDICTED BY IDOCK:   -5.22 KCAL/MOL
REMARK 922        TOTAL FREE ENERGY PREDICTED BY IDOCK:  -11.11 KCAL/MOL
REMARK 923 INTER-LIGAND FREE ENERGY PREDICTED BY IDOCK:   -8.87 KCAL/MOL
REMARK 924 INTRA-LIGAND FREE ENERGY PREDICTED BY IDOCK:   -2.24 KCAL/MOL
REMARK 927      BINDING AFFINITY PREDICTED BY RF-SCORE:    0.00 PKD
ROOT
HETATM    1  C   UNL     1     -13.790   9.300  71.957  1.00  0.00    -0.382 C  
HETATM    2  O   UNL     1     -12.726   8.660  72.654  1.00  0.00    -0.365 OA 
ENDROOT
BRANCH   2   3
HETATM    3  C   UNL     1     -11.481   8.752  72.080  1.00  0.00    -0.371 A  
HETATM    4  C   UNL     1     -10.287   8.183  72.554  1.00  0.00    -0.330 A  
HETATM    5  C   UNL     1     -10.250   9.812  70.266  1.00  0.00    -0.346 A  
HETATM    6  C   UNL     1      -9.089   8.433  71.862  1.00  0.00    -0.288 A  
HETATM    7  C   UNL     1      -9.054   9.238  70.716  1.00  0.00    -0.306 A  
HETATM    8  C   UNL     1     -11.448   9.574  70.948  1.00  0.00    -0.405 A  
BRANCH   4   9
HETATM    9  O   UNL     1     -10.342   7.451  73.710  1.00  0.00    -0.348 OA 
HETATM   10  C   UNL     1     -10.355   6.035  73.596  1.00  0.00    -0.256 C  
ENDBRANCH   4   9
BRANCH   7  11
HETATM   11  C   UNL     1      -7.707   9.616  70.100  1.00  0.00    -0.179 C  
BRANCH  11  12
HETATM   12  C   UNL     1      -7.993  10.597  68.955  1.00  0.00    -0.140 C  
BRANCH  12  13
HETATM   13  N   UNL     1      -6.969  11.471  68.374  1.00  0.00    -0.072 NA 
HETATM   14  C   UNL     1      -6.309  10.875  67.214  1.00  0.00    -0.068 C  
BRANCH  13  15
HETATM   15  C   UNL     1      -7.512  12.814  68.034  1.00  0.00    -0.122 C  
BRANCH  15  16
HETATM   16  C   UNL     1      -9.044  13.018  67.817  1.00  0.00    -0.200 C  
BRANCH  16  17
HETATM   17  C   UNL     1      -9.533  12.798  66.367  1.00  0.00    -0.229 C  
BRANCH  17  18
HETATM   18  C   UNL     1     -10.679  11.786  66.088  1.00  0.00    -0.320 C  
HETATM   19  N   UNL     1     -12.202  11.793  68.277  1.00  0.00    -0.408 NA 
HETATM   20  C   UNL     1     -11.622  12.296  64.895  1.00  0.00    -0.395 C  
HETATM   21  C   UNL     1     -11.544  11.776  67.319  1.00  0.00    -0.269 C  
HETATM   22  C   UNL     1     -10.961  12.436  63.514  1.00  0.00    -0.506 C  
HETATM   23  C   UNL     1     -12.287  13.659  65.186  1.00  0.00    -0.486 C  
BRANCH  18  24
HETATM   24  C   UNL     1     -10.035  10.421  65.819  1.00  0.00    -0.334 A  
HETATM   25  C   UNL     1     -10.291   9.309  66.641  1.00  0.00    -0.292 A  
HETATM   26  C   UNL     1      -9.568   8.118  66.521  1.00  0.00    -0.234 A  
HETATM   27  C   UNL     1      -9.050  10.279  64.826  1.00  0.00    -0.256 A  
HETATM   28  C   UNL     1      -8.579   8.015  65.529  1.00  0.00    -0.135 A  
HETATM   29  C   UNL     1      -8.350   9.088  64.674  1.00  0.00    -0.180 A  
BRANCH  26  30
HETATM   30  O   UNL     1      -9.742   7.034  67.343  1.00  0.00    -0.131 OA 
HETATM   31  C   UNL     1     -10.935   6.276  67.178  1.00  0.00    -0.370 C  
ENDBRANCH  26  30
BRANCH  28  32
HETATM   32  O   UNL     1      -7.866   6.841  65.488  1.00  0.00    -0.098 OA 
HETATM   33  C   UNL     1      -6.543   6.880  66.010  1.00  0.00    -0.052 C  
ENDBRANCH  28  32
ENDBRANCH  18  24
ENDBRANCH  17  18
ENDBRANCH  16  17
ENDBRANCH  15  16
ENDBRANCH  13  15
ENDBRANCH  12  13
ENDBRANCH  11  12
ENDBRANCH   7  11
ENDBRANCH   2   3
TORSDOF 12
ENDMDL
MODEL       72
REMARK 921   NORMALIZED FREE ENERGY PREDICTED BY IDOCK:   -5.22 KCAL/MOL
REMARK 922        TOTAL FREE ENERGY PREDICTED BY IDOCK:  -11.11 KCAL/MOL
REMARK 923 INTER-LIGAND FREE ENERGY PREDICTED BY IDOCK:   -9.61 KCAL/MOL
REMARK 924 INTRA-LIGAND FREE ENERGY PREDICTED BY IDOCK:   -1.49 KCAL/MOL
REMARK 927      BINDING AFFINITY PREDICTED BY RF-SCORE:    0.00 PKD
ROOT
HETATM    1  C   UNL     1     -10.869   5.398  72.279  1.00  0.00    -0.227 C  
HETATM    2  O   UNL     1     -11.792   6.267  71.631  1.00  0.00    -0.308 OA 
ENDROOT
BRANCH   2   3
HETATM    3  C   UNL     1     -11.323   6.941  70.529  1.00  0.00    -0.327 A  
HETATM    4  C   UNL     1     -11.001   8.305  70.446  1.00  0.00    -0.239 A  
HETATM    5  C   UNL     1     -10.835   6.686  68.158  1.00  0.00    -0.334 A  
HETATM    6  C   UNL     1     -10.588   8.837  69.211  1.00  0.00    -0.210 A  
HETATM    7  C   UNL     1     -10.494   8.040  68.061  1.00  0.00    -0.243 A  
HETATM    8  C   UNL     1     -11.251   6.146  69.379  1.00  0.00    -0.466 A  
BRANCH   4   9
HETATM    9  O   UNL     1     -11.161   9.070  71.570  1.00  0.00    -0.295 OA 
HETATM   10  C   UNL     1     -12.312   9.899  71.649  1.00  0.00    -0.406 C  
ENDBRANCH   4   9
BRANCH   7  11
HETATM   11  C   UNL     1     -10.203   8.696  66.712  1.00  0.00    -0.361 C  
BRANCH  11  12
HETATM   12  C   UNL     1      -8.844   9.396  66.833  1.00  0.00    -0.127 C  
BRANCH  12  13
HETATM   13  N   UNL     1      -8.622  10.792  66.441  1.00  0.00    -0.152 NA 
HETATM   14  C   UNL     1      -7.209  11.165  66.455  1.00  0.00    -0.094 C  
BRANCH  13  15
HETATM   15  C   UNL     1      -9.233  11.103  65.122  1.00  0.00    -0.189 C  
BRANCH  15  16
HETATM   16  C   UNL     1     -10.280  12.254  64.984  1.00  0.00    -0.312 C  
BRANCH  16  17
HETATM   17  C   UNL     1      -9.937  13.545  65.762  1.00  0.00    -0.266 C  
BRANCH  17  18
HETATM   18  C   UNL     1     -11.013  14.201  66.672  1.00  0.00    -0.303 C  
HETATM   19  N   UNL     1     -13.324  13.934  65.370  1.00  0.00    -0.633 NA 
HETATM   20  C   UNL     1     -11.184  13.386  68.043  1.00  0.00    -0.298 C  
HETATM   21  C   UNL     1     -12.323  14.063  65.946  1.00  0.00    -0.486 C  
HETATM   22  C   UNL     1      -9.956  13.337  68.966  1.00  0.00     0.177 C  
HETATM   23  C   UNL     1     -11.612  11.918  67.828  1.00  0.00    -0.393 C  
BRANCH  18  24
HETATM   24  C   UNL     1     -10.615  15.667  66.877  1.00  0.00    -0.311 A  
HETATM   25  C   UNL     1      -9.583  16.263  66.132  1.00  0.00    -0.362 A  
HETATM   26  C   UNL     1      -9.085  17.533  66.440  1.00  0.00    -0.240 A  
HETATM   27  C   UNL     1     -11.174  16.419  67.926  1.00  0.00    -0.184 A  
HETATM   28  C   UNL     1      -9.655  18.252  67.504  1.00  0.00    -0.280 A  
HETATM   29  C   UNL     1     -10.712  17.697  68.219  1.00  0.00    -0.285 A  
BRANCH  26  30
HETATM   30  O   UNL     1      -8.038  18.124  65.780  1.00  0.00    -0.520 OA 
HETATM   31  C   UNL     1      -6.723  17.751  66.178  1.00  0.00    -0.288 C  
ENDBRANCH  26  30
BRANCH  28  32
HETATM   32  O   UNL     1      -9.095  19.472  67.795  1.00  0.00    -0.306 OA 
HETATM   33  C   UNL     1      -9.888  20.621  67.517  1.00  0.00    -0.344 C  
ENDBRANCH  28  32
ENDBRANCH  18  24
ENDBRANCH  17  18
ENDBRANCH  16  17
ENDBRANCH  15  16
ENDBRANCH  13  15
ENDBRANCH  12  13
ENDBRANCH  11  12
ENDBRANCH   7  11
ENDBRANCH   2   3
TORSDOF 12
ENDMDL
MODEL       73
REMARK 921   NORMALIZED FREE ENERGY PREDICTED BY IDOCK:   -5.22 KCAL/MOL
REMARK 922        TOTAL FREE ENERGY PREDICTED BY IDOCK:  -11.10 KCAL/MOL
REMARK 923 INTER-LIGAND FREE ENERGY PREDICTED BY IDOCK:   -8.87 KCAL/MOL
REMARK 924 INTRA-LIGAND FREE ENERGY PREDICTED BY IDOCK:   -2.23 KCAL/MOL
REMARK 927      BINDING AFFINITY PREDICTED BY RF-SCORE:    0.00 PKD
ROOT
HETATM    1  C   UNL     1     -13.605   9.324  72.154  1.00  0.00    -0.471 C  
HETATM    2  O   UNL     1     -12.504   8.796  72.887  1.00  0.00    -0.264 OA 
ENDROOT
BRANCH   2   3
HETATM    3  C   UNL     1     -11.800   7.783  72.280  1.00  0.00    -0.329 A  
HETATM    4  C   UNL     1     -10.586   7.223  72.710  1.00  0.00    -0.281 A  
HETATM    5  C   UNL     1     -11.749   6.365  70.302  1.00  0.00    -0.389 A  
HETATM    6  C   UNL     1      -9.977   6.227  71.926  1.00  0.00    -0.193 A  
HETATM    7  C   UNL     1     -10.548   5.783  70.725  1.00  0.00    -0.337 A  
HETATM    8  C   UNL     1     -12.363   7.359  71.071  1.00  0.00    -0.303 A  
BRANCH   4   9
HETATM    9  O   UNL     1     -10.021   7.718  73.855  1.00  0.00    -0.161 OA 
HETATM   10  C   UNL     1      -8.604   7.791  73.916  1.00  0.00    -0.259 C  
ENDBRANCH   4   9
BRANCH   7  11
HETATM   11  C   UNL     1      -9.767   4.824  69.827  1.00  0.00    -0.272 C  
BRANCH  11  12
HETATM   12  C   UNL     1      -8.949   5.682  68.853  1.00  0.00    -0.111 C  
BRANCH  12  13
HETATM   13  N   UNL     1      -8.927   5.451  67.404  1.00  0.00    -0.109 NA 
HETATM   14  C   UNL     1      -8.968   4.032  67.058  1.00  0.00    -0.132 C  
BRANCH  13  15
HETATM   15  C   UNL     1     -10.010   6.193  66.706  1.00  0.00    -0.172 C  
BRANCH  15  16
HETATM   16  C   UNL     1     -10.544   7.544  67.279  1.00  0.00    -0.394 C  
BRANCH  16  17
HETATM   17  C   UNL     1     -10.095   8.804  66.505  1.00  0.00    -0.349 C  
BRANCH  17  18
HETATM   18  C   UNL     1      -9.380   9.957  67.264  1.00  0.00    -0.167 C  
HETATM   19  N   UNL     1      -9.470   9.291  69.845  1.00  0.00    -0.183 NA 
HETATM   20  C   UNL     1      -7.824  10.020  66.881  1.00  0.00    -0.106 C  
HETATM   21  C   UNL     1      -9.429   9.596  68.724  1.00  0.00    -0.148 C  
HETATM   22  C   UNL     1      -7.494  10.336  65.413  1.00  0.00    -0.145 C  
HETATM   23  C   UNL     1      -7.060   8.720  67.216  1.00  0.00    -0.079 C  
BRANCH  18  24
HETATM   24  C   UNL     1     -10.139  11.253  66.960  1.00  0.00    -0.238 A  
HETATM   25  C   UNL     1     -11.245  11.275  66.093  1.00  0.00    -0.133 A  
HETATM   26  C   UNL     1     -11.823  12.473  65.660  1.00  0.00    -0.438 A  
HETATM   27  C   UNL     1      -9.656  12.489  67.427  1.00  0.00    -0.192 A  
HETATM   28  C   UNL     1     -11.307  13.691  66.133  1.00  0.00    -0.312 A  
HETATM   29  C   UNL     1     -10.246  13.685  67.032  1.00  0.00    -0.250 A  
BRANCH  26  30
HETATM   30  O   UNL     1     -12.860  12.541  64.766  1.00  0.00    -0.755 OA 
HETATM   31  C   UNL     1     -12.619  12.055  63.451  1.00  0.00    -0.469 C  
ENDBRANCH  26  30
BRANCH  28  32
HETATM   32  O   UNL     1     -11.880  14.838  65.637  1.00  0.00    -0.314 OA 
HETATM   33  C   UNL     1     -11.071  15.638  64.784  1.00  0.00    -0.412 C  
ENDBRANCH  28  32
ENDBRANCH  18  24
ENDBRANCH  17  18
ENDBRANCH  16  17
ENDBRANCH  15  16
ENDBRANCH  13  15
ENDBRANCH  12  13
ENDBRANCH  11  12
ENDBRANCH   7  11
ENDBRANCH   2   3
TORSDOF 12
ENDMDL
MODEL       74
REMARK 921   NORMALIZED FREE ENERGY PREDICTED BY IDOCK:   -5.21 KCAL/MOL
REMARK 922        TOTAL FREE ENERGY PREDICTED BY IDOCK:  -11.09 KCAL/MOL
REMARK 923 INTER-LIGAND FREE ENERGY PREDICTED BY IDOCK:   -9.49 KCAL/MOL
REMARK 924 INTRA-LIGAND FREE ENERGY PREDICTED BY IDOCK:   -1.60 KCAL/MOL
REMARK 927      BINDING AFFINITY PREDICTED BY RF-SCORE:    0.00 PKD
ROOT
HETATM    1  C   UNL     1     -10.598   3.966  64.464  1.00  0.00    -0.185 C  
HETATM    2  O   UNL     1      -9.605   3.845  65.477  1.00  0.00    -0.167 OA 
ENDROOT
BRANCH   2   3
HETATM    3  C   UNL     1      -9.853   4.507  66.655  1.00  0.00    -0.225 A  
HETATM    4  C   UNL     1      -9.461   4.114  67.945  1.00  0.00    -0.167 A  
HETATM    5  C   UNL     1     -11.033   6.416  67.600  1.00  0.00    -0.441 A  
HETATM    6  C   UNL     1      -9.857   4.892  69.047  1.00  0.00    -0.250 A  
HETATM    7  C   UNL     1     -10.637   6.047  68.891  1.00  0.00    -0.356 A  
HETATM    8  C   UNL     1     -10.649   5.647  66.496  1.00  0.00    -0.320 A  
BRANCH   4   9
HETATM    9  O   UNL     1      -8.752   2.949  68.071  1.00  0.00    -0.088 OA 
HETATM   10  C   UNL     1      -9.401   1.842  68.681  1.00  0.00    -0.176 C  
ENDBRANCH   4   9
BRANCH   7  11
HETATM   11  C   UNL     1     -11.181   6.761  70.128  1.00  0.00    -0.387 C  
BRANCH  11  12
HETATM   12  C   UNL     1     -10.574   8.170  70.139  1.00  0.00    -0.237 C  
BRANCH  12  13
HETATM   13  N   UNL     1     -11.373   9.390  69.984  1.00  0.00    -0.192 NA 
HETATM   14  C   UNL     1     -11.822   9.938  71.262  1.00  0.00    -0.395 C  
BRANCH  13  15
HETATM   15  C   UNL     1     -10.659  10.426  69.192  1.00  0.00    -0.228 C  
BRANCH  15  16
HETATM   16  C   UNL     1     -10.670  10.379  67.631  1.00  0.00    -0.335 C  
BRANCH  16  17
HETATM   17  C   UNL     1     -11.203  11.656  66.943  1.00  0.00    -0.376 C  
BRANCH  17  18
HETATM   18  C   UNL     1     -10.230  12.553  66.129  1.00  0.00    -0.269 C  
HETATM   19  N   UNL     1      -7.832  11.407  66.349  1.00  0.00    -0.114 NA 
HETATM   20  C   UNL     1     -10.589  12.524  64.566  1.00  0.00    -0.363 C  
HETATM   21  C   UNL     1      -8.870  11.920  66.249  1.00  0.00    -0.111 C  
HETATM   22  C   UNL     1     -11.964  13.086  64.170  1.00  0.00    -0.494 C  
HETATM   23  C   UNL     1     -10.516  11.110  63.951  1.00  0.00    -0.445 C  
BRANCH  18  24
HETATM   24  C   UNL     1     -10.273  13.958  66.741  1.00  0.00    -0.268 A  
HETATM   25  C   UNL     1     -11.178  14.290  67.763  1.00  0.00    -0.309 A  
HETATM   26  C   UNL     1     -11.358  15.609  68.193  1.00  0.00    -0.340 A  
HETATM   27  C   UNL     1      -9.505  15.000  66.191  1.00  0.00    -0.347 A  
HETATM   28  C   UNL     1     -10.586  16.629  67.613  1.00  0.00    -0.321 A  
HETATM   29  C   UNL     1      -9.648  16.309  66.637  1.00  0.00    -0.264 A  
BRANCH  26  30
HETATM   30  O   UNL     1     -12.275  15.985  69.141  1.00  0.00    -0.221 OA 
HETATM   31  C   UNL     1     -12.156  15.395  70.431  1.00  0.00    -0.372 C  
ENDBRANCH  26  30
BRANCH  28  32
HETATM   32  O   UNL     1     -10.838  17.912  68.038  1.00  0.00    -0.347 OA 
HETATM   33  C   UNL     1      -9.756  18.607  68.646  1.00  0.00    -0.377 C  
ENDBRANCH  28  32
ENDBRANCH  18  24
ENDBRANCH  17  18
ENDBRANCH  16  17
ENDBRANCH  15  16
ENDBRANCH  13  15
ENDBRANCH  12  13
ENDBRANCH  11  12
ENDBRANCH   7  11
ENDBRANCH   2   3
TORSDOF 12
ENDMDL
MODEL       75
REMARK 921   NORMALIZED FREE ENERGY PREDICTED BY IDOCK:   -5.21 KCAL/MOL
REMARK 922        TOTAL FREE ENERGY PREDICTED BY IDOCK:  -11.09 KCAL/MOL
REMARK 923 INTER-LIGAND FREE ENERGY PREDICTED BY IDOCK:   -8.18 KCAL/MOL
REMARK 924 INTRA-LIGAND FREE ENERGY PREDICTED BY IDOCK:   -2.92 KCAL/MOL
REMARK 927      BINDING AFFINITY PREDICTED BY RF-SCORE:    0.00 PKD
ROOT
HETATM    1  C   UNL     1     -14.373   8.388  72.231  1.00  0.00    -0.371 C  
HETATM    2  O   UNL     1     -13.073   8.908  72.492  1.00  0.00    -0.422 OA 
ENDROOT
BRANCH   2   3
HETATM    3  C   UNL     1     -12.447   9.536  71.442  1.00  0.00    -0.362 A  
HETATM    4  C   UNL     1     -11.426   9.013  70.631  1.00  0.00    -0.248 A  
HETATM    5  C   UNL     1     -12.291  11.659  70.261  1.00  0.00    -0.339 A  
HETATM    6  C   UNL     1     -10.861   9.827  69.634  1.00  0.00    -0.274 A  
HETATM    7  C   UNL     1     -11.285  11.148  69.432  1.00  0.00    -0.334 A  
HETATM    8  C   UNL     1     -12.859  10.861  71.259  1.00  0.00    -0.536 A  
BRANCH   4   9
HETATM    9  O   UNL     1     -10.991   7.741  70.891  1.00  0.00    -0.241 OA 
HETATM   10  C   UNL     1     -11.597   6.675  70.174  1.00  0.00    -0.386 C  
ENDBRANCH   4   9
BRANCH   7  11
HETATM   11  C   UNL     1     -10.526  12.042  68.453  1.00  0.00    -0.231 C  
BRANCH  11  12
HETATM   12  C   UNL     1     -11.571  12.709  67.548  1.00  0.00    -0.359 C  
BRANCH  12  13
HETATM   13  N   UNL     1     -11.796  12.311  66.154  1.00  0.00    -0.574 NA 
HETATM   14  C   UNL     1     -12.574  13.296  65.405  1.00  0.00    -0.468 C  
BRANCH  13  15
HETATM   15  C   UNL     1     -10.522  12.004  65.451  1.00  0.00    -0.275 C  
BRANCH  15  16
HETATM   16  C   UNL     1     -10.283  10.595  64.823  1.00  0.00    -0.401 C  
BRANCH  16  17
HETATM   17  C   UNL     1      -8.804  10.150  64.762  1.00  0.00    -0.219 C  
BRANCH  17  18
HETATM   18  C   UNL     1      -8.236   9.218  65.869  1.00  0.00    -0.116 C  
HETATM   19  N   UNL     1     -10.324   7.851  66.807  1.00  0.00    -0.316 NA 
HETATM   20  C   UNL     1      -7.239   8.127  65.248  1.00  0.00    -0.068 C  
HETATM   21  C   UNL     1      -9.406   8.444  66.412  1.00  0.00    -0.214 C  
HETATM   22  C   UNL     1      -5.962   8.667  64.584  1.00  0.00    -0.064 C  
HETATM   23  C   UNL     1      -7.910   7.216  64.197  1.00  0.00    -0.113 C  
BRANCH  18  24
HETATM   24  C   UNL     1      -7.585  10.109  66.934  1.00  0.00    -0.100 A  
HETATM   25  C   UNL     1      -7.510   9.714  68.281  1.00  0.00    -0.077 A  
HETATM   26  C   UNL     1      -7.094  10.591  69.287  1.00  0.00    -0.097 A  
HETATM   27  C   UNL     1      -7.175  11.416  66.618  1.00  0.00    -0.102 A  
HETATM   28  C   UNL     1      -6.706  11.896  68.940  1.00  0.00    -0.095 A  
HETATM   29  C   UNL     1      -6.725  12.286  67.605  1.00  0.00    -0.126 A  
BRANCH  26  30
HETATM   30  O   UNL     1      -7.067  10.267  70.619  1.00  0.00    -0.322 OA 
HETATM   31  C   UNL     1      -7.269   8.901  70.962  1.00  0.00    -0.097 C  
ENDBRANCH  26  30
BRANCH  28  32
HETATM   32  O   UNL     1      -6.354  12.731  69.973  1.00  0.00    -0.097 OA 
HETATM   33  C   UNL     1      -6.344  14.126  69.692  1.00  0.00    -0.131 C  
ENDBRANCH  28  32
ENDBRANCH  18  24
ENDBRANCH  17  18
ENDBRANCH  16  17
ENDBRANCH  15  16
ENDBRANCH  13  15
ENDBRANCH  12  13
ENDBRANCH  11  12
ENDBRANCH   7  11
ENDBRANCH   2   3
TORSDOF 12
ENDMDL
MODEL       76
REMARK 921   NORMALIZED FREE ENERGY PREDICTED BY IDOCK:   -5.21 KCAL/MOL
REMARK 922        TOTAL FREE ENERGY PREDICTED BY IDOCK:  -11.09 KCAL/MOL
REMARK 923 INTER-LIGAND FREE ENERGY PREDICTED BY IDOCK:   -9.41 KCAL/MOL
REMARK 924 INTRA-LIGAND FREE ENERGY PREDICTED BY IDOCK:   -1.68 KCAL/MOL
REMARK 927      BINDING AFFINITY PREDICTED BY RF-SCORE:    0.00 PKD
ROOT
HETATM    1  C   UNL     1     -10.817   5.423  73.538  1.00  0.00    -0.293 C  
HETATM    2  O   UNL     1     -11.764   5.652  72.499  1.00  0.00    -0.297 OA 
ENDROOT
BRANCH   2   3
HETATM    3  C   UNL     1     -11.551   6.760  71.715  1.00  0.00    -0.297 A  
HETATM    4  C   UNL     1     -11.103   6.781  70.384  1.00  0.00    -0.308 A  
HETATM    5  C   UNL     1     -11.529   9.195  71.756  1.00  0.00    -0.452 A  
HETATM    6  C   UNL     1     -10.885   8.020  69.755  1.00  0.00    -0.194 A  
HETATM    7  C   UNL     1     -11.099   9.233  70.424  1.00  0.00    -0.300 A  
HETATM    8  C   UNL     1     -11.745   7.969  72.394  1.00  0.00    -0.444 A  
BRANCH   4   9
HETATM    9  O   UNL     1     -10.846   5.581  69.777  1.00  0.00    -0.331 OA 
HETATM   10  C   UNL     1     -10.257   5.607  68.484  1.00  0.00    -0.193 C  
ENDBRANCH   4   9
BRANCH   7  11
HETATM   11  C   UNL     1     -10.688  10.545  69.756  1.00  0.00    -0.314 C  
BRANCH  11  12
HETATM   12  C   UNL     1     -10.825  10.342  68.241  1.00  0.00    -0.254 C  
BRANCH  12  13
HETATM   13  N   UNL     1      -9.761  10.674  67.287  1.00  0.00    -0.166 NA 
HETATM   14  C   UNL     1     -10.274  11.260  66.051  1.00  0.00    -0.247 C  
BRANCH  13  15
HETATM   15  C   UNL     1      -8.725  11.552  67.893  1.00  0.00    -0.144 C  
BRANCH  15  16
HETATM   16  C   UNL     1      -8.485  12.993  67.342  1.00  0.00    -0.200 C  
BRANCH  16  17
HETATM   17  C   UNL     1      -8.968  14.134  68.266  1.00  0.00    -0.188 C  
BRANCH  17  18
HETATM   18  C   UNL     1      -9.890  15.247  67.693  1.00  0.00    -0.217 C  
HETATM   19  N   UNL     1     -10.233  14.650  65.117  1.00  0.00    -0.394 NA 
HETATM   20  C   UNL     1     -11.349  15.185  68.357  1.00  0.00    -0.326 C  
HETATM   21  C   UNL     1     -10.087  14.925  66.237  1.00  0.00    -0.283 C  
HETATM   22  C   UNL     1     -11.422  15.441  69.871  1.00  0.00    -0.329 C  
HETATM   23  C   UNL     1     -12.069  13.839  68.120  1.00  0.00    -0.316 C  
BRANCH  18  24
HETATM   24  C   UNL     1      -9.180  16.589  67.900  1.00  0.00    -0.211 A  
HETATM   25  C   UNL     1      -9.538  17.735  67.169  1.00  0.00    -0.276 A  
HETATM   26  C   UNL     1      -8.777  18.907  67.210  1.00  0.00    -0.278 A  
HETATM   27  C   UNL     1      -8.044  16.676  68.726  1.00  0.00    -0.247 A  
HETATM   28  C   UNL     1      -7.639  18.956  68.032  1.00  0.00    -0.265 A  
HETATM   29  C   UNL     1      -7.300  17.848  68.802  1.00  0.00    -0.271 A  
BRANCH  26  30
HETATM   30  O   UNL     1      -9.054  20.024  66.464  1.00  0.00    -0.354 OA 
HETATM   31  C   UNL     1     -10.329  20.086  65.833  1.00  0.00    -0.424 C  
ENDBRANCH  26  30
BRANCH  28  32
HETATM   32  O   UNL     1      -6.900  20.115  67.996  1.00  0.00    -0.272 OA 
HETATM   33  C   UNL     1      -5.993  20.327  69.071  1.00  0.00    -0.321 C  
ENDBRANCH  28  32
ENDBRANCH  18  24
ENDBRANCH  17  18
ENDBRANCH  16  17
ENDBRANCH  15  16
ENDBRANCH  13  15
ENDBRANCH  12  13
ENDBRANCH  11  12
ENDBRANCH   7  11
ENDBRANCH   2   3
TORSDOF 12
ENDMDL
MODEL       77
REMARK 921   NORMALIZED FREE ENERGY PREDICTED BY IDOCK:   -5.21 KCAL/MOL
REMARK 922        TOTAL FREE ENERGY PREDICTED BY IDOCK:  -11.08 KCAL/MOL
REMARK 923 INTER-LIGAND FREE ENERGY PREDICTED BY IDOCK:   -9.78 KCAL/MOL
REMARK 924 INTRA-LIGAND FREE ENERGY PREDICTED BY IDOCK:   -1.30 KCAL/MOL
REMARK 927      BINDING AFFINITY PREDICTED BY RF-SCORE:    0.00 PKD
ROOT
HETATM    1  C   UNL     1     -13.653  15.846  73.105  1.00  0.00    -0.499 C  
HETATM    2  O   UNL     1     -13.729  15.469  71.734  1.00  0.00    -0.476 OA 
ENDROOT
BRANCH   2   3
HETATM    3  C   UNL     1     -13.214  14.236  71.413  1.00  0.00    -0.349 A  
HETATM    4  C   UNL     1     -12.362  13.928  70.340  1.00  0.00    -0.363 A  
HETATM    5  C   UNL     1     -13.295  11.878  72.017  1.00  0.00    -0.425 A  
HETATM    6  C   UNL     1     -11.980  12.592  70.130  1.00  0.00    -0.377 A  
HETATM    7  C   UNL     1     -12.432  11.558  70.962  1.00  0.00    -0.458 A  
HETATM    8  C   UNL     1     -13.685  13.204  72.233  1.00  0.00    -0.647 A  
BRANCH   4   9
HETATM    9  O   UNL     1     -11.986  14.950  69.509  1.00  0.00    -0.298 OA 
HETATM   10  C   UNL     1     -11.013  15.868  69.987  1.00  0.00    -0.358 C  
ENDBRANCH   4   9
BRANCH   7  11
HETATM   11  C   UNL     1     -12.126  10.106  70.594  1.00  0.00    -0.411 C  
BRANCH  11  12
HETATM   12  C   UNL     1     -10.620  10.018  70.317  1.00  0.00    -0.295 C  
BRANCH  12  13
HETATM   13  N   UNL     1     -10.063   9.489  69.068  1.00  0.00    -0.186 NA 
HETATM   14  C   UNL     1      -9.601   8.109  69.195  1.00  0.00    -0.157 C  
BRANCH  13  15
HETATM   15  C   UNL     1     -11.018   9.620  67.934  1.00  0.00    -0.145 C  
BRANCH  15  16
HETATM   16  C   UNL     1     -11.137  10.964  67.149  1.00  0.00    -0.308 C  
BRANCH  16  17
HETATM   17  C   UNL     1     -10.839  10.865  65.636  1.00  0.00    -0.112 C  
BRANCH  17  18
HETATM   18  C   UNL     1     -10.527  12.156  64.829  1.00  0.00    -0.332 C  
HETATM   19  N   UNL     1      -9.230  11.348  62.643  1.00  0.00    -0.322 NA 
HETATM   20  C   UNL     1     -11.875  12.851  64.308  1.00  0.00    -0.457 C  
HETATM   21  C   UNL     1      -9.789  11.715  63.594  1.00  0.00    -0.345 C  
HETATM   22  C   UNL     1     -12.841  13.363  65.389  1.00  0.00    -0.388 C  
HETATM   23  C   UNL     1     -12.714  11.939  63.388  1.00  0.00    -0.496 C  
BRANCH  18  24
HETATM   24  C   UNL     1      -9.674  13.065  65.721  1.00  0.00    -0.157 A  
HETATM   25  C   UNL     1      -8.635  12.553  66.518  1.00  0.00     0.022 A  
HETATM   26  C   UNL     1      -7.980  13.337  67.473  1.00  0.00    -0.184 A  
HETATM   27  C   UNL     1     -10.006  14.422  65.882  1.00  0.00    -0.350 A  
HETATM   28  C   UNL     1      -8.346  14.685  67.620  1.00  0.00    -0.177 A  
HETATM   29  C   UNL     1      -9.337  15.220  66.804  1.00  0.00    -0.265 A  
BRANCH  26  30
HETATM   30  O   UNL     1      -7.006  12.861  68.314  1.00  0.00    -0.080 OA 
HETATM   31  C   UNL     1      -6.526  11.543  68.074  1.00  0.00    -0.054 C  
ENDBRANCH  26  30
BRANCH  28  32
HETATM   32  O   UNL     1      -7.706  15.395  68.608  1.00  0.00    -0.129 OA 
HETATM   33  C   UNL     1      -7.597  16.800  68.416  1.00  0.00    -0.205 C  
ENDBRANCH  28  32
ENDBRANCH  18  24
ENDBRANCH  17  18
ENDBRANCH  16  17
ENDBRANCH  15  16
ENDBRANCH  13  15
ENDBRANCH  12  13
ENDBRANCH  11  12
ENDBRANCH   7  11
ENDBRANCH   2   3
TORSDOF 12
ENDMDL
MODEL       78
REMARK 921   NORMALIZED FREE ENERGY PREDICTED BY IDOCK:   -5.21 KCAL/MOL
REMARK 922        TOTAL FREE ENERGY PREDICTED BY IDOCK:  -11.08 KCAL/MOL
REMARK 923 INTER-LIGAND FREE ENERGY PREDICTED BY IDOCK:  -10.09 KCAL/MOL
REMARK 924 INTRA-LIGAND FREE ENERGY PREDICTED BY IDOCK:   -0.99 KCAL/MOL
REMARK 927      BINDING AFFINITY PREDICTED BY RF-SCORE:    0.00 PKD
ROOT
HETATM    1  C   UNL     1     -10.883  19.585  66.954  1.00  0.00    -0.411 C  
HETATM    2  O   UNL     1     -10.216  19.671  68.209  1.00  0.00    -0.420 OA 
ENDROOT
BRANCH   2   3
HETATM    3  C   UNL     1      -9.272  18.706  68.464  1.00  0.00    -0.347 A  
HETATM    4  C   UNL     1      -7.882  18.886  68.561  1.00  0.00    -0.337 A  
HETATM    5  C   UNL     1      -8.976  16.308  68.765  1.00  0.00    -0.243 A  
HETATM    6  C   UNL     1      -7.059  17.765  68.771  1.00  0.00    -0.263 A  
HETATM    7  C   UNL     1      -7.590  16.473  68.881  1.00  0.00    -0.238 A  
HETATM    8  C   UNL     1      -9.804  17.415  68.552  1.00  0.00    -0.320 A  
BRANCH   4   9
HETATM    9  O   UNL     1      -7.388  20.152  68.389  1.00  0.00    -0.285 OA 
HETATM   10  C   UNL     1      -7.379  20.686  67.072  1.00  0.00    -0.316 C  
ENDBRANCH   4   9
BRANCH   7  11
HETATM   11  C   UNL     1      -6.646  15.272  68.939  1.00  0.00    -0.108 C  
BRANCH  11  12
HETATM   12  C   UNL     1      -6.735  14.561  67.583  1.00  0.00    -0.173 C  
BRANCH  12  13
HETATM   13  N   UNL     1      -6.180  13.226  67.339  1.00  0.00    -0.312 NA 
HETATM   14  C   UNL     1      -5.133  12.866  68.294  1.00  0.00    -0.076 C  
BRANCH  13  15
HETATM   15  C   UNL     1      -7.238  12.181  67.304  1.00  0.00    -0.144 C  
BRANCH  15  16
HETATM   16  C   UNL     1      -8.663  12.476  67.869  1.00  0.00    -0.180 C  
BRANCH  16  17
HETATM   17  C   UNL     1      -9.350  11.280  68.566  1.00  0.00    -0.182 C  
BRANCH  17  18
HETATM   18  C   UNL     1     -10.799  10.886  68.165  1.00  0.00    -0.283 C  
HETATM   19  N   UNL     1     -10.641   8.392  67.235  1.00  0.00    -0.298 NA 
HETATM   20  C   UNL     1     -11.754  10.816  69.451  1.00  0.00    -0.378 C  
HETATM   21  C   UNL     1     -10.723   9.481  67.632  1.00  0.00    -0.250 C  
HETATM   22  C   UNL     1     -11.969  12.132  70.215  1.00  0.00    -0.389 C  
HETATM   23  C   UNL     1     -11.284   9.788  70.503  1.00  0.00    -0.381 C  
BRANCH  18  24
HETATM   24  C   UNL     1     -11.273  11.885  67.103  1.00  0.00    -0.377 A  
HETATM   25  C   UNL     1     -10.992  11.701  65.739  1.00  0.00    -0.329 A  
HETATM   26  C   UNL     1     -11.251  12.694  64.789  1.00  0.00    -0.302 A  
HETATM   27  C   UNL     1     -11.878  13.096  67.483  1.00  0.00    -0.409 A  
HETATM   28  C   UNL     1     -11.841  13.899  65.203  1.00  0.00    -0.362 A  
HETATM   29  C   UNL     1     -12.173  14.077  66.542  1.00  0.00    -0.485 A  
BRANCH  26  30
HETATM   30  O   UNL     1     -10.934  12.580  63.459  1.00  0.00    -0.445 OA 
HETATM   31  C   UNL     1      -9.909  11.656  63.111  1.00  0.00    -0.382 C  
ENDBRANCH  26  30
BRANCH  28  32
HETATM   32  O   UNL     1     -12.028  14.859  64.237  1.00  0.00    -0.431 OA 
HETATM   33  C   UNL     1     -11.449  16.135  64.485  1.00  0.00    -0.230 C  
ENDBRANCH  28  32
ENDBRANCH  18  24
ENDBRANCH  17  18
ENDBRANCH  16  17
ENDBRANCH  15  16
ENDBRANCH  13  15
ENDBRANCH  12  13
ENDBRANCH  11  12
ENDBRANCH   7  11
ENDBRANCH   2   3
TORSDOF 12
ENDMDL
MODEL       79
REMARK 921   NORMALIZED FREE ENERGY PREDICTED BY IDOCK:   -5.17 KCAL/MOL
REMARK 922        TOTAL FREE ENERGY PREDICTED BY IDOCK:  -11.03 KCAL/MOL
REMARK 923 INTER-LIGAND FREE ENERGY PREDICTED BY IDOCK:   -9.32 KCAL/MOL
REMARK 924 INTRA-LIGAND FREE ENERGY PREDICTED BY IDOCK:   -1.71 KCAL/MOL
REMARK 927      BINDING AFFINITY PREDICTED BY RF-SCORE:    0.00 PKD
ROOT
HETATM    1  C   UNL     1      -7.663  16.970  66.159  1.00  0.00    -0.257 C  
HETATM    2  O   UNL     1      -9.027  16.715  65.838  1.00  0.00    -0.482 OA 
ENDROOT
BRANCH   2   3
HETATM    3  C   UNL     1      -9.880  16.544  66.902  1.00  0.00    -0.257 A  
HETATM    4  C   UNL     1     -10.227  17.500  67.871  1.00  0.00    -0.350 A  
HETATM    5  C   UNL     1     -11.209  14.877  68.078  1.00  0.00    -0.318 A  
HETATM    6  C   UNL     1     -11.076  17.126  68.927  1.00  0.00     0.070 A  
HETATM    7  C   UNL     1     -11.579  15.822  69.042  1.00  0.00    -0.406 A  
HETATM    8  C   UNL     1     -10.363  15.236  67.024  1.00  0.00    -0.277 A  
BRANCH   4   9
HETATM    9  O   UNL     1      -9.672  18.747  67.766  1.00  0.00    -0.302 OA 
HETATM   10  C   UNL     1      -9.670  19.570  68.925  1.00  0.00    -0.426 C  
ENDBRANCH   4   9
BRANCH   7  11
HETATM   11  C   UNL     1     -12.357  15.422  70.295  1.00  0.00    -0.425 C  
BRANCH  11  12
HETATM   12  C   UNL     1     -12.469  13.892  70.287  1.00  0.00    -0.314 C  
BRANCH  12  13
HETATM   13  N   UNL     1     -12.718  13.099  71.496  1.00  0.00    -0.313 NA 
HETATM   14  C   UNL     1     -13.922  13.521  72.210  1.00  0.00    -0.539 C  
BRANCH  13  15
HETATM   15  C   UNL     1     -12.766  11.641  71.206  1.00  0.00    -0.340 C  
BRANCH  15  16
HETATM   16  C   UNL     1     -12.358  11.099  69.800  1.00  0.00    -0.315 C  
BRANCH  16  17
HETATM   17  C   UNL     1     -10.876  10.679  69.666  1.00  0.00    -0.318 C  
BRANCH  17  18
HETATM   18  C   UNL     1     -10.306  10.307  68.269  1.00  0.00    -0.209 C  
HETATM   19  N   UNL     1     -11.669  11.784  66.515  1.00  0.00    -0.528 NA 
HETATM   20  C   UNL     1      -8.775  10.763  68.131  1.00  0.00    -0.130 C  
HETATM   21  C   UNL     1     -11.071  11.130  67.268  1.00  0.00    -0.302 C  
HETATM   22  C   UNL     1      -7.774  10.092  69.085  1.00  0.00    -0.112 C  
HETATM   23  C   UNL     1      -8.574  12.284  68.308  1.00  0.00    -0.172 C  
BRANCH  18  24
HETATM   24  C   UNL     1     -10.518   8.803  68.067  1.00  0.00    -0.260 A  
HETATM   25  C   UNL     1     -10.750   7.938  69.151  1.00  0.00    -0.130 A  
HETATM   26  C   UNL     1     -10.754   6.548  69.001  1.00  0.00    -0.278 A  
HETATM   27  C   UNL     1     -10.337   8.220  66.800  1.00  0.00    -0.361 A  
HETATM   28  C   UNL     1     -10.554   5.997  67.724  1.00  0.00    -0.267 A  
HETATM   29  C   UNL     1     -10.374   6.840  66.633  1.00  0.00    -0.219 A  
BRANCH  26  30
HETATM   30  O   UNL     1     -10.913   5.668  70.040  1.00  0.00    -0.328 OA 
HETATM   31  C   UNL     1     -11.246   6.215  71.311  1.00  0.00    -0.287 C  
ENDBRANCH  26  30
BRANCH  28  32
HETATM   32  O   UNL     1     -10.518   4.625  67.642  1.00  0.00     0.012 OA 
HETATM   33  C   UNL     1      -9.296   4.044  67.202  1.00  0.00    -0.184 C  
ENDBRANCH  28  32
ENDBRANCH  18  24
ENDBRANCH  17  18
ENDBRANCH  16  17
ENDBRANCH  15  16
ENDBRANCH  13  15
ENDBRANCH  12  13
ENDBRANCH  11  12
ENDBRANCH   7  11
ENDBRANCH   2   3
TORSDOF 12
ENDMDL
MODEL       80
REMARK 921   NORMALIZED FREE ENERGY PREDICTED BY IDOCK:   -5.15 KCAL/MOL
REMARK 922        TOTAL FREE ENERGY PREDICTED BY IDOCK:  -10.98 KCAL/MOL
REMARK 923 INTER-LIGAND FREE ENERGY PREDICTED BY IDOCK:   -9.70 KCAL/MOL
REMARK 924 INTRA-LIGAND FREE ENERGY PREDICTED BY IDOCK:   -1.28 KCAL/MOL
REMARK 927      BINDING AFFINITY PREDICTED BY RF-SCORE:    0.00 PKD
ROOT
HETATM    1  C   UNL     1     -10.713   3.380  73.932  1.00  0.00    -0.216 C  
HETATM    2  O   UNL     1     -10.163   3.746  72.670  1.00  0.00    -0.160 OA 
ENDROOT
BRANCH   2   3
HETATM    3  C   UNL     1     -10.538   4.972  72.176  1.00  0.00    -0.193 A  
HETATM    4  C   UNL     1     -10.559   5.371  70.829  1.00  0.00    -0.223 A  
HETATM    5  C   UNL     1     -11.209   7.215  72.845  1.00  0.00    -0.302 A  
HETATM    6  C   UNL     1     -10.919   6.692  70.512  1.00  0.00    -0.337 A  
HETATM    7  C   UNL     1     -11.251   7.624  71.506  1.00  0.00    -0.277 A  
HETATM    8  C   UNL     1     -10.849   5.904  73.173  1.00  0.00    -0.296 A  
BRANCH   4   9
HETATM    9  O   UNL     1     -10.171   4.457  69.886  1.00  0.00    -0.163 OA 
HETATM   10  C   UNL     1      -9.755   4.950  68.619  1.00  0.00    -0.160 C  
ENDBRANCH   4   9
BRANCH   7  11
HETATM   11  C   UNL     1     -11.470   9.087  71.125  1.00  0.00    -0.376 C  
BRANCH  11  12
HETATM   12  C   UNL     1     -10.280   9.510  70.254  1.00  0.00    -0.260 C  
BRANCH  12  13
HETATM   13  N   UNL     1     -10.431  10.129  68.933  1.00  0.00    -0.198 NA 
HETATM   14  C   UNL     1     -10.457   9.149  67.850  1.00  0.00    -0.237 C  
BRANCH  13  15
HETATM   15  C   UNL     1     -11.625  11.014  68.867  1.00  0.00    -0.314 C  
BRANCH  15  16
HETATM   16  C   UNL     1     -11.469  12.533  68.543  1.00  0.00    -0.346 C  
BRANCH  16  17
HETATM   17  C   UNL     1     -11.716  12.915  67.066  1.00  0.00    -0.447 C  
BRANCH  17  18
HETATM   18  C   UNL     1     -10.533  13.421  66.195  1.00  0.00    -0.295 C  
HETATM   19  N   UNL     1      -8.412  11.995  66.955  1.00  0.00    -0.179 NA 
HETATM   20  C   UNL     1     -10.766  13.071  64.647  1.00  0.00    -0.386 C  
HETATM   21  C   UNL     1      -9.326  12.628  66.618  1.00  0.00    -0.236 C  
HETATM   22  C   UNL     1     -11.979  13.732  63.972  1.00  0.00    -0.451 C  
HETATM   23  C   UNL     1     -10.905  11.557  64.379  1.00  0.00    -0.405 C  
BRANCH  18  24
HETATM   24  C   UNL     1     -10.366  14.921  66.466  1.00  0.00    -0.295 A  
HETATM   25  C   UNL     1      -9.341  15.670  65.864  1.00  0.00    -0.357 A  
HETATM   26  C   UNL     1      -9.062  16.986  66.247  1.00  0.00    -0.246 A  
HETATM   27  C   UNL     1     -11.147  15.560  67.445  1.00  0.00    -0.285 A  
HETATM   28  C   UNL     1      -9.851  17.591  67.240  1.00  0.00    -0.294 A  
HETATM   29  C   UNL     1     -10.902  16.880  67.809  1.00  0.00    -0.281 A  
BRANCH  26  30
HETATM   30  O   UNL     1      -8.032  17.730  65.731  1.00  0.00    -0.544 OA 
HETATM   31  C   UNL     1      -6.709  17.351  66.094  1.00  0.00    -0.227 C  
ENDBRANCH  26  30
BRANCH  28  32
HETATM   32  O   UNL     1      -9.502  18.866  67.614  1.00  0.00    -0.294 OA 
HETATM   33  C   UNL     1     -10.421  19.902  67.285  1.00  0.00    -0.421 C  
ENDBRANCH  28  32
ENDBRANCH  18  24
ENDBRANCH  17  18
ENDBRANCH  16  17
ENDBRANCH  15  16
ENDBRANCH  13  15
ENDBRANCH  12  13
ENDBRANCH  11  12
ENDBRANCH   7  11
ENDBRANCH   2   3
TORSDOF 12
ENDMDL
MODEL       81
REMARK 921   NORMALIZED FREE ENERGY PREDICTED BY IDOCK:   -5.11 KCAL/MOL
REMARK 922        TOTAL FREE ENERGY PREDICTED BY IDOCK:  -10.92 KCAL/MOL
REMARK 923 INTER-LIGAND FREE ENERGY PREDICTED BY IDOCK:   -8.80 KCAL/MOL
REMARK 924 INTRA-LIGAND FREE ENERGY PREDICTED BY IDOCK:   -2.12 KCAL/MOL
REMARK 927      BINDING AFFINITY PREDICTED BY RF-SCORE:    0.00 PKD
ROOT
HETATM    1  C   UNL     1     -12.098   6.662  71.502  1.00  0.00    -0.355 C  
HETATM    2  O   UNL     1     -10.735   6.383  71.198  1.00  0.00    -0.228 OA 
ENDROOT
BRANCH   2   3
HETATM    3  C   UNL     1     -10.362   6.537  69.884  1.00  0.00    -0.191 A  
HETATM    4  C   UNL     1      -9.906   5.536  69.012  1.00  0.00    -0.162 A  
HETATM    5  C   UNL     1      -9.994   8.208  68.151  1.00  0.00    -0.219 A  
HETATM    6  C   UNL     1      -9.510   5.891  67.710  1.00  0.00    -0.114 A  
HETATM    7  C   UNL     1      -9.554   7.219  67.263  1.00  0.00    -0.191 A  
HETATM    8  C   UNL     1     -10.387   7.868  69.450  1.00  0.00    -0.220 A  
BRANCH   4   9
HETATM    9  O   UNL     1      -9.817   4.258  69.496  1.00  0.00    -0.208 OA 
HETATM   10  C   UNL     1      -9.278   3.261  68.637  1.00  0.00    -0.172 C  
ENDBRANCH   4   9
BRANCH   7  11
HETATM   11  C   UNL     1      -8.957   7.577  65.903  1.00  0.00    -0.128 C  
BRANCH  11  12
HETATM   12  C   UNL     1      -7.596   8.234  66.165  1.00  0.00    -0.085 C  
BRANCH  12  13
HETATM   13  N   UNL     1      -7.261   9.591  65.720  1.00  0.00    -0.094 NA 
HETATM   14  C   UNL     1      -6.402   9.601  64.538  1.00  0.00    -0.099 C  
BRANCH  13  15
HETATM   15  C   UNL     1      -8.476  10.417  65.492  1.00  0.00    -0.167 C  
BRANCH  15  16
HETATM   16  C   UNL     1      -8.784  11.644  66.407  1.00  0.00    -0.170 C  
BRANCH  16  17
HETATM   17  C   UNL     1     -10.200  12.243  66.242  1.00  0.00    -0.251 C  
BRANCH  17  18
HETATM   18  C   UNL     1     -10.613  13.480  67.087  1.00  0.00    -0.264 C  
HETATM   19  N   UNL     1      -8.336  14.696  67.754  1.00  0.00    -0.152 NA 
HETATM   20  C   UNL     1     -11.431  14.536  66.200  1.00  0.00    -0.357 C  
HETATM   21  C   UNL     1      -9.335  14.173  67.476  1.00  0.00    -0.204 C  
HETATM   22  C   UNL     1     -12.779  14.056  65.636  1.00  0.00    -0.515 C  
HETATM   23  C   UNL     1     -10.631  15.065  64.990  1.00  0.00    -0.437 C  
BRANCH  18  24
HETATM   24  C   UNL     1     -11.391  12.970  68.306  1.00  0.00    -0.323 A  
HETATM   25  C   UNL     1     -11.811  13.838  69.329  1.00  0.00    -0.392 A  
HETATM   26  C   UNL     1     -12.349  13.361  70.529  1.00  0.00    -0.329 A  
HETATM   27  C   UNL     1     -11.577  11.591  68.508  1.00  0.00    -0.377 A  
HETATM   28  C   UNL     1     -12.507  11.976  70.706  1.00  0.00    -0.279 A  
HETATM   29  C   UNL     1     -12.144  11.108  69.682  1.00  0.00    -0.406 A  
BRANCH  26  30
HETATM   30  O   UNL     1     -12.712  14.168  71.576  1.00  0.00    -0.324 OA 
HETATM   31  C   UNL     1     -13.365  15.393  71.260  1.00  0.00    -0.520 C  
ENDBRANCH  26  30
BRANCH  28  32
HETATM   32  O   UNL     1     -12.994  11.561  71.922  1.00  0.00    -0.440 OA 
HETATM   33  C   UNL     1     -13.214  10.165  72.078  1.00  0.00    -0.430 C  
ENDBRANCH  28  32
ENDBRANCH  18  24
ENDBRANCH  17  18
ENDBRANCH  16  17
ENDBRANCH  15  16
ENDBRANCH  13  15
ENDBRANCH  12  13
ENDBRANCH  11  12
ENDBRANCH   7  11
ENDBRANCH   2   3
TORSDOF 12
ENDMDL
MODEL       82
REMARK 921   NORMALIZED FREE ENERGY PREDICTED BY IDOCK:   -5.11 KCAL/MOL
REMARK 922        TOTAL FREE ENERGY PREDICTED BY IDOCK:  -10.92 KCAL/MOL
REMARK 923 INTER-LIGAND FREE ENERGY PREDICTED BY IDOCK:   -9.64 KCAL/MOL
REMARK 924 INTRA-LIGAND FREE ENERGY PREDICTED BY IDOCK:   -1.28 KCAL/MOL
REMARK 927      BINDING AFFINITY PREDICTED BY RF-SCORE:    0.00 PKD
ROOT
HETATM    1  C   UNL     1     -10.935   6.526  73.317  1.00  0.00    -0.195 C  
HETATM    2  O   UNL     1     -11.896   6.848  72.316  1.00  0.00    -0.279 OA 
ENDROOT
BRANCH   2   3
HETATM    3  C   UNL     1     -11.458   7.643  71.285  1.00  0.00    -0.269 A  
HETATM    4  C   UNL     1     -10.989   7.219  70.030  1.00  0.00    -0.253 A  
HETATM    5  C   UNL     1     -10.966   9.950  70.683  1.00  0.00    -0.405 A  
HETATM    6  C   UNL     1     -10.524   8.179  69.114  1.00  0.00    -0.217 A  
HETATM    7  C   UNL     1     -10.512   9.546  69.422  1.00  0.00    -0.231 A  
HETATM    8  C   UNL     1     -11.428   9.005  71.605  1.00  0.00    -0.431 A  
BRANCH   4   9
HETATM    9  O   UNL     1     -10.957   5.873  69.781  1.00  0.00    -0.349 OA 
HETATM   10  C   UNL     1     -10.332   5.437  68.582  1.00  0.00    -0.158 C  
ENDBRANCH   4   9
BRANCH   7  11
HETATM   11  C   UNL     1      -9.843  10.529  68.462  1.00  0.00    -0.175 C  
BRANCH  11  12
HETATM   12  C   UNL     1     -10.501  10.340  67.090  1.00  0.00    -0.254 C  
BRANCH  12  13
HETATM   13  N   UNL     1     -10.238  11.218  65.945  1.00  0.00    -0.241 NA 
HETATM   14  C   UNL     1     -10.000  10.477  64.708  1.00  0.00    -0.345 C  
BRANCH  13  15
HETATM   15  C   UNL     1     -11.318  12.222  65.754  1.00  0.00    -0.355 C  
BRANCH  15  16
HETATM   16  C   UNL     1     -10.999  13.749  65.806  1.00  0.00    -0.280 C  
BRANCH  16  17
HETATM   17  C   UNL     1     -11.490  14.476  67.079  1.00  0.00    -0.383 C  
BRANCH  17  18
HETATM   18  C   UNL     1     -10.454  15.094  68.059  1.00  0.00    -0.247 C  
HETATM   19  N   UNL     1      -8.339  13.471  67.995  1.00  0.00    -0.156 NA 
HETATM   20  C   UNL     1      -9.933  16.514  67.526  1.00  0.00    -0.255 C  
HETATM   21  C   UNL     1      -9.256  14.183  68.037  1.00  0.00    -0.195 C  
HETATM   22  C   UNL     1     -10.986  17.629  67.413  1.00  0.00    -0.055 C  
HETATM   23  C   UNL     1      -9.251  16.434  66.143  1.00  0.00    -0.365 C  
BRANCH  18  24
HETATM   24  C   UNL     1     -11.107  15.161  69.444  1.00  0.00    -0.283 A  
HETATM   25  C   UNL     1     -12.114  14.259  69.829  1.00  0.00    -0.401 A  
HETATM   26  C   UNL     1     -12.847  14.427  71.008  1.00  0.00    -0.353 A  
HETATM   27  C   UNL     1     -10.822  16.225  70.317  1.00  0.00    -0.257 A  
HETATM   28  C   UNL     1     -12.547  15.510  71.851  1.00  0.00    -0.405 A  
HETATM   29  C   UNL     1     -11.520  16.382  71.510  1.00  0.00    -0.245 A  
BRANCH  26  30
HETATM   30  O   UNL     1     -13.878  13.607  71.389  1.00  0.00    -0.185 OA 
HETATM   31  C   UNL     1     -13.553  12.489  72.207  1.00  0.00    -0.342 C  
ENDBRANCH  26  30
BRANCH  28  32
HETATM   32  O   UNL     1     -13.331  15.656  72.971  1.00  0.00    -0.491 OA 
HETATM   33  C   UNL     1     -12.655  15.715  74.221  1.00  0.00    -0.577 C  
ENDBRANCH  28  32
ENDBRANCH  18  24
ENDBRANCH  17  18
ENDBRANCH  16  17
ENDBRANCH  15  16
ENDBRANCH  13  15
ENDBRANCH  12  13
ENDBRANCH  11  12
ENDBRANCH   7  11
ENDBRANCH   2   3
TORSDOF 12
ENDMDL
MODEL       83
REMARK 921   NORMALIZED FREE ENERGY PREDICTED BY IDOCK:   -5.11 KCAL/MOL
REMARK 922        TOTAL FREE ENERGY PREDICTED BY IDOCK:  -10.92 KCAL/MOL
REMARK 923 INTER-LIGAND FREE ENERGY PREDICTED BY IDOCK:   -8.35 KCAL/MOL
REMARK 924 INTRA-LIGAND FREE ENERGY PREDICTED BY IDOCK:   -2.56 KCAL/MOL
REMARK 927      BINDING AFFINITY PREDICTED BY RF-SCORE:    0.00 PKD
ROOT
HETATM    1  C   UNL     1      -9.022   5.186  65.189  1.00  0.00    -0.126 C  
HETATM    2  O   UNL     1      -9.770   4.280  65.993  1.00  0.00    -0.177 OA 
ENDROOT
BRANCH   2   3
HETATM    3  C   UNL     1      -9.961   4.645  67.304  1.00  0.00    -0.159 A  
HETATM    4  C   UNL     1      -9.519   3.959  68.447  1.00  0.00    -0.147 A  
HETATM    5  C   UNL     1     -11.081   6.276  68.724  1.00  0.00    -0.424 A  
HETATM    6  C   UNL     1      -9.859   4.454  69.718  1.00  0.00    -0.284 A  
HETATM    7  C   UNL     1     -10.633   5.613  69.873  1.00  0.00    -0.399 A  
HETATM    8  C   UNL     1     -10.752   5.791  67.454  1.00  0.00    -0.332 A  
BRANCH   4   9
HETATM    9  O   UNL     1      -8.816   2.797  68.263  1.00  0.00    -0.094 OA 
HETATM   10  C   UNL     1      -9.498   1.570  68.483  1.00  0.00    -0.178 C  
ENDBRANCH   4   9
BRANCH   7  11
HETATM   11  C   UNL     1     -11.117   6.015  71.266  1.00  0.00    -0.337 C  
BRANCH  11  12
HETATM   12  C   UNL     1     -12.247   7.035  71.075  1.00  0.00    -0.374 C  
BRANCH  12  13
HETATM   13  N   UNL     1     -12.089   8.468  71.344  1.00  0.00    -0.297 NA 
HETATM   14  C   UNL     1     -13.169   9.010  72.166  1.00  0.00    -0.446 C  
BRANCH  13  15
HETATM   15  C   UNL     1     -10.766   8.778  71.948  1.00  0.00    -0.359 C  
BRANCH  15  16
HETATM   16  C   UNL     1      -9.588   9.286  71.059  1.00  0.00    -0.329 C  
BRANCH  16  17
HETATM   17  C   UNL     1      -9.901   9.373  69.547  1.00  0.00    -0.192 C  
BRANCH  17  18
HETATM   18  C   UNL     1      -9.069  10.326  68.645  1.00  0.00    -0.152 C  
HETATM   19  N   UNL     1      -6.723  10.627  69.876  1.00  0.00    -0.135 NA 
HETATM   20  C   UNL     1      -8.740   9.641  67.232  1.00  0.00    -0.136 C  
HETATM   21  C   UNL     1      -7.743  10.510  69.331  1.00  0.00    -0.155 C  
HETATM   22  C   UNL     1      -9.944   9.307  66.338  1.00  0.00    -0.356 C  
HETATM   23  C   UNL     1      -7.933   8.331  67.365  1.00  0.00    -0.106 C  
BRANCH  18  24
HETATM   24  C   UNL     1      -9.845  11.642  68.521  1.00  0.00    -0.196 A  
HETATM   25  C   UNL     1      -9.206  12.849  68.188  1.00  0.00    -0.212 A  
HETATM   26  C   UNL     1      -9.864  14.080  68.259  1.00  0.00    -0.233 A  
HETATM   27  C   UNL     1     -11.202  11.707  68.886  1.00  0.00    -0.306 A  
HETATM   28  C   UNL     1     -11.215  14.112  68.642  1.00  0.00    -0.266 A  
HETATM   29  C   UNL     1     -11.877  12.922  68.925  1.00  0.00    -0.352 A  
BRANCH  26  30
HETATM   30  O   UNL     1      -9.260  15.285  68.004  1.00  0.00    -0.185 OA 
HETATM   31  C   UNL     1      -8.342  15.772  68.977  1.00  0.00    -0.236 C  
ENDBRANCH  26  30
BRANCH  28  32
HETATM   32  O   UNL     1     -11.799  15.353  68.744  1.00  0.00    -0.351 OA 
HETATM   33  C   UNL     1     -12.100  15.811  70.057  1.00  0.00    -0.324 C  
ENDBRANCH  28  32
ENDBRANCH  18  24
ENDBRANCH  17  18
ENDBRANCH  16  17
ENDBRANCH  15  16
ENDBRANCH  13  15
ENDBRANCH  12  13
ENDBRANCH  11  12
ENDBRANCH   7  11
ENDBRANCH   2   3
TORSDOF 12
ENDMDL
MODEL       84
REMARK 921   NORMALIZED FREE ENERGY PREDICTED BY IDOCK:   -5.11 KCAL/MOL
REMARK 922        TOTAL FREE ENERGY PREDICTED BY IDOCK:  -10.91 KCAL/MOL
REMARK 923 INTER-LIGAND FREE ENERGY PREDICTED BY IDOCK:   -9.14 KCAL/MOL
REMARK 924 INTRA-LIGAND FREE ENERGY PREDICTED BY IDOCK:   -1.77 KCAL/MOL
REMARK 927      BINDING AFFINITY PREDICTED BY RF-SCORE:    0.00 PKD
ROOT
HETATM    1  C   UNL     1     -12.535  12.029  63.258  1.00  0.00    -0.425 C  
HETATM    2  O   UNL     1     -11.426  12.658  63.892  1.00  0.00    -0.375 OA 
ENDROOT
BRANCH   2   3
HETATM    3  C   UNL     1     -11.397  12.601  65.264  1.00  0.00    -0.315 A  
HETATM    4  C   UNL     1     -10.891  11.558  66.057  1.00  0.00    -0.276 A  
HETATM    5  C   UNL     1     -12.117  13.772  67.274  1.00  0.00    -0.393 A  
HETATM    6  C   UNL     1     -10.998  11.648  67.456  1.00  0.00    -0.312 A  
HETATM    7  C   UNL     1     -11.602  12.749  68.079  1.00  0.00    -0.388 A  
HETATM    8  C   UNL     1     -12.019  13.692  65.881  1.00  0.00    -0.438 A  
BRANCH   4   9
HETATM    9  O   UNL     1     -10.361  10.468  65.418  1.00  0.00    -0.278 OA 
HETATM   10  C   UNL     1      -9.675   9.507  66.209  1.00  0.00    -0.245 C  
ENDBRANCH   4   9
BRANCH   7  11
HETATM   11  C   UNL     1     -11.846  12.721  69.588  1.00  0.00    -0.384 C  
BRANCH  11  12
HETATM   12  C   UNL     1     -11.752  11.257  70.034  1.00  0.00    -0.346 C  
BRANCH  12  13
HETATM   13  N   UNL     1     -12.236  10.781  71.334  1.00  0.00    -0.313 NA 
HETATM   14  C   UNL     1     -13.304  11.617  71.880  1.00  0.00    -0.298 C  
BRANCH  13  15
HETATM   15  C   UNL     1     -12.661   9.357  71.282  1.00  0.00    -0.314 C  
BRANCH  15  16
HETATM   16  C   UNL     1     -12.209   8.354  72.390  1.00  0.00    -0.430 C  
BRANCH  16  17
HETATM   17  C   UNL     1     -11.795   6.956  71.876  1.00  0.00    -0.351 C  
BRANCH  17  18
HETATM   18  C   UNL     1     -10.287   6.616  71.707  1.00  0.00    -0.218 C  
HETATM   19  N   UNL     1      -8.963   8.811  72.442  1.00  0.00    -0.387 NA 
HETATM   20  C   UNL     1      -9.837   5.468  72.732  1.00  0.00    -0.185 C  
HETATM   21  C   UNL     1      -9.527   7.850  72.113  1.00  0.00    -0.177 C  
HETATM   22  C   UNL     1     -10.507   4.095  72.557  1.00  0.00    -0.205 C  
HETATM   23  C   UNL     1     -10.047   5.856  74.212  1.00  0.00    -0.292 C  
BRANCH  18  24
HETATM   24  C   UNL     1     -10.057   6.250  70.236  1.00  0.00    -0.226 A  
HETATM   25  C   UNL     1      -8.766   6.191  69.684  1.00  0.00    -0.135 A  
HETATM   26  C   UNL     1      -8.554   6.048  68.309  1.00  0.00    -0.115 A  
HETATM   27  C   UNL     1     -11.145   6.108  69.357  1.00  0.00    -0.479 A  
HETATM   28  C   UNL     1      -9.663   5.924  67.456  1.00  0.00    -0.115 A  
HETATM   29  C   UNL     1     -10.946   5.929  67.993  1.00  0.00    -0.252 A  
BRANCH  26  30
HETATM   30  O   UNL     1      -7.314   6.049  67.723  1.00  0.00    -0.074 OA 
HETATM   31  C   UNL     1      -6.562   7.255  67.794  1.00  0.00    -0.053 C  
ENDBRANCH  26  30
BRANCH  28  32
HETATM   32  O   UNL     1      -9.400   5.836  66.110  1.00  0.00    -0.159 OA 
HETATM   33  C   UNL     1      -9.563   4.556  65.510  1.00  0.00    -0.185 C  
ENDBRANCH  28  32
ENDBRANCH  18  24
ENDBRANCH  17  18
ENDBRANCH  16  17
ENDBRANCH  15  16
ENDBRANCH  13  15
ENDBRANCH  12  13
ENDBRANCH  11  12
ENDBRANCH   7  11
ENDBRANCH   2   3
TORSDOF 12
ENDMDL
MODEL       85
REMARK 921   NORMALIZED FREE ENERGY PREDICTED BY IDOCK:   -5.08 KCAL/MOL
REMARK 922        TOTAL FREE ENERGY PREDICTED BY IDOCK:  -10.86 KCAL/MOL
REMARK 923 INTER-LIGAND FREE ENERGY PREDICTED BY IDOCK:   -9.03 KCAL/MOL
REMARK 924 INTRA-LIGAND FREE ENERGY PREDICTED BY IDOCK:   -1.83 KCAL/MOL
REMARK 927      BINDING AFFINITY PREDICTED BY RF-SCORE:    0.00 PKD
ROOT
HETATM    1  C   UNL     1     -10.142  17.289  68.824  1.00  0.00    -0.337 C  
HETATM    2  O   UNL     1     -11.353  16.614  68.499  1.00  0.00    -0.317 OA 
ENDROOT
BRANCH   2   3
HETATM    3  C   UNL     1     -11.691  15.551  69.302  1.00  0.00    -0.365 A  
HETATM    4  C   UNL     1     -11.638  14.188  68.967  1.00  0.00    -0.304 A  
HETATM    5  C   UNL     1     -12.641  14.976  71.469  1.00  0.00    -0.410 A  
HETATM    6  C   UNL     1     -12.081  13.236  69.902  1.00  0.00    -0.377 A  
HETATM    7  C   UNL     1     -12.578  13.613  71.157  1.00  0.00    -0.452 A  
HETATM    8  C   UNL     1     -12.206  15.933  70.545  1.00  0.00    -0.314 A  
BRANCH   4   9
HETATM    9  O   UNL     1     -11.204  13.854  67.711  1.00  0.00    -0.273 OA 
HETATM   10  C   UNL     1     -12.141  13.930  66.646  1.00  0.00    -0.448 C  
ENDBRANCH   4   9
BRANCH   7  11
HETATM   11  C   UNL     1     -13.202  12.557  72.069  1.00  0.00    -0.524 C  
BRANCH  11  12
HETATM   12  C   UNL     1     -12.995  11.196  71.391  1.00  0.00    -0.403 C  
BRANCH  12  13
HETATM   13  N   UNL     1     -12.700   9.966  72.134  1.00  0.00    -0.345 NA 
HETATM   14  C   UNL     1     -13.789   8.993  72.072  1.00  0.00    -0.444 C  
BRANCH  13  15
HETATM   15  C   UNL     1     -11.419   9.347  71.699  1.00  0.00    -0.393 C  
BRANCH  15  16
HETATM   16  C   UNL     1     -10.574   9.993  70.557  1.00  0.00    -0.313 C  
BRANCH  16  17
HETATM   17  C   UNL     1      -9.577   9.038  69.861  1.00  0.00    -0.193 C  
BRANCH  17  18
HETATM   18  C   UNL     1      -9.523   8.982  68.309  1.00  0.00    -0.156 C  
HETATM   19  N   UNL     1     -11.493  10.564  67.458  1.00  0.00    -0.390 NA 
HETATM   20  C   UNL     1      -8.166   9.633  67.756  1.00  0.00    -0.114 C  
HETATM   21  C   UNL     1     -10.635   9.867  67.815  1.00  0.00    -0.261 C  
HETATM   22  C   UNL     1      -6.858   8.931  68.157  1.00  0.00    -0.069 C  
HETATM   23  C   UNL     1      -7.993  11.114  68.158  1.00  0.00    -0.125 C  
BRANCH  18  24
HETATM   24  C   UNL     1      -9.716   7.519  67.891  1.00  0.00    -0.170 A  
HETATM   25  C   UNL     1      -9.828   6.489  68.841  1.00  0.00    -0.142 A  
HETATM   26  C   UNL     1      -9.811   5.140  68.474  1.00  0.00    -0.155 A  
HETATM   27  C   UNL     1      -9.637   7.148  66.537  1.00  0.00    -0.203 A  
HETATM   28  C   UNL     1      -9.715   4.801  67.113  1.00  0.00    -0.184 A  
HETATM   29  C   UNL     1      -9.656   5.810  66.158  1.00  0.00    -0.126 A  
BRANCH  26  30
HETATM   30  O   UNL     1      -9.854   4.104  69.372  1.00  0.00    -0.197 OA 
HETATM   31  C   UNL     1      -9.876   4.441  70.754  1.00  0.00    -0.203 C  
ENDBRANCH  26  30
BRANCH  28  32
HETATM   32  O   UNL     1      -9.653   3.462  66.814  1.00  0.00    -0.173 OA 
HETATM   33  C   UNL     1      -9.082   3.114  65.558  1.00  0.00    -0.151 C  
ENDBRANCH  28  32
ENDBRANCH  18  24
ENDBRANCH  17  18
ENDBRANCH  16  17
ENDBRANCH  15  16
ENDBRANCH  13  15
ENDBRANCH  12  13
ENDBRANCH  11  12
ENDBRANCH   7  11
ENDBRANCH   2   3
TORSDOF 12
ENDMDL
MODEL       86
REMARK 921   NORMALIZED FREE ENERGY PREDICTED BY IDOCK:   -5.07 KCAL/MOL
REMARK 922        TOTAL FREE ENERGY PREDICTED BY IDOCK:  -10.85 KCAL/MOL
REMARK 923 INTER-LIGAND FREE ENERGY PREDICTED BY IDOCK:   -8.74 KCAL/MOL
REMARK 924 INTRA-LIGAND FREE ENERGY PREDICTED BY IDOCK:   -2.11 KCAL/MOL
REMARK 927      BINDING AFFINITY PREDICTED BY RF-SCORE:    0.00 PKD
ROOT
HETATM    1  C   UNL     1     -14.363   7.930  71.706  1.00  0.00    -0.475 C  
HETATM    2  O   UNL     1     -13.526   8.959  72.223  1.00  0.00    -0.402 OA 
ENDROOT
BRANCH   2   3
HETATM    3  C   UNL     1     -12.250   9.019  71.716  1.00  0.00    -0.364 A  
HETATM    4  C   UNL     1     -11.735   9.984  70.835  1.00  0.00    -0.374 A  
HETATM    5  C   UNL     1     -10.135   7.816  71.627  1.00  0.00    -0.224 A  
HETATM    6  C   UNL     1     -10.414   9.852  70.372  1.00  0.00    -0.347 A  
HETATM    7  C   UNL     1      -9.601   8.779  70.762  1.00  0.00    -0.256 A  
HETATM    8  C   UNL     1     -11.449   7.934  72.092  1.00  0.00    -0.377 A  
BRANCH   4   9
HETATM    9  O   UNL     1     -12.572  10.987  70.424  1.00  0.00    -0.304 OA 
HETATM   10  C   UNL     1     -12.719  12.116  71.273  1.00  0.00    -0.261 C  
ENDBRANCH   4   9
BRANCH   7  11
HETATM   11  C   UNL     1      -8.235   8.589  70.103  1.00  0.00    -0.121 C  
BRANCH  11  12
HETATM   12  C   UNL     1      -7.352   9.763  70.545  1.00  0.00    -0.112 C  
BRANCH  12  13
HETATM   13  N   UNL     1      -6.630  10.624  69.602  1.00  0.00    -0.090 NA 
HETATM   14  C   UNL     1      -5.700  11.534  70.267  1.00  0.00    -0.148 C  
BRANCH  13  15
HETATM   15  C   UNL     1      -5.931   9.835  68.553  1.00  0.00    -0.042 C  
BRANCH  15  16
HETATM   16  C   UNL     1      -6.434   9.860  67.075  1.00  0.00    -0.069 C  
BRANCH  16  17
HETATM   17  C   UNL     1      -7.866  10.409  66.882  1.00  0.00    -0.114 C  
BRANCH  17  18
HETATM   18  C   UNL     1      -8.685   9.995  65.627  1.00  0.00    -0.171 C  
HETATM   19  N   UNL     1      -6.894   9.604  63.691  1.00  0.00    -0.106 NA 
HETATM   20  C   UNL     1      -9.406   8.580  65.851  1.00  0.00    -0.231 C  
HETATM   21  C   UNL     1      -7.686   9.777  64.523  1.00  0.00    -0.137 C  
HETATM   22  C   UNL     1     -10.461   8.520  66.968  1.00  0.00    -0.362 C  
HETATM   23  C   UNL     1      -8.416   7.431  66.141  1.00  0.00    -0.147 C  
BRANCH  18  24
HETATM   24  C   UNL     1      -9.659  11.136  65.312  1.00  0.00    -0.268 A  
HETATM   25  C   UNL     1      -9.881  12.189  66.216  1.00  0.00    -0.250 A  
HETATM   26  C   UNL     1     -10.900  13.126  66.025  1.00  0.00    -0.272 A  
HETATM   27  C   UNL     1     -10.473  11.083  64.166  1.00  0.00    -0.434 A  
HETATM   28  C   UNL     1     -11.707  13.036  64.878  1.00  0.00    -0.341 A  
HETATM   29  C   UNL     1     -11.466  12.031  63.948  1.00  0.00    -0.518 A  
BRANCH  26  30
HETATM   30  O   UNL     1     -11.192  14.130  66.914  1.00  0.00    -0.300 OA 
HETATM   31  C   UNL     1     -11.837  13.758  68.127  1.00  0.00    -0.376 C  
ENDBRANCH  26  30
BRANCH  28  32
HETATM   32  O   UNL     1     -12.725  13.953  64.766  1.00  0.00    -0.650 OA 
HETATM   33  C   UNL     1     -12.395  15.204  64.176  1.00  0.00    -0.094 C  
ENDBRANCH  28  32
ENDBRANCH  18  24
ENDBRANCH  17  18
ENDBRANCH  16  17
ENDBRANCH  15  16
ENDBRANCH  13  15
ENDBRANCH  12  13
ENDBRANCH  11  12
ENDBRANCH   7  11
ENDBRANCH   2   3
TORSDOF 12
ENDMDL
MODEL       87
REMARK 921   NORMALIZED FREE ENERGY PREDICTED BY IDOCK:   -5.06 KCAL/MOL
REMARK 922        TOTAL FREE ENERGY PREDICTED BY IDOCK:  -10.84 KCAL/MOL
REMARK 923 INTER-LIGAND FREE ENERGY PREDICTED BY IDOCK:   -8.70 KCAL/MOL
REMARK 924 INTRA-LIGAND FREE ENERGY PREDICTED BY IDOCK:   -2.14 KCAL/MOL
REMARK 927      BINDING AFFINITY PREDICTED BY RF-SCORE:    0.00 PKD
ROOT
HETATM    1  C   UNL     1     -13.267   7.190  71.651  1.00  0.00    -0.346 C  
HETATM    2  O   UNL     1     -12.583   8.306  72.212  1.00  0.00    -0.334 OA 
ENDROOT
BRANCH   2   3
HETATM    3  C   UNL     1     -11.556   8.829  71.464  1.00  0.00    -0.303 A  
HETATM    4  C   UNL     1     -11.602   9.967  70.641  1.00  0.00    -0.335 A  
HETATM    5  C   UNL     1      -9.257   8.425  70.767  1.00  0.00    -0.186 A  
HETATM    6  C   UNL     1     -10.461  10.322  69.900  1.00  0.00    -0.304 A  
HETATM    7  C   UNL     1      -9.282   9.566  69.956  1.00  0.00    -0.264 A  
HETATM    8  C   UNL     1     -10.387   8.060  71.507  1.00  0.00    -0.258 A  
BRANCH   4   9
HETATM    9  O   UNL     1     -12.786  10.649  70.560  1.00  0.00    -0.349 OA 
HETATM   10  C   UNL     1     -13.001  11.713  71.477  1.00  0.00    -0.358 C  
ENDBRANCH   4   9
BRANCH   7  11
HETATM   11  C   UNL     1      -8.130   9.895  69.007  1.00  0.00    -0.111 C  
BRANCH  11  12
HETATM   12  C   UNL     1      -7.103  10.707  69.806  1.00  0.00    -0.139 C  
BRANCH  12  13
HETATM   13  N   UNL     1      -6.708  12.074  69.451  1.00  0.00    -0.099 NA 
HETATM   14  C   UNL     1      -5.456  12.484  70.085  1.00  0.00    -0.126 C  
BRANCH  13  15
HETATM   15  C   UNL     1      -6.638  12.268  67.978  1.00  0.00    -0.076 C  
BRANCH  15  16
HETATM   16  C   UNL     1      -7.761  13.049  67.226  1.00  0.00    -0.112 C  
BRANCH  16  17
HETATM   17  C   UNL     1      -8.894  13.592  68.127  1.00  0.00    -0.179 C  
BRANCH  17  18
HETATM   18  C   UNL     1      -9.896  14.634  67.556  1.00  0.00    -0.218 C  
HETATM   19  N   UNL     1     -10.272  13.956  65.004  1.00  0.00    -0.377 NA 
HETATM   20  C   UNL     1     -11.330  14.502  68.261  1.00  0.00    -0.319 C  
HETATM   21  C   UNL     1     -10.113  14.266  66.113  1.00  0.00    -0.313 C  
HETATM   22  C   UNL     1     -11.378  14.789  69.771  1.00  0.00    -0.319 C  
HETATM   23  C   UNL     1     -11.974  13.111  68.075  1.00  0.00    -0.345 C  
BRANCH  18  24
HETATM   24  C   UNL     1      -9.262  16.021  67.713  1.00  0.00    -0.205 A  
HETATM   25  C   UNL     1      -9.545  17.068  66.819  1.00  0.00    -0.274 A  
HETATM   26  C   UNL     1      -8.832  18.271  66.837  1.00  0.00    -0.275 A  
HETATM   27  C   UNL     1      -8.258  16.242  68.672  1.00  0.00    -0.214 A  
HETATM   28  C   UNL     1      -7.825  18.454  67.799  1.00  0.00    -0.241 A  
HETATM   29  C   UNL     1      -7.567  17.447  68.723  1.00  0.00    -0.252 A  
BRANCH  26  30
HETATM   30  O   UNL     1      -9.034  19.291  65.944  1.00  0.00    -0.434 OA 
HETATM   31  C   UNL     1     -10.345  19.840  65.867  1.00  0.00    -0.483 C  
ENDBRANCH  26  30
BRANCH  28  32
HETATM   32  O   UNL     1      -7.123  19.634  67.740  1.00  0.00    -0.243 OA 
HETATM   33  C   UNL     1      -6.362  19.982  68.891  1.00  0.00    -0.310 C  
ENDBRANCH  28  32
ENDBRANCH  18  24
ENDBRANCH  17  18
ENDBRANCH  16  17
ENDBRANCH  15  16
ENDBRANCH  13  15
ENDBRANCH  12  13
ENDBRANCH  11  12
ENDBRANCH   7  11
ENDBRANCH   2   3
TORSDOF 12
ENDMDL
MODEL       88
REMARK 921   NORMALIZED FREE ENERGY PREDICTED BY IDOCK:   -5.06 KCAL/MOL
REMARK 922        TOTAL FREE ENERGY PREDICTED BY IDOCK:  -10.84 KCAL/MOL
REMARK 923 INTER-LIGAND FREE ENERGY PREDICTED BY IDOCK:   -8.99 KCAL/MOL
REMARK 924 INTRA-LIGAND FREE ENERGY PREDICTED BY IDOCK:   -1.84 KCAL/MOL
REMARK 927      BINDING AFFINITY PREDICTED BY RF-SCORE:    0.00 PKD
ROOT
HETATM    1  C   UNL     1     -10.720   7.242  73.082  1.00  0.00    -0.365 C  
HETATM    2  O   UNL     1     -11.607   7.202  71.968  1.00  0.00    -0.265 OA 
ENDROOT
BRANCH   2   3
HETATM    3  C   UNL     1     -11.249   7.959  70.879  1.00  0.00    -0.270 A  
HETATM    4  C   UNL     1     -10.633   7.508  69.701  1.00  0.00    -0.239 A  
HETATM    5  C   UNL     1     -11.134  10.248  70.056  1.00  0.00    -0.373 A  
HETATM    6  C   UNL     1     -10.286   8.442  68.709  1.00  0.00    -0.223 A  
HETATM    7  C   UNL     1     -10.534   9.812  68.868  1.00  0.00    -0.233 A  
HETATM    8  C   UNL     1     -11.480   9.329  71.052  1.00  0.00    -0.387 A  
BRANCH   4   9
HETATM    9  O   UNL     1     -10.348   6.172  69.599  1.00  0.00    -0.184 OA 
HETATM   10  C   UNL     1     -10.321   5.598  68.300  1.00  0.00    -0.194 C  
ENDBRANCH   4   9
BRANCH   7  11
HETATM   11  C   UNL     1      -9.988  10.802  67.840  1.00  0.00    -0.196 C  
BRANCH  11  12
HETATM   12  C   UNL     1     -10.201  10.178  66.455  1.00  0.00    -0.223 C  
BRANCH  12  13
HETATM   13  N   UNL     1      -9.620  10.733  65.227  1.00  0.00    -0.211 NA 
HETATM   14  C   UNL     1      -9.003   9.711  64.383  1.00  0.00    -0.234 C  
BRANCH  13  15
HETATM   15  C   UNL     1     -10.611  11.525  64.452  1.00  0.00    -0.334 C  
BRANCH  15  16
HETATM   16  C   UNL     1     -10.356  13.035  64.147  1.00  0.00    -0.345 C  
BRANCH  16  17
HETATM   17  C   UNL     1      -9.922  13.883  65.364  1.00  0.00    -0.274 C  
BRANCH  17  18
HETATM   18  C   UNL     1     -10.810  15.072  65.827  1.00  0.00    -0.355 C  
HETATM   19  N   UNL     1     -12.541  15.498  63.844  1.00  0.00    -0.592 NA 
HETATM   20  C   UNL     1     -11.694  14.669  67.103  1.00  0.00    -0.392 C  
HETATM   21  C   UNL     1     -11.789  15.327  64.713  1.00  0.00    -0.232 C  
HETATM   22  C   UNL     1     -10.922  14.315  68.384  1.00  0.00    -0.267 C  
HETATM   23  C   UNL     1     -12.641  13.479  66.836  1.00  0.00     0.035 C  
BRANCH  18  24
HETATM   24  C   UNL     1      -9.886  16.270  66.074  1.00  0.00    -0.371 A  
HETATM   25  C   UNL     1      -8.490  16.126  66.134  1.00  0.00    -0.288 A  
HETATM   26  C   UNL     1      -7.655  17.170  66.547  1.00  0.00    -0.285 A  
HETATM   27  C   UNL     1     -10.423  17.529  66.399  1.00  0.00    -0.277 A  
HETATM   28  C   UNL     1      -8.223  18.410  66.879  1.00  0.00    -0.247 A  
HETATM   29  C   UNL     1      -9.599  18.584  66.776  1.00  0.00    -0.329 A  
BRANCH  26  30
HETATM   30  O   UNL     1      -6.295  17.052  66.680  1.00  0.00    -0.192 OA 
HETATM   31  C   UNL     1      -5.811  16.299  67.786  1.00  0.00    -0.139 C  
ENDBRANCH  26  30
BRANCH  28  32
HETATM   32  O   UNL     1      -7.362  19.384  67.326  1.00  0.00    -0.219 OA 
HETATM   33  C   UNL     1      -7.472  19.754  68.695  1.00  0.00    -0.294 C  
ENDBRANCH  28  32
ENDBRANCH  18  24
ENDBRANCH  17  18
ENDBRANCH  16  17
ENDBRANCH  15  16
ENDBRANCH  13  15
ENDBRANCH  12  13
ENDBRANCH  11  12
ENDBRANCH   7  11
ENDBRANCH   2   3
TORSDOF 12
ENDMDL
MODEL       89
REMARK 921   NORMALIZED FREE ENERGY PREDICTED BY IDOCK:   -5.06 KCAL/MOL
REMARK 922        TOTAL FREE ENERGY PREDICTED BY IDOCK:  -10.83 KCAL/MOL
REMARK 923 INTER-LIGAND FREE ENERGY PREDICTED BY IDOCK:   -9.39 KCAL/MOL
REMARK 924 INTRA-LIGAND FREE ENERGY PREDICTED BY IDOCK:   -1.44 KCAL/MOL
REMARK 927      BINDING AFFINITY PREDICTED BY RF-SCORE:    0.00 PKD
ROOT
HETATM    1  C   UNL     1     -10.861   6.464  71.851  1.00  0.00    -0.240 C  
HETATM    2  O   UNL     1     -11.226   6.226  70.495  1.00  0.00    -0.312 OA 
ENDROOT
BRANCH   2   3
HETATM    3  C   UNL     1     -10.814   7.165  69.581  1.00  0.00    -0.234 A  
HETATM    4  C   UNL     1     -10.455   6.941  68.241  1.00  0.00    -0.206 A  
HETATM    5  C   UNL     1     -10.235   9.517  69.337  1.00  0.00    -0.215 A  
HETATM    6  C   UNL     1      -9.999   8.021  67.465  1.00  0.00    -0.253 A  
HETATM    7  C   UNL     1      -9.889   9.314  67.995  1.00  0.00    -0.191 A  
HETATM    8  C   UNL     1     -10.686   8.450  70.120  1.00  0.00    -0.238 A  
BRANCH   4   9
HETATM    9  O   UNL     1     -10.515   5.657  67.769  1.00  0.00    -0.208 OA 
HETATM   10  C   UNL     1     -10.312   5.453  66.378  1.00  0.00    -0.247 C  
ENDBRANCH   4   9
BRANCH   7  11
HETATM   11  C   UNL     1      -9.232  10.416  67.165  1.00  0.00    -0.159 C  
BRANCH  11  12
HETATM   12  C   UNL     1      -9.590  10.150  65.697  1.00  0.00    -0.243 C  
BRANCH  12  13
HETATM   13  N   UNL     1      -9.154  11.014  64.595  1.00  0.00    -0.164 NA 
HETATM   14  C   UNL     1      -8.310  10.314  63.628  1.00  0.00    -0.169 C  
BRANCH  13  15
HETATM   15  C   UNL     1     -10.302  11.667  63.912  1.00  0.00    -0.369 C  
BRANCH  15  16
HETATM   16  C   UNL     1     -10.494  13.214  63.988  1.00  0.00    -0.258 C  
BRANCH  16  17
HETATM   17  C   UNL     1      -9.935  13.880  65.266  1.00  0.00    -0.266 C  
BRANCH  17  18
HETATM   18  C   UNL     1     -10.772  14.968  65.994  1.00  0.00    -0.329 C  
HETATM   19  N   UNL     1     -11.778  16.516  64.070  1.00  0.00    -1.064 NA 
HETATM   20  C   UNL     1     -12.034  14.320  66.742  1.00  0.00    -0.462 C  
HETATM   21  C   UNL     1     -11.342  15.854  64.919  1.00  0.00    -0.256 C  
HETATM   22  C   UNL     1     -11.722  13.330  67.875  1.00  0.00    -0.395 C  
HETATM   23  C   UNL     1     -12.994  13.580  65.785  1.00  0.00    -0.166 C  
BRANCH  18  24
HETATM   24  C   UNL     1      -9.828  15.729  66.933  1.00  0.00    -0.243 A  
HETATM   25  C   UNL     1     -10.248  16.871  67.635  1.00  0.00    -0.306 A  
HETATM   26  C   UNL     1      -9.350  17.679  68.340  1.00  0.00    -0.289 A  
HETATM   27  C   UNL     1      -8.465  15.390  67.002  1.00  0.00    -0.262 A  
HETATM   28  C   UNL     1      -7.992  17.321  68.377  1.00  0.00    -0.253 A  
HETATM   29  C   UNL     1      -7.569  16.165  67.729  1.00  0.00    -0.154 A  
BRANCH  26  30
HETATM   30  O   UNL     1      -9.707  18.836  68.985  1.00  0.00    -0.350 OA 
HETATM   31  C   UNL     1     -10.280  19.871  68.195  1.00  0.00    -0.432 C  
ENDBRANCH  26  30
BRANCH  28  32
HETATM   32  O   UNL     1      -7.146  18.177  69.041  1.00  0.00    -0.271 OA 
HETATM   33  C   UNL     1      -5.764  17.840  69.035  1.00  0.00    -0.188 C  
ENDBRANCH  28  32
ENDBRANCH  18  24
ENDBRANCH  17  18
ENDBRANCH  16  17
ENDBRANCH  15  16
ENDBRANCH  13  15
ENDBRANCH  12  13
ENDBRANCH  11  12
ENDBRANCH   7  11
ENDBRANCH   2   3
TORSDOF 12
ENDMDL
MODEL       90
REMARK 921   NORMALIZED FREE ENERGY PREDICTED BY IDOCK:   -5.04 KCAL/MOL
REMARK 922        TOTAL FREE ENERGY PREDICTED BY IDOCK:  -10.81 KCAL/MOL
REMARK 923 INTER-LIGAND FREE ENERGY PREDICTED BY IDOCK:   -9.05 KCAL/MOL
REMARK 924 INTRA-LIGAND FREE ENERGY PREDICTED BY IDOCK:   -1.75 KCAL/MOL
REMARK 927      BINDING AFFINITY PREDICTED BY RF-SCORE:    0.00 PKD
ROOT
HETATM    1  C   UNL     1     -10.468   7.261  73.773  1.00  0.00    -0.288 C  
HETATM    2  O   UNL     1     -10.281   6.820  72.432  1.00  0.00    -0.178 OA 
ENDROOT
BRANCH   2   3
HETATM    3  C   UNL     1     -10.558   7.736  71.446  1.00  0.00    -0.213 A  
HETATM    4  C   UNL     1     -10.139   7.689  70.106  1.00  0.00    -0.199 A  
HETATM    5  C   UNL     1     -11.603   9.897  71.039  1.00  0.00    -0.470 A  
HETATM    6  C   UNL     1     -10.473   8.752  69.248  1.00  0.00    -0.228 A  
HETATM    7  C   UNL     1     -11.207   9.858  69.696  1.00  0.00    -0.251 A  
HETATM    8  C   UNL     1     -11.274   8.848  71.904  1.00  0.00    -0.447 A  
BRANCH   4   9
HETATM    9  O   UNL     1      -9.372   6.626  69.712  1.00  0.00    -0.145 OA 
HETATM   10  C   UNL     1      -8.051   6.894  69.261  1.00  0.00    -0.120 C  
ENDBRANCH   4   9
BRANCH   7  11
HETATM   11  C   UNL     1     -11.399  11.061  68.773  1.00  0.00    -0.349 C  
BRANCH  11  12
HETATM   12  C   UNL     1     -10.979  10.620  67.365  1.00  0.00    -0.298 C  
BRANCH  12  13
HETATM   13  N   UNL     1      -9.707  11.010  66.747  1.00  0.00    -0.190 NA 
HETATM   14  C   UNL     1      -9.882  11.622  65.432  1.00  0.00    -0.238 C  
BRANCH  13  15
HETATM   15  C   UNL     1      -8.906  11.895  67.635  1.00  0.00    -0.169 C  
BRANCH  15  16
HETATM   16  C   UNL     1      -8.985  13.447  67.487  1.00  0.00    -0.207 C  
BRANCH  16  17
HETATM   17  C   UNL     1      -9.784  14.169  68.595  1.00  0.00    -0.196 C  
BRANCH  17  18
HETATM   18  C   UNL     1     -10.835  15.247  68.206  1.00  0.00    -0.262 C  
HETATM   19  N   UNL     1     -12.289  14.168  66.249  1.00  0.00    -0.458 NA 
HETATM   20  C   UNL     1     -11.855  15.519  69.413  1.00  0.00    -0.392 C  
HETATM   21  C   UNL     1     -11.660  14.653  67.097  1.00  0.00    -0.378 C  
HETATM   22  C   UNL     1     -11.250  16.098  70.702  1.00  0.00    -0.371 C  
HETATM   23  C   UNL     1     -12.641  14.261  69.842  1.00  0.00    -0.214 C  
BRANCH  18  24
HETATM   24  C   UNL     1     -10.070  16.497  67.756  1.00  0.00    -0.264 A  
HETATM   25  C   UNL     1      -8.997  17.015  68.501  1.00  0.00    -0.263 A  
HETATM   26  C   UNL     1      -8.420  18.254  68.206  1.00  0.00    -0.295 A  
HETATM   27  C   UNL     1     -10.520  17.251  66.657  1.00  0.00    -0.257 A  
HETATM   28  C   UNL     1      -8.903  18.990  67.111  1.00  0.00    -0.288 A  
HETATM   29  C   UNL     1      -9.930  18.468  66.332  1.00  0.00    -0.399 A  
BRANCH  26  30
HETATM   30  O   UNL     1      -7.414  18.823  68.944  1.00  0.00    -0.312 OA 
HETATM   31  C   UNL     1      -6.119  18.245  68.837  1.00  0.00    -0.217 C  
ENDBRANCH  26  30
BRANCH  28  32
HETATM   32  O   UNL     1      -8.333  20.222  66.896  1.00  0.00    -0.313 OA 
HETATM   33  C   UNL     1      -7.422  20.323  65.808  1.00  0.00    -0.183 C  
ENDBRANCH  28  32
ENDBRANCH  18  24
ENDBRANCH  17  18
ENDBRANCH  16  17
ENDBRANCH  15  16
ENDBRANCH  13  15
ENDBRANCH  12  13
ENDBRANCH  11  12
ENDBRANCH   7  11
ENDBRANCH   2   3
TORSDOF 12
ENDMDL
MODEL       91
REMARK 921   NORMALIZED FREE ENERGY PREDICTED BY IDOCK:   -5.03 KCAL/MOL
REMARK 922        TOTAL FREE ENERGY PREDICTED BY IDOCK:  -10.79 KCAL/MOL
REMARK 923 INTER-LIGAND FREE ENERGY PREDICTED BY IDOCK:  -10.13 KCAL/MOL
REMARK 924 INTRA-LIGAND FREE ENERGY PREDICTED BY IDOCK:   -0.65 KCAL/MOL
REMARK 927      BINDING AFFINITY PREDICTED BY RF-SCORE:    0.00 PKD
ROOT
HETATM    1  C   UNL     1      -8.338   5.065  71.079  1.00  0.00    -0.118 C  
HETATM    2  O   UNL     1      -9.711   4.848  71.387  1.00  0.00    -0.158 OA 
ENDROOT
BRANCH   2   3
HETATM    3  C   UNL     1     -10.502   5.970  71.459  1.00  0.00    -0.228 A  
HETATM    4  C   UNL     1     -11.279   6.525  70.429  1.00  0.00    -0.355 A  
HETATM    5  C   UNL     1     -11.135   7.811  72.921  1.00  0.00    -0.457 A  
HETATM    6  C   UNL     1     -11.984   7.717  70.670  1.00  0.00    -0.122 A  
HETATM    7  C   UNL     1     -11.928   8.368  71.910  1.00  0.00    -0.397 A  
HETATM    8  C   UNL     1     -10.426   6.627  72.692  1.00  0.00    -0.237 A  
BRANCH   4   9
HETATM    9  O   UNL     1     -11.267   5.899  69.210  1.00  0.00    -0.363 OA 
HETATM   10  C   UNL     1     -11.102   6.708  68.054  1.00  0.00    -0.205 C  
ENDBRANCH   4   9
BRANCH   7  11
HETATM   11  C   UNL     1     -12.573   9.744  72.070  1.00  0.00    -0.432 C  
BRANCH  11  12
HETATM   12  C   UNL     1     -12.057  10.621  70.921  1.00  0.00    -0.385 C  
BRANCH  12  13
HETATM   13  N   UNL     1     -12.669  11.901  70.552  1.00  0.00    -0.095 NA 
HETATM   14  C   UNL     1     -13.062  12.696  71.713  1.00  0.00    -0.360 C  
BRANCH  13  15
HETATM   15  C   UNL     1     -11.796  12.694  69.645  1.00  0.00    -0.311 C  
BRANCH  15  16
HETATM   16  C   UNL     1     -11.828  12.454  68.103  1.00  0.00    -0.372 C  
BRANCH  16  17
HETATM   17  C   UNL     1     -11.675  13.727  67.240  1.00  0.00    -0.416 C  
BRANCH  17  18
HETATM   18  C   UNL     1     -10.529  13.812  66.194  1.00  0.00    -0.297 C  
HETATM   19  N   UNL     1      -9.000  11.669  66.618  1.00  0.00    -0.185 NA 
HETATM   20  C   UNL     1     -11.097  13.658  64.702  1.00  0.00    -0.387 C  
HETATM   21  C   UNL     1      -9.654  12.610  66.426  1.00  0.00    -0.248 C  
HETATM   22  C   UNL     1     -12.064  14.753  64.223  1.00  0.00    -0.415 C  
HETATM   23  C   UNL     1     -11.825  12.317  64.463  1.00  0.00    -0.441 C  
BRANCH  18  24
HETATM   24  C   UNL     1      -9.781  15.129  66.432  1.00  0.00    -0.300 A  
HETATM   25  C   UNL     1     -10.390  16.375  66.202  1.00  0.00    -0.354 A  
HETATM   26  C   UNL     1      -9.664  17.570  66.231  1.00  0.00    -0.258 A  
HETATM   27  C   UNL     1      -8.410  15.125  66.744  1.00  0.00    -0.225 A  
HETATM   28  C   UNL     1      -8.292  17.530  66.531  1.00  0.00    -0.270 A  
HETATM   29  C   UNL     1      -7.686  16.310  66.811  1.00  0.00    -0.295 A  
BRANCH  26  30
HETATM   30  O   UNL     1     -10.205  18.799  65.951  1.00  0.00    -0.519 OA 
HETATM   31  C   UNL     1     -10.812  19.504  67.028  1.00  0.00    -0.427 C  
ENDBRANCH  26  30
BRANCH  28  32
HETATM   32  O   UNL     1      -7.618  18.727  66.497  1.00  0.00    -0.229 OA 
HETATM   33  C   UNL     1      -6.543  18.828  65.570  1.00  0.00    -0.272 C  
ENDBRANCH  28  32
ENDBRANCH  18  24
ENDBRANCH  17  18
ENDBRANCH  16  17
ENDBRANCH  15  16
ENDBRANCH  13  15
ENDBRANCH  12  13
ENDBRANCH  11  12
ENDBRANCH   7  11
ENDBRANCH   2   3
TORSDOF 12
ENDMDL
MODEL       92
REMARK 921   NORMALIZED FREE ENERGY PREDICTED BY IDOCK:   -5.03 KCAL/MOL
REMARK 922        TOTAL FREE ENERGY PREDICTED BY IDOCK:  -10.79 KCAL/MOL
REMARK 923 INTER-LIGAND FREE ENERGY PREDICTED BY IDOCK:   -8.79 KCAL/MOL
REMARK 924 INTRA-LIGAND FREE ENERGY PREDICTED BY IDOCK:   -2.00 KCAL/MOL
REMARK 927      BINDING AFFINITY PREDICTED BY RF-SCORE:    0.00 PKD
ROOT
HETATM    1  C   UNL     1     -13.329  11.372  71.949  1.00  0.00    -0.304 C  
HETATM    2  O   UNL     1     -13.034  12.765  71.899  1.00  0.00    -0.347 OA 
ENDROOT
BRANCH   2   3
HETATM    3  C   UNL     1     -12.501  13.232  70.722  1.00  0.00    -0.324 A  
HETATM    4  C   UNL     1     -12.428  14.569  70.298  1.00  0.00    -0.348 A  
HETATM    5  C   UNL     1     -11.539  12.513  68.604  1.00  0.00    -0.357 A  
HETATM    6  C   UNL     1     -11.897  14.856  69.028  1.00  0.00    -0.333 A  
HETATM    7  C   UNL     1     -11.444  13.841  68.173  1.00  0.00    -0.348 A  
HETATM    8  C   UNL     1     -12.069  12.214  69.863  1.00  0.00    -0.324 A  
BRANCH   4   9
HETATM    9  O   UNL     1     -12.934  15.532  71.130  1.00  0.00    -0.450 OA 
HETATM   10  C   UNL     1     -12.070  16.071  72.121  1.00  0.00    -0.526 C  
ENDBRANCH   4   9
BRANCH   7  11
HETATM   11  C   UNL     1     -11.033  14.189  66.743  1.00  0.00    -0.300 C  
BRANCH  11  12
HETATM   12  C   UNL     1     -12.087  13.578  65.809  1.00  0.00    -0.433 C  
BRANCH  12  13
HETATM   13  N   UNL     1     -11.882  12.321  65.082  1.00  0.00    -0.368 NA 
HETATM   14  C   UNL     1     -12.294  12.405  63.682  1.00  0.00    -0.548 C  
BRANCH  13  15
HETATM   15  C   UNL     1     -10.479  11.839  65.188  1.00  0.00    -0.283 C  
BRANCH  15  16
HETATM   16  C   UNL     1     -10.177  10.340  65.501  1.00  0.00    -0.308 C  
BRANCH  16  17
HETATM   17  C   UNL     1     -10.012  10.006  67.001  1.00  0.00    -0.257 C  
BRANCH  17  18
HETATM   18  C   UNL     1      -8.794   9.161  67.470  1.00  0.00    -0.124 C  
HETATM   19  N   UNL     1      -8.012   7.769  65.334  1.00  0.00    -0.117 NA 
HETATM   20  C   UNL     1      -7.555  10.102  67.859  1.00  0.00    -0.089 C  
HETATM   21  C   UNL     1      -8.346   8.365  66.274  1.00  0.00    -0.122 C  
HETATM   22  C   UNL     1      -7.769  11.059  69.043  1.00  0.00    -0.132 C  
HETATM   23  C   UNL     1      -7.067  10.981  66.687  1.00  0.00    -0.139 C  
BRANCH  18  24
HETATM   24  C   UNL     1      -9.268   8.265  68.620  1.00  0.00    -0.143 A  
HETATM   25  C   UNL     1     -10.288   8.669  69.499  1.00  0.00    -0.214 A  
HETATM   26  C   UNL     1     -10.594   7.949  70.658  1.00  0.00    -0.219 A  
HETATM   27  C   UNL     1      -8.589   7.070  68.920  1.00  0.00    -0.128 A  
HETATM   28  C   UNL     1      -9.886   6.767  70.937  1.00  0.00    -0.186 A  
HETATM   29  C   UNL     1      -8.909   6.327  70.050  1.00  0.00    -0.142 A  
BRANCH  26  30
HETATM   30  O   UNL     1     -11.537   8.341  71.573  1.00  0.00    -0.259 OA 
HETATM   31  C   UNL     1     -12.868   7.879  71.376  1.00  0.00    -0.280 C  
ENDBRANCH  26  30
BRANCH  28  32
HETATM   32  O   UNL     1     -10.194   6.127  72.113  1.00  0.00    -0.183 OA 
HETATM   33  C   UNL     1     -10.440   4.728  72.033  1.00  0.00    -0.155 C  
ENDBRANCH  28  32
ENDBRANCH  18  24
ENDBRANCH  17  18
ENDBRANCH  16  17
ENDBRANCH  15  16
ENDBRANCH  13  15
ENDBRANCH  12  13
ENDBRANCH  11  12
ENDBRANCH   7  11
ENDBRANCH   2   3
TORSDOF 12
ENDMDL
MODEL       93
REMARK 921   NORMALIZED FREE ENERGY PREDICTED BY IDOCK:   -5.03 KCAL/MOL
REMARK 922        TOTAL FREE ENERGY PREDICTED BY IDOCK:  -10.78 KCAL/MOL
REMARK 923 INTER-LIGAND FREE ENERGY PREDICTED BY IDOCK:   -9.31 KCAL/MOL
REMARK 924 INTRA-LIGAND FREE ENERGY PREDICTED BY IDOCK:   -1.47 KCAL/MOL
REMARK 927      BINDING AFFINITY PREDICTED BY RF-SCORE:    0.00 PKD
ROOT
HETATM    1  C   UNL     1     -10.518  18.362  66.055  1.00  0.00    -0.374 C  
HETATM    2  O   UNL     1     -10.588  17.172  65.276  1.00  0.00    -0.662 OA 
ENDROOT
BRANCH   2   3
HETATM    3  C   UNL     1     -10.042  16.044  65.840  1.00  0.00    -0.353 A  
HETATM    4  C   UNL     1     -10.652  14.786  65.977  1.00  0.00    -0.312 A  
HETATM    5  C   UNL     1      -8.087  15.219  67.035  1.00  0.00    -0.253 A  
HETATM    6  C   UNL     1      -9.958  13.757  66.637  1.00  0.00    -0.279 A  
HETATM    7  C   UNL     1      -8.674  13.955  67.165  1.00  0.00    -0.233 A  
HETATM    8  C   UNL     1      -8.769  16.253  66.384  1.00  0.00    -0.354 A  
BRANCH   4   9
HETATM    9  O   UNL     1     -11.929  14.640  65.505  1.00  0.00    -0.334 OA 
HETATM   10  C   UNL     1     -12.114  13.874  64.323  1.00  0.00    -0.440 C  
ENDBRANCH   4   9
BRANCH   7  11
HETATM   11  C   UNL     1      -8.032  12.861  68.017  1.00  0.00    -0.158 C  
BRANCH  11  12
HETATM   12  C   UNL     1      -6.838  12.313  67.225  1.00  0.00    -0.140 C  
BRANCH  12  13
HETATM   13  N   UNL     1      -6.338  10.943  67.372  1.00  0.00    -0.061 NA 
HETATM   14  C   UNL     1      -5.334  10.818  68.427  1.00  0.00    -0.040 C  
BRANCH  13  15
HETATM   15  C   UNL     1      -7.441   9.967  67.581  1.00  0.00    -0.090 C  
BRANCH  15  16
HETATM   16  C   UNL     1      -7.648   9.290  68.972  1.00  0.00    -0.074 C  
BRANCH  16  17
HETATM   17  C   UNL     1      -8.765   9.912  69.841  1.00  0.00    -0.225 C  
BRANCH  17  18
HETATM   18  C   UNL     1     -10.155   9.219  69.916  1.00  0.00    -0.230 C  
HETATM   19  N   UNL     1     -10.540   8.107  67.523  1.00  0.00    -0.246 NA 
HETATM   20  C   UNL     1     -10.138   8.006  70.966  1.00  0.00    -0.213 C  
HETATM   21  C   UNL     1     -10.388   8.591  68.568  1.00  0.00    -0.198 C  
HETATM   22  C   UNL     1      -9.874   8.378  72.434  1.00  0.00    -0.378 C  
HETATM   23  C   UNL     1      -9.108   6.911  70.615  1.00  0.00    -0.155 C  
BRANCH  18  24
HETATM   24  C   UNL     1     -11.194  10.298  70.242  1.00  0.00    -0.395 A  
HETATM   25  C   UNL     1     -11.194  11.543  69.591  1.00  0.00    -0.276 A  
HETATM   26  C   UNL     1     -12.010  12.598  70.011  1.00  0.00    -0.306 A  
HETATM   27  C   UNL     1     -12.088  10.126  71.314  1.00  0.00    -0.489 A  
HETATM   28  C   UNL     1     -12.881  12.399  71.095  1.00  0.00    -0.205 A  
HETATM   29  C   UNL     1     -12.930  11.157  71.718  1.00  0.00    -0.526 A  
BRANCH  26  30
HETATM   30  O   UNL     1     -11.996  13.847  69.444  1.00  0.00    -0.315 OA 
HETATM   31  C   UNL     1     -10.990  14.751  69.886  1.00  0.00    -0.199 C  
ENDBRANCH  26  30
BRANCH  28  32
HETATM   32  O   UNL     1     -13.624  13.484  71.497  1.00  0.00    -0.295 OA 
HETATM   33  C   UNL     1     -13.353  13.996  72.797  1.00  0.00    -0.500 C  
ENDBRANCH  28  32
ENDBRANCH  18  24
ENDBRANCH  17  18
ENDBRANCH  16  17
ENDBRANCH  15  16
ENDBRANCH  13  15
ENDBRANCH  12  13
ENDBRANCH  11  12
ENDBRANCH   7  11
ENDBRANCH   2   3
TORSDOF 12
ENDMDL
MODEL       94
REMARK 921   NORMALIZED FREE ENERGY PREDICTED BY IDOCK:   -5.00 KCAL/MOL
REMARK 922        TOTAL FREE ENERGY PREDICTED BY IDOCK:  -10.74 KCAL/MOL
REMARK 923 INTER-LIGAND FREE ENERGY PREDICTED BY IDOCK:   -8.28 KCAL/MOL
REMARK 924 INTRA-LIGAND FREE ENERGY PREDICTED BY IDOCK:   -2.45 KCAL/MOL
REMARK 927      BINDING AFFINITY PREDICTED BY RF-SCORE:    0.00 PKD
ROOT
HETATM    1  C   UNL     1     -10.451   8.528  67.140  1.00  0.00    -0.299 C  
HETATM    2  O   UNL     1      -9.062   8.230  67.238  1.00  0.00    -0.134 OA 
ENDROOT
BRANCH   2   3
HETATM    3  C   UNL     1      -8.207   9.306  67.240  1.00  0.00    -0.121 A  
HETATM    4  C   UNL     1      -7.432   9.773  66.165  1.00  0.00    -0.101 A  
HETATM    5  C   UNL     1      -7.217  10.999  68.682  1.00  0.00    -0.091 A  
HETATM    6  C   UNL     1      -6.564  10.860  66.369  1.00  0.00    -0.134 A  
HETATM    7  C   UNL     1      -6.450  11.487  67.618  1.00  0.00    -0.067 A  
HETATM    8  C   UNL     1      -8.080   9.915  68.493  1.00  0.00    -0.101 A  
BRANCH   4   9
HETATM    9  O   UNL     1      -7.520   9.102  64.974  1.00  0.00    -0.101 OA 
HETATM   10  C   UNL     1      -8.602   9.425  64.112  1.00  0.00    -0.198 C  
ENDBRANCH   4   9
BRANCH   7  11
HETATM   11  C   UNL     1      -5.374  12.552  67.831  1.00  0.00    -0.092 C  
BRANCH  11  12
HETATM   12  C   UNL     1      -5.885  13.497  68.926  1.00  0.00    -0.076 C  
BRANCH  12  13
HETATM   13  N   UNL     1      -6.179  14.915  68.689  1.00  0.00    -0.083 NA 
HETATM   14  C   UNL     1      -5.185  15.563  67.835  1.00  0.00    -0.120 C  
BRANCH  13  15
HETATM   15  C   UNL     1      -7.548  15.116  68.145  1.00  0.00    -0.112 C  
BRANCH  15  16
HETATM   16  C   UNL     1      -8.774  14.406  68.800  1.00  0.00    -0.129 C  
BRANCH  16  17
HETATM   17  C   UNL     1      -9.758  13.750  67.805  1.00  0.00    -0.230 C  
BRANCH  17  18
HETATM   18  C   UNL     1     -11.282  14.024  67.939  1.00  0.00    -0.295 C  
HETATM   19  N   UNL     1     -11.497  16.574  68.688  1.00  0.00    -0.248 NA 
HETATM   20  C   UNL     1     -12.013  13.921  66.515  1.00  0.00    -0.470 C  
HETATM   21  C   UNL     1     -11.418  15.460  68.367  1.00  0.00    -0.355 C  
HETATM   22  C   UNL     1     -11.984  12.545  65.830  1.00  0.00    -0.482 C  
HETATM   23  C   UNL     1     -11.466  14.924  65.476  1.00  0.00    -0.307 C  
BRANCH  18  24
HETATM   24  C   UNL     1     -11.839  13.051  68.985  1.00  0.00    -0.362 A  
HETATM   25  C   UNL     1     -12.523  13.505  70.125  1.00  0.00    -0.276 A  
HETATM   26  C   UNL     1     -12.864  12.646  71.175  1.00  0.00    -0.220 A  
HETATM   27  C   UNL     1     -11.548  11.677  68.907  1.00  0.00    -0.377 A  
HETATM   28  C   UNL     1     -12.546  11.281  71.073  1.00  0.00    -0.394 A  
HETATM   29  C   UNL     1     -11.915  10.807  69.928  1.00  0.00    -0.418 A  
BRANCH  26  30
HETATM   30  O   UNL     1     -13.474  13.059  72.332  1.00  0.00    -0.567 OA 
HETATM   31  C   UNL     1     -13.497  14.457  72.593  1.00  0.00    -0.509 C  
ENDBRANCH  26  30
BRANCH  28  32
HETATM   32  O   UNL     1     -12.859  10.492  72.154  1.00  0.00    -0.386 OA 
HETATM   33  C   UNL     1     -13.494   9.250  71.874  1.00  0.00    -0.430 C  
ENDBRANCH  28  32
ENDBRANCH  18  24
ENDBRANCH  17  18
ENDBRANCH  16  17
ENDBRANCH  15  16
ENDBRANCH  13  15
ENDBRANCH  12  13
ENDBRANCH  11  12
ENDBRANCH   7  11
ENDBRANCH   2   3
TORSDOF 12
ENDMDL
MODEL       95
REMARK 921   NORMALIZED FREE ENERGY PREDICTED BY IDOCK:   -4.99 KCAL/MOL
REMARK 922        TOTAL FREE ENERGY PREDICTED BY IDOCK:  -10.72 KCAL/MOL
REMARK 923 INTER-LIGAND FREE ENERGY PREDICTED BY IDOCK:   -9.65 KCAL/MOL
REMARK 924 INTRA-LIGAND FREE ENERGY PREDICTED BY IDOCK:   -1.07 KCAL/MOL
REMARK 927      BINDING AFFINITY PREDICTED BY RF-SCORE:    0.00 PKD
ROOT
HETATM    1  C   UNL     1     -12.378  12.444  63.383  1.00  0.00    -0.499 C  
HETATM    2  O   UNL     1     -11.094  12.916  63.775  1.00  0.00    -0.413 OA 
ENDROOT
BRANCH   2   3
HETATM    3  C   UNL     1     -10.459  12.204  64.765  1.00  0.00    -0.294 A  
HETATM    4  C   UNL     1      -9.769  12.724  65.872  1.00  0.00    -0.198 A  
HETATM    5  C   UNL     1      -9.833   9.950  65.440  1.00  0.00    -0.384 A  
HETATM    6  C   UNL     1      -9.128  11.839  66.756  1.00  0.00    -0.194 A  
HETATM    7  C   UNL     1      -9.156  10.451  66.558  1.00  0.00    -0.175 A  
HETATM    8  C   UNL     1     -10.472  10.821  64.551  1.00  0.00    -0.351 A  
BRANCH   4   9
HETATM    9  O   UNL     1      -9.709  14.086  66.006  1.00  0.00    -0.294 OA 
HETATM   10  C   UNL     1      -8.798  14.617  66.958  1.00  0.00    -0.241 C  
ENDBRANCH   4   9
BRANCH   7  11
HETATM   11  C   UNL     1      -8.306   9.546  67.449  1.00  0.00    -0.125 C  
BRANCH  11  12
HETATM   12  C   UNL     1      -8.520   8.106  66.964  1.00  0.00    -0.120 C  
BRANCH  12  13
HETATM   13  N   UNL     1      -8.762   6.981  67.874  1.00  0.00    -0.126 NA 
HETATM   14  C   UNL     1      -7.840   5.868  67.653  1.00  0.00    -0.098 C  
BRANCH  13  15
HETATM   15  C   UNL     1      -8.741   7.404  69.300  1.00  0.00    -0.137 C  
BRANCH  15  16
HETATM   16  C   UNL     1      -9.797   6.850  70.307  1.00  0.00    -0.186 C  
BRANCH  16  17
HETATM   17  C   UNL     1     -11.214   7.450  70.163  1.00  0.00    -0.239 C  
BRANCH  17  18
HETATM   18  C   UNL     1     -11.872   8.164  71.377  1.00  0.00    -0.329 C  
HETATM   19  N   UNL     1     -14.330   7.148  71.571  1.00  0.00    -0.385 NA 
HETATM   20  C   UNL     1     -11.128   7.780  72.744  1.00  0.00    -0.457 C  
HETATM   21  C   UNL     1     -13.264   7.604  71.494  1.00  0.00    -0.334 C  
HETATM   22  C   UNL     1      -9.657   8.209  72.866  1.00  0.00    -0.345 C  
HETATM   23  C   UNL     1     -11.154   6.266  73.046  1.00  0.00    -0.237 C  
BRANCH  18  24
HETATM   24  C   UNL     1     -11.876   9.669  71.083  1.00  0.00    -0.448 A  
HETATM   25  C   UNL     1     -12.726  10.553  71.770  1.00  0.00    -0.508 A  
HETATM   26  C   UNL     1     -12.875  11.888  71.381  1.00  0.00    -0.307 A  
HETATM   27  C   UNL     1     -11.132  10.188  70.009  1.00  0.00    -0.368 A  
HETATM   28  C   UNL     1     -12.129  12.372  70.293  1.00  0.00    -0.297 A  
HETATM   29  C   UNL     1     -11.245  11.523  69.636  1.00  0.00    -0.276 A  
BRANCH  26  30
HETATM   30  O   UNL     1     -13.740  12.766  71.983  1.00  0.00    -0.413 OA 
HETATM   31  C   UNL     1     -13.170  13.798  72.780  1.00  0.00    -0.387 C  
ENDBRANCH  26  30
BRANCH  28  32
HETATM   32  O   UNL     1     -12.351  13.677  69.924  1.00  0.00    -0.310 OA 
HETATM   33  C   UNL     1     -12.174  13.989  68.547  1.00  0.00    -0.174 C  
ENDBRANCH  28  32
ENDBRANCH  18  24
ENDBRANCH  17  18
ENDBRANCH  16  17
ENDBRANCH  15  16
ENDBRANCH  13  15
ENDBRANCH  12  13
ENDBRANCH  11  12
ENDBRANCH   7  11
ENDBRANCH   2   3
TORSDOF 12
ENDMDL
MODEL       96
REMARK 921   NORMALIZED FREE ENERGY PREDICTED BY IDOCK:   -4.99 KCAL/MOL
REMARK 922        TOTAL FREE ENERGY PREDICTED BY IDOCK:  -10.71 KCAL/MOL
REMARK 923 INTER-LIGAND FREE ENERGY PREDICTED BY IDOCK:   -9.19 KCAL/MOL
REMARK 924 INTRA-LIGAND FREE ENERGY PREDICTED BY IDOCK:   -1.52 KCAL/MOL
REMARK 927      BINDING AFFINITY PREDICTED BY RF-SCORE:    0.00 PKD
ROOT
HETATM    1  C   UNL     1     -10.166   8.527  71.035  1.00  0.00    -0.203 C  
HETATM    2  O   UNL     1     -11.062   9.021  70.045  1.00  0.00    -0.239 OA 
ENDROOT
BRANCH   2   3
HETATM    3  C   UNL     1     -11.680  10.216  70.325  1.00  0.00    -0.282 A  
HETATM    4  C   UNL     1     -11.472  11.447  69.682  1.00  0.00    -0.309 A  
HETATM    5  C   UNL     1     -13.217  11.293  71.877  1.00  0.00    -0.491 A  
HETATM    6  C   UNL     1     -12.155  12.585  70.145  1.00  0.00    -0.368 A  
HETATM    7  C   UNL     1     -13.034  12.524  71.236  1.00  0.00    -0.301 A  
HETATM    8  C   UNL     1     -12.540  10.154  71.428  1.00  0.00    -0.526 A  
BRANCH   4   9
HETATM    9  O   UNL     1     -10.563  11.489  68.659  1.00  0.00    -0.194 OA 
HETATM   10  C   UNL     1     -10.939  10.915  67.415  1.00  0.00    -0.293 C  
ENDBRANCH   4   9
BRANCH   7  11
HETATM   11  C   UNL     1     -13.621  13.815  71.805  1.00  0.00    -0.450 C  
BRANCH  11  12
HETATM   12  C   UNL     1     -13.087  14.970  70.948  1.00  0.00    -0.406 C  
BRANCH  12  13
HETATM   13  N   UNL     1     -12.236  16.039  71.482  1.00  0.00    -0.452 NA 
HETATM   14  C   UNL     1     -12.387  16.214  72.926  1.00  0.00    -0.511 C  
BRANCH  13  15
HETATM   15  C   UNL     1     -10.805  15.842  71.126  1.00  0.00     0.015 C  
BRANCH  15  16
HETATM   16  C   UNL     1     -10.385  15.591  69.643  1.00  0.00    -0.286 C  
BRANCH  16  17
HETATM   17  C   UNL     1      -9.045  14.842  69.462  1.00  0.00     0.018 C  
BRANCH  17  18
HETATM   18  C   UNL     1      -8.119  15.204  68.267  1.00  0.00    -0.138 C  
HETATM   19  N   UNL     1      -6.829  17.422  68.994  1.00  0.00    -0.238 NA 
HETATM   20  C   UNL     1      -6.988  14.087  68.056  1.00  0.00    -0.147 C  
HETATM   21  C   UNL     1      -7.389  16.459  68.662  1.00  0.00    -0.186 C  
HETATM   22  C   UNL     1      -7.479  12.680  67.679  1.00  0.00    -0.143 C  
HETATM   23  C   UNL     1      -6.077  13.902  69.290  1.00  0.00    -0.098 C  
BRANCH  18  24
HETATM   24  C   UNL     1      -9.010  15.414  67.037  1.00  0.00    -0.253 A  
HETATM   25  C   UNL     1      -9.406  16.697  66.623  1.00  0.00    -0.272 A  
HETATM   26  C   UNL     1     -10.367  16.889  65.625  1.00  0.00    -0.237 A  
HETATM   27  C   UNL     1      -9.580  14.313  66.373  1.00  0.00    -0.317 A  
HETATM   28  C   UNL     1     -10.930  15.768  64.992  1.00  0.00    -0.417 A  
HETATM   29  C   UNL     1     -10.510  14.493  65.355  1.00  0.00    -0.399 A  
BRANCH  26  30
HETATM   30  O   UNL     1     -10.829  18.121  65.236  1.00  0.00    -0.628 OA 
HETATM   31  C   UNL     1     -10.440  19.240  66.024  1.00  0.00    -0.487 C  
ENDBRANCH  26  30
BRANCH  28  32
HETATM   32  O   UNL     1     -11.904  16.013  64.055  1.00  0.00    -0.762 OA 
HETATM   33  C   UNL     1     -12.762  14.926  63.727  1.00  0.00     0.813 C  
ENDBRANCH  28  32
ENDBRANCH  18  24
ENDBRANCH  17  18
ENDBRANCH  16  17
ENDBRANCH  15  16
ENDBRANCH  13  15
ENDBRANCH  12  13
ENDBRANCH  11  12
ENDBRANCH   7  11
ENDBRANCH   2   3
TORSDOF 12
ENDMDL
MODEL       97
REMARK 921   NORMALIZED FREE ENERGY PREDICTED BY IDOCK:   -4.98 KCAL/MOL
REMARK 922        TOTAL FREE ENERGY PREDICTED BY IDOCK:  -10.70 KCAL/MOL
REMARK 923 INTER-LIGAND FREE ENERGY PREDICTED BY IDOCK:   -8.87 KCAL/MOL
REMARK 924 INTRA-LIGAND FREE ENERGY PREDICTED BY IDOCK:   -1.84 KCAL/MOL
REMARK 927      BINDING AFFINITY PREDICTED BY RF-SCORE:    0.00 PKD
ROOT
HETATM    1  C   UNL     1     -13.775   7.559  71.603  1.00  0.00    -0.377 C  
HETATM    2  O   UNL     1     -12.757   6.609  71.303  1.00  0.00    -0.290 OA 
ENDROOT
BRANCH   2   3
HETATM    3  C   UNL     1     -11.585   7.115  70.794  1.00  0.00    -0.318 A  
HETATM    4  C   UNL     1     -10.481   6.383  70.326  1.00  0.00    -0.219 A  
HETATM    5  C   UNL     1     -10.369   9.188  70.403  1.00  0.00    -0.269 A  
HETATM    6  C   UNL     1      -9.337   7.074  69.890  1.00  0.00    -0.150 A  
HETATM    7  C   UNL     1      -9.267   8.474  69.917  1.00  0.00    -0.154 A  
HETATM    8  C   UNL     1     -11.512   8.512  70.842  1.00  0.00    -0.302 A  
BRANCH   4   9
HETATM    9  O   UNL     1     -10.555   5.016  70.368  1.00  0.00    -0.215 OA 
HETATM   10  C   UNL     1      -9.629   4.278  69.582  1.00  0.00    -0.205 C  
ENDBRANCH   4   9
BRANCH   7  11
HETATM   11  C   UNL     1      -7.945   9.170  69.594  1.00  0.00    -0.103 C  
BRANCH  11  12
HETATM   12  C   UNL     1      -8.290  10.523  68.960  1.00  0.00    -0.154 C  
BRANCH  12  13
HETATM   13  N   UNL     1      -7.369  11.664  68.953  1.00  0.00    -0.117 NA 
HETATM   14  C   UNL     1      -5.974  11.265  69.135  1.00  0.00    -0.049 C  
BRANCH  13  15
HETATM   15  C   UNL     1      -7.520  12.494  67.728  1.00  0.00    -0.130 C  
BRANCH  15  16
HETATM   16  C   UNL     1      -8.386  13.793  67.752  1.00  0.00    -0.180 C  
BRANCH  16  17
HETATM   17  C   UNL     1      -9.615  13.776  66.815  1.00  0.00    -0.283 C  
BRANCH  17  18
HETATM   18  C   UNL     1     -10.817  14.717  67.107  1.00  0.00    -0.303 C  
HETATM   19  N   UNL     1      -9.759  17.121  67.568  1.00  0.00    -0.251 NA 
HETATM   20  C   UNL     1     -11.746  14.886  65.811  1.00  0.00    -0.179 C  
HETATM   21  C   UNL     1     -10.233  16.078  67.375  1.00  0.00    -0.273 C  
HETATM   22  C   UNL     1     -12.440  13.615  65.296  1.00  0.00    -0.517 C  
HETATM   23  C   UNL     1     -10.996  15.479  64.598  1.00  0.00    -0.341 C  
BRANCH  18  24
HETATM   24  C   UNL     1     -11.561  14.154  68.324  1.00  0.00    -0.356 A  
HETATM   25  C   UNL     1     -12.091  14.995  69.318  1.00  0.00    -0.282 A  
HETATM   26  C   UNL     1     -12.600  14.491  70.520  1.00  0.00    -0.351 A  
HETATM   27  C   UNL     1     -11.603  12.768  68.557  1.00  0.00    -0.358 A  
HETATM   28  C   UNL     1     -12.613  13.101  70.728  1.00  0.00    -0.260 A  
HETATM   29  C   UNL     1     -12.139  12.254  69.732  1.00  0.00    -0.298 A  
BRANCH  26  30
HETATM   30  O   UNL     1     -13.068  15.278  71.540  1.00  0.00    -0.367 OA 
HETATM   31  C   UNL     1     -12.108  16.025  72.279  1.00  0.00    -0.527 C  
ENDBRANCH  26  30
BRANCH  28  32
HETATM   32  O   UNL     1     -13.077  12.664  71.945  1.00  0.00    -0.407 OA 
HETATM   33  C   UNL     1     -13.370  11.276  72.055  1.00  0.00    -0.280 C  
ENDBRANCH  28  32
ENDBRANCH  18  24
ENDBRANCH  17  18
ENDBRANCH  16  17
ENDBRANCH  15  16
ENDBRANCH  13  15
ENDBRANCH  12  13
ENDBRANCH  11  12
ENDBRANCH   7  11
ENDBRANCH   2   3
TORSDOF 12
ENDMDL
MODEL       98
REMARK 921   NORMALIZED FREE ENERGY PREDICTED BY IDOCK:   -4.97 KCAL/MOL
REMARK 922        TOTAL FREE ENERGY PREDICTED BY IDOCK:  -10.68 KCAL/MOL
REMARK 923 INTER-LIGAND FREE ENERGY PREDICTED BY IDOCK:   -8.86 KCAL/MOL
REMARK 924 INTRA-LIGAND FREE ENERGY PREDICTED BY IDOCK:   -1.83 KCAL/MOL
REMARK 927      BINDING AFFINITY PREDICTED BY RF-SCORE:    0.00 PKD
ROOT
HETATM    1  C   UNL     1     -11.809  13.908  68.370  1.00  0.00    -0.374 C  
HETATM    2  O   UNL     1     -12.523  13.171  67.382  1.00  0.00    -0.150 OA 
ENDROOT
BRANCH   2   3
HETATM    3  C   UNL     1     -11.762  12.475  66.474  1.00  0.00    -0.391 A  
HETATM    4  C   UNL     1     -11.822  12.566  65.074  1.00  0.00    -0.396 A  
HETATM    5  C   UNL     1     -10.095  10.711  66.282  1.00  0.00    -0.291 A  
HETATM    6  C   UNL     1     -11.002  11.729  64.298  1.00  0.00    -0.419 A  
HETATM    7  C   UNL     1     -10.130  10.802  64.886  1.00  0.00    -0.387 A  
HETATM    8  C   UNL     1     -10.909  11.536  67.065  1.00  0.00    -0.320 A  
BRANCH   4   9
HETATM    9  O   UNL     1     -12.727  13.438  64.528  1.00  0.00    -0.633 OA 
HETATM   10  C   UNL     1     -12.275  14.745  64.207  1.00  0.00    -0.379 C  
ENDBRANCH   4   9
BRANCH   7  11
HETATM   11  C   UNL     1      -9.387   9.801  64.002  1.00  0.00    -0.215 C  
BRANCH  11  12
HETATM   12  C   UNL     1      -8.302   9.150  64.870  1.00  0.00    -0.162 C  
BRANCH  12  13
HETATM   13  N   UNL     1      -8.355   7.751  65.307  1.00  0.00    -0.139 NA 
HETATM   14  C   UNL     1      -7.867   6.823  64.290  1.00  0.00    -0.109 C  
BRANCH  13  15
HETATM   15  C   UNL     1      -7.638   7.543  66.594  1.00  0.00    -0.097 C  
BRANCH  15  16
HETATM   16  C   UNL     1      -7.826   6.219  67.400  1.00  0.00    -0.101 C  
BRANCH  16  17
HETATM   17  C   UNL     1      -8.361   6.401  68.839  1.00  0.00    -0.121 C  
BRANCH  17  18
HETATM   18  C   UNL     1      -9.865   6.145  69.137  1.00  0.00    -0.176 C  
HETATM   19  N   UNL     1     -11.064   6.020  66.759  1.00  0.00    -0.236 NA 
HETATM   20  C   UNL     1     -10.081   4.707  69.814  1.00  0.00    -0.243 C  
HETATM   21  C   UNL     1     -10.555   6.078  67.802  1.00  0.00    -0.267 C  
HETATM   22  C   UNL     1      -9.430   4.495  71.191  1.00  0.00    -0.226 C  
HETATM   23  C   UNL     1      -9.593   3.538  68.931  1.00  0.00    -0.140 C  
BRANCH  18  24
HETATM   24  C   UNL     1     -10.372   7.309  69.996  1.00  0.00    -0.222 A  
HETATM   25  C   UNL     1     -11.538   7.199  70.774  1.00  0.00    -0.358 A  
HETATM   26  C   UNL     1     -12.113   8.306  71.406  1.00  0.00    -0.300 A  
HETATM   27  C   UNL     1      -9.765   8.575  69.912  1.00  0.00    -0.179 A  
HETATM   28  C   UNL     1     -11.490   9.560  71.290  1.00  0.00    -0.377 A  
HETATM   29  C   UNL     1     -10.308   9.675  70.566  1.00  0.00    -0.359 A  
BRANCH  26  30
HETATM   30  O   UNL     1     -13.282   8.255  72.121  1.00  0.00    -0.318 OA 
HETATM   31  C   UNL     1     -14.292   7.368  71.654  1.00  0.00    -0.461 C  
ENDBRANCH  26  30
BRANCH  28  32
HETATM   32  O   UNL     1     -12.124  10.622  71.889  1.00  0.00    -0.048 OA 
HETATM   33  C   UNL     1     -12.872  11.482  71.038  1.00  0.00    -0.263 C  
ENDBRANCH  28  32
ENDBRANCH  18  24
ENDBRANCH  17  18
ENDBRANCH  16  17
ENDBRANCH  15  16
ENDBRANCH  13  15
ENDBRANCH  12  13
ENDBRANCH  11  12
ENDBRANCH   7  11
ENDBRANCH   2   3
TORSDOF 12
ENDMDL
MODEL       99
REMARK 921   NORMALIZED FREE ENERGY PREDICTED BY IDOCK:   -4.97 KCAL/MOL
REMARK 922        TOTAL FREE ENERGY PREDICTED BY IDOCK:  -10.67 KCAL/MOL
REMARK 923 INTER-LIGAND FREE ENERGY PREDICTED BY IDOCK:   -9.13 KCAL/MOL
REMARK 924 INTRA-LIGAND FREE ENERGY PREDICTED BY IDOCK:   -1.54 KCAL/MOL
REMARK 927      BINDING AFFINITY PREDICTED BY RF-SCORE:    0.00 PKD
ROOT
HETATM    1  C   UNL     1      -5.997  20.382  68.823  1.00  0.00    -0.321 C  
HETATM    2  O   UNL     1      -6.695  19.272  69.378  1.00  0.00    -0.311 OA 
ENDROOT
BRANCH   2   3
HETATM    3  C   UNL     1      -7.381  18.479  68.491  1.00  0.00    -0.295 A  
HETATM    4  C   UNL     1      -8.664  18.709  67.968  1.00  0.00    -0.303 A  
HETATM    5  C   UNL     1      -7.289  16.350  67.312  1.00  0.00    -0.209 A  
HETATM    6  C   UNL     1      -9.236  17.753  67.110  1.00  0.00    -0.253 A  
HETATM    7  C   UNL     1      -8.560  16.573  66.769  1.00  0.00    -0.263 A  
HETATM    8  C   UNL     1      -6.711  17.293  68.170  1.00  0.00    -0.179 A  
BRANCH   4   9
HETATM    9  O   UNL     1      -9.324  19.841  68.367  1.00  0.00    -0.349 OA 
HETATM   10  C   UNL     1     -10.028  20.580  67.379  1.00  0.00    -0.385 C  
ENDBRANCH   4   9
BRANCH   7  11
HETATM   11  C   UNL     1      -9.288  15.491  65.972  1.00  0.00    -0.379 C  
BRANCH  11  12
HETATM   12  C   UNL     1     -10.719  15.414  66.519  1.00  0.00    -0.308 C  
BRANCH  12  13
HETATM   13  N   UNL     1     -11.056  14.783  67.799  1.00  0.00    -0.288 NA 
HETATM   14  C   UNL     1     -11.664  15.716  68.746  1.00  0.00    -0.370 C  
BRANCH  13  15
HETATM   15  C   UNL     1     -11.919  13.585  67.619  1.00  0.00    -0.336 C  
BRANCH  15  16
HETATM   16  C   UNL     1     -11.289  12.200  67.270  1.00  0.00    -0.398 C  
BRANCH  16  17
HETATM   17  C   UNL     1     -10.061  11.806  68.123  1.00  0.00    -0.196 C  
BRANCH  17  18
HETATM   18  C   UNL     1      -9.569  10.332  68.127  1.00  0.00    -0.151 C  
HETATM   19  N   UNL     1     -10.136   9.373  65.704  1.00  0.00    -0.159 NA 
HETATM   20  C   UNL     1      -7.973  10.258  68.266  1.00  0.00    -0.106 C  
HETATM   21  C   UNL     1      -9.889   9.776  66.765  1.00  0.00    -0.208 C  
HETATM   22  C   UNL     1      -7.375  10.809  69.571  1.00  0.00    -0.125 C  
HETATM   23  C   UNL     1      -7.228  10.978  67.121  1.00  0.00    -0.112 C  
BRANCH  18  24
HETATM   24  C   UNL     1     -10.317   9.596  69.244  1.00  0.00    -0.223 A  
HETATM   25  C   UNL     1     -10.387   8.193  69.286  1.00  0.00    -0.222 A  
HETATM   26  C   UNL     1     -11.220   7.520  70.185  1.00  0.00    -0.196 A  
HETATM   27  C   UNL     1     -11.085  10.312  70.181  1.00  0.00    -0.385 A  
HETATM   28  C   UNL     1     -11.986   8.265  71.098  1.00  0.00    -0.265 A  
HETATM   29  C   UNL     1     -11.889   9.653  71.103  1.00  0.00    -0.448 A  
BRANCH  26  30
HETATM   30  O   UNL     1     -11.366   6.157  70.218  1.00  0.00    -0.365 OA 
HETATM   31  C   UNL     1     -10.204   5.384  70.502  1.00  0.00    -0.256 C  
ENDBRANCH  26  30
BRANCH  28  32
HETATM   32  O   UNL     1     -12.824   7.555  71.924  1.00  0.00    -0.316 OA 
HETATM   33  C   UNL     1     -14.220   7.693  71.687  1.00  0.00    -0.454 C  
ENDBRANCH  28  32
ENDBRANCH  18  24
ENDBRANCH  17  18
ENDBRANCH  16  17
ENDBRANCH  15  16
ENDBRANCH  13  15
ENDBRANCH  12  13
ENDBRANCH  11  12
ENDBRANCH   7  11
ENDBRANCH   2   3
TORSDOF 12
ENDMDL
MODEL      100
REMARK 921   NORMALIZED FREE ENERGY PREDICTED BY IDOCK:   -4.95 KCAL/MOL
REMARK 922        TOTAL FREE ENERGY PREDICTED BY IDOCK:  -10.64 KCAL/MOL
REMARK 923 INTER-LIGAND FREE ENERGY PREDICTED BY IDOCK:   -8.83 KCAL/MOL
REMARK 924 INTRA-LIGAND FREE ENERGY PREDICTED BY IDOCK:   -1.81 KCAL/MOL
REMARK 927      BINDING AFFINITY PREDICTED BY RF-SCORE:    0.00 PKD
ROOT
HETATM    1  C   UNL     1     -10.660  15.546  64.931  1.00  0.00    -0.342 C  
HETATM    2  O   UNL     1     -11.882  14.906  65.285  1.00  0.00    -0.313 OA 
ENDROOT
BRANCH   2   3
HETATM    3  C   UNL     1     -11.810  13.968  66.287  1.00  0.00    -0.411 A  
HETATM    4  C   UNL     1     -11.897  14.200  67.669  1.00  0.00    -0.392 A  
HETATM    5  C   UNL     1     -11.398  11.607  66.712  1.00  0.00    -0.354 A  
HETATM    6  C   UNL     1     -11.742  13.119  68.555  1.00  0.00    -0.387 A  
HETATM    7  C   UNL     1     -11.499  11.817  68.093  1.00  0.00    -0.382 A  
HETATM    8  C   UNL     1     -11.546  12.675  65.821  1.00  0.00    -0.431 A  
BRANCH   4   9
HETATM    9  O   UNL     1     -12.075  15.490  68.092  1.00  0.00    -0.124 OA 
HETATM   10  C   UNL     1     -11.879  15.767  69.472  1.00  0.00    -0.347 C  
ENDBRANCH   4   9
BRANCH   7  11
HETATM   11  C   UNL     1     -11.172  10.711  69.095  1.00  0.00    -0.324 C  
BRANCH  11  12
HETATM   12  C   UNL     1     -12.429  10.484  69.944  1.00  0.00    -0.122 C  
BRANCH  12  13
HETATM   13  N   UNL     1     -12.420  10.495  71.410  1.00  0.00    -0.397 NA 
HETATM   14  C   UNL     1     -13.178  11.613  71.971  1.00  0.00    -0.338 C  
BRANCH  13  15
HETATM   15  C   UNL     1     -12.892   9.205  71.980  1.00  0.00    -0.408 C  
BRANCH  15  16
HETATM   16  C   UNL     1     -11.885   8.221  72.655  1.00  0.00    -0.382 C  
BRANCH  16  17
HETATM   17  C   UNL     1     -11.371   7.084  71.742  1.00  0.00    -0.291 C  
BRANCH  17  18
HETATM   18  C   UNL     1      -9.859   7.003  71.394  1.00  0.00    -0.180 C  
HETATM   19  N   UNL     1      -8.648   8.740  73.015  1.00  0.00    -0.317 NA 
HETATM   20  C   UNL     1      -9.258   5.563  71.767  1.00  0.00    -0.158 C  
HETATM   21  C   UNL     1      -9.163   7.984  72.299  1.00  0.00    -0.182 C  
HETATM   22  C   UNL     1      -9.838   4.362  71.001  1.00  0.00    -0.260 C  
HETATM   23  C   UNL     1      -9.394   5.216  73.265  1.00  0.00    -0.139 C  
BRANCH  18  24
HETATM   24  C   UNL     1      -9.703   7.367  69.913  1.00  0.00    -0.171 A  
HETATM   25  C   UNL     1     -10.503   6.777  68.920  1.00  0.00    -0.229 A  
HETATM   26  C   UNL     1     -10.244   6.956  67.557  1.00  0.00    -0.194 A  
HETATM   27  C   UNL     1      -8.648   8.195  69.489  1.00  0.00    -0.134 A  
HETATM   28  C   UNL     1      -9.173   7.778  67.167  1.00  0.00    -0.146 A  
HETATM   29  C   UNL     1      -8.403   8.410  68.137  1.00  0.00    -0.128 A  
BRANCH  26  30
HETATM   30  O   UNL     1     -10.960   6.349  66.558  1.00  0.00    -0.216 OA 
HETATM   31  C   UNL     1     -10.590   5.021  66.206  1.00  0.00    -0.276 C  
ENDBRANCH  26  30
BRANCH  28  32
HETATM   32  O   UNL     1      -8.933   7.878  65.817  1.00  0.00    -0.155 OA 
HETATM   33  C   UNL     1      -8.855   9.193  65.279  1.00  0.00    -0.199 C  
ENDBRANCH  28  32
ENDBRANCH  18  24
ENDBRANCH  17  18
ENDBRANCH  16  17
ENDBRANCH  15  16
ENDBRANCH  13  15
ENDBRANCH  12  13
ENDBRANCH  11  12
ENDBRANCH   7  11
ENDBRANCH   2   3
TORSDOF 12
ENDMDL
MODEL      101
REMARK 921   NORMALIZED FREE ENERGY PREDICTED BY IDOCK:   -4.93 KCAL/MOL
REMARK 922        TOTAL FREE ENERGY PREDICTED BY IDOCK:  -10.62 KCAL/MOL
REMARK 923 INTER-LIGAND FREE ENERGY PREDICTED BY IDOCK:   -8.54 KCAL/MOL
REMARK 924 INTRA-LIGAND FREE ENERGY PREDICTED BY IDOCK:   -2.08 KCAL/MOL
REMARK 927      BINDING AFFINITY PREDICTED BY RF-SCORE:    0.00 PKD
ROOT
HETATM    1  C   UNL     1     -10.376  19.776  66.031  1.00  0.00    -0.511 C  
HETATM    2  O   UNL     1     -10.880  18.880  67.016  1.00  0.00    -0.427 OA 
ENDROOT
BRANCH   2   3
HETATM    3  C   UNL     1      -9.958  18.059  67.620  1.00  0.00    -0.329 A  
HETATM    4  C   UNL     1     -10.222  16.916  68.393  1.00  0.00    -0.322 A  
HETATM    5  C   UNL     1      -7.578  17.807  68.067  1.00  0.00    -0.236 A  
HETATM    6  C   UNL     1      -9.148  16.228  68.985  1.00  0.00    -0.255 A  
HETATM    7  C   UNL     1      -7.822  16.656  68.827  1.00  0.00    -0.238 A  
HETATM    8  C   UNL     1      -8.638  18.502  67.477  1.00  0.00    -0.272 A  
BRANCH   4   9
HETATM    9  O   UNL     1     -11.530  16.558  68.580  1.00  0.00    -0.317 OA 
HETATM   10  C   UNL     1     -11.811  15.564  69.555  1.00  0.00    -0.372 C  
ENDBRANCH   4   9
BRANCH   7  11
HETATM   11  C   UNL     1      -6.710  15.977  69.625  1.00  0.00    -0.171 C  
BRANCH  11  12
HETATM   12  C   UNL     1      -5.870  15.166  68.629  1.00  0.00    -0.089 C  
BRANCH  12  13
HETATM   13  N   UNL     1      -5.968  13.708  68.498  1.00  0.00    -0.085 NA 
HETATM   14  C   UNL     1      -6.216  13.041  69.774  1.00  0.00    -0.104 C  
BRANCH  13  15
HETATM   15  C   UNL     1      -6.986  13.307  67.491  1.00  0.00    -0.144 C  
BRANCH  15  16
HETATM   16  C   UNL     1      -8.429  12.913  67.936  1.00  0.00    -0.181 C  
BRANCH  16  17
HETATM   17  C   UNL     1      -9.526  13.139  66.871  1.00  0.00    -0.244 C  
BRANCH  17  18
HETATM   18  C   UNL     1     -10.662  12.091  66.704  1.00  0.00    -0.280 C  
HETATM   19  N   UNL     1     -11.798  11.866  69.106  1.00  0.00    -0.311 NA 
HETATM   20  C   UNL     1     -11.810  12.636  65.725  1.00  0.00    -0.497 C  
HETATM   21  C   UNL     1     -11.309  11.949  68.055  1.00  0.00    -0.288 C  
HETATM   22  C   UNL     1     -11.394  12.907  64.270  1.00  0.00    -0.417 C  
HETATM   23  C   UNL     1     -12.470  13.938  66.226  1.00  0.00    -0.454 C  
BRANCH  18  24
HETATM   24  C   UNL     1     -10.020  10.783  66.228  1.00  0.00    -0.272 A  
HETATM   25  C   UNL     1     -10.195   9.577  66.928  1.00  0.00    -0.317 A  
HETATM   26  C   UNL     1      -9.465   8.426  66.614  1.00  0.00    -0.205 A  
HETATM   27  C   UNL     1      -9.111  10.784  65.154  1.00  0.00    -0.225 A  
HETATM   28  C   UNL     1      -8.553   8.465  65.546  1.00  0.00    -0.176 A  
HETATM   29  C   UNL     1      -8.406   9.636  64.811  1.00  0.00    -0.156 A  
BRANCH  26  30
HETATM   30  O   UNL     1      -9.558   7.249  67.311  1.00  0.00    -0.140 OA 
HETATM   31  C   UNL     1     -10.841   6.639  67.389  1.00  0.00    -0.363 C  
ENDBRANCH  26  30
BRANCH  28  32
HETATM   32  O   UNL     1      -7.826   7.321  65.314  1.00  0.00    -0.106 OA 
HETATM   33  C   UNL     1      -6.461   7.495  64.953  1.00  0.00    -0.037 C  
ENDBRANCH  28  32
ENDBRANCH  18  24
ENDBRANCH  17  18
ENDBRANCH  16  17
ENDBRANCH  15  16
ENDBRANCH  13  15
ENDBRANCH  12  13
ENDBRANCH  11  12
ENDBRANCH   7  11
ENDBRANCH   2   3
TORSDOF 12
ENDMDL
MODEL      102
REMARK 921   NORMALIZED FREE ENERGY PREDICTED BY IDOCK:   -4.92 KCAL/MOL
REMARK 922        TOTAL FREE ENERGY PREDICTED BY IDOCK:  -10.59 KCAL/MOL
REMARK 923 INTER-LIGAND FREE ENERGY PREDICTED BY IDOCK:   -8.99 KCAL/MOL
REMARK 924 INTRA-LIGAND FREE ENERGY PREDICTED BY IDOCK:   -1.60 KCAL/MOL
REMARK 927      BINDING AFFINITY PREDICTED BY RF-SCORE:    0.00 PKD
ROOT
HETATM    1  C   UNL     1     -10.366  20.036  66.184  1.00  0.00    -0.458 C  
HETATM    2  O   UNL     1     -10.767  18.889  65.441  1.00  0.00    -0.536 OA 
ENDROOT
BRANCH   2   3
HETATM    3  C   UNL     1     -10.276  17.681  65.874  1.00  0.00    -0.232 A  
HETATM    4  C   UNL     1     -10.540  16.415  65.326  1.00  0.00    -0.299 A  
HETATM    5  C   UNL     1      -8.953  16.639  67.633  1.00  0.00    -0.206 A  
HETATM    6  C   UNL     1      -9.992  15.276  65.941  1.00  0.00    -0.368 A  
HETATM    7  C   UNL     1      -9.193  15.371  67.089  1.00  0.00    -0.226 A  
HETATM    8  C   UNL     1      -9.496  17.780  67.032  1.00  0.00    -0.271 A  
BRANCH   4   9
HETATM    9  O   UNL     1     -11.373  16.349  64.241  1.00  0.00    -0.892 OA 
HETATM   10  C   UNL     1     -12.331  15.300  64.206  1.00  0.00    -0.121 C  
ENDBRANCH   4   9
BRANCH   7  11
HETATM   11  C   UNL     1      -8.761  14.097  67.815  1.00  0.00    -0.182 C  
BRANCH  11  12
HETATM   12  C   UNL     1      -7.230  14.040  67.755  1.00  0.00    -0.165 C  
BRANCH  12  13
HETATM   13  N   UNL     1      -6.471  12.785  67.789  1.00  0.00    -0.119 NA 
HETATM   14  C   UNL     1      -5.152  12.938  68.398  1.00  0.00    -0.069 C  
BRANCH  13  15
HETATM   15  C   UNL     1      -7.232  11.693  68.453  1.00  0.00    -0.088 C  
BRANCH  15  16
HETATM   16  C   UNL     1      -7.756  10.476  67.628  1.00  0.00    -0.097 C  
BRANCH  16  17
HETATM   17  C   UNL     1      -8.405  10.837  66.272  1.00  0.00    -0.160 C  
BRANCH  17  18
HETATM   18  C   UNL     1      -9.791  10.238  65.902  1.00  0.00    -0.298 C  
HETATM   19  N   UNL     1     -11.551  11.435  67.508  1.00  0.00    -0.558 NA 
HETATM   20  C   UNL     1     -10.213  10.643  64.408  1.00  0.00    -0.400 C  
HETATM   21  C   UNL     1     -10.794  10.902  66.806  1.00  0.00    -0.224 C  
HETATM   22  C   UNL     1      -9.313  10.118  63.278  1.00  0.00    -0.332 C  
HETATM   23  C   UNL     1     -10.312  12.170  64.197  1.00  0.00    -0.382 C  
BRANCH  18  24
HETATM   24  C   UNL     1      -9.718   8.724  66.128  1.00  0.00    -0.320 A  
HETATM   25  C   UNL     1     -10.607   8.063  66.993  1.00  0.00    -0.364 A  
HETATM   26  C   UNL     1     -10.430   6.723  67.353  1.00  0.00    -0.262 A  
HETATM   27  C   UNL     1      -8.658   7.972  65.589  1.00  0.00    -0.167 A  
HETATM   28  C   UNL     1      -9.353   6.004  66.809  1.00  0.00    -0.138 A  
HETATM   29  C   UNL     1      -8.494   6.630  65.912  1.00  0.00    -0.145 A  
BRANCH  26  30
HETATM   30  O   UNL     1     -11.237   6.059  68.242  1.00  0.00    -0.273 OA 
HETATM   31  C   UNL     1     -11.178   6.466  69.604  1.00  0.00    -0.418 C  
ENDBRANCH  26  30
BRANCH  28  32
HETATM   32  O   UNL     1      -9.198   4.707  67.236  1.00  0.00    -0.118 OA 
HETATM   33  C   UNL     1      -8.045   4.015  66.771  1.00  0.00    -0.097 C  
ENDBRANCH  28  32
ENDBRANCH  18  24
ENDBRANCH  17  18
ENDBRANCH  16  17
ENDBRANCH  15  16
ENDBRANCH  13  15
ENDBRANCH  12  13
ENDBRANCH  11  12
ENDBRANCH   7  11
ENDBRANCH   2   3
TORSDOF 12
ENDMDL
MODEL      103
REMARK 921   NORMALIZED FREE ENERGY PREDICTED BY IDOCK:   -4.92 KCAL/MOL
REMARK 922        TOTAL FREE ENERGY PREDICTED BY IDOCK:  -10.59 KCAL/MOL
REMARK 923 INTER-LIGAND FREE ENERGY PREDICTED BY IDOCK:   -8.73 KCAL/MOL
REMARK 924 INTRA-LIGAND FREE ENERGY PREDICTED BY IDOCK:   -1.86 KCAL/MOL
REMARK 927      BINDING AFFINITY PREDICTED BY RF-SCORE:    0.00 PKD
ROOT
HETATM    1  C   UNL     1     -10.371  18.501  66.795  1.00  0.00    -0.401 C  
HETATM    2  O   UNL     1     -10.302  17.575  67.874  1.00  0.00    -0.336 OA 
ENDROOT
BRANCH   2   3
HETATM    3  C   UNL     1     -10.795  16.316  67.628  1.00  0.00    -0.293 A  
HETATM    4  C   UNL     1     -11.368  15.435  68.559  1.00  0.00    -0.335 A  
HETATM    5  C   UNL     1     -11.015  14.619  65.895  1.00  0.00    -0.332 A  
HETATM    6  C   UNL     1     -11.768  14.155  68.135  1.00  0.00    -0.390 A  
HETATM    7  C   UNL     1     -11.604  13.735  66.807  1.00  0.00    -0.394 A  
HETATM    8  C   UNL     1     -10.610  15.893  66.306  1.00  0.00    -0.301 A  
BRANCH   4   9
HETATM    9  O   UNL     1     -11.460  15.851  69.861  1.00  0.00    -0.308 OA 
HETATM   10  C   UNL     1     -12.635  15.509  70.584  1.00  0.00    -0.443 C  
ENDBRANCH   4   9
BRANCH   7  11
HETATM   11  C   UNL     1     -11.897  12.282  66.435  1.00  0.00    -0.382 C  
BRANCH  11  12
HETATM   12  C   UNL     1     -10.585  11.503  66.589  1.00  0.00    -0.253 C  
BRANCH  12  13
HETATM   13  N   UNL     1     -10.426  10.374  67.512  1.00  0.00    -0.227 NA 
HETATM   14  C   UNL     1      -9.046  10.204  67.963  1.00  0.00    -0.131 C  
BRANCH  13  15
HETATM   15  C   UNL     1     -11.349  10.471  68.673  1.00  0.00    -0.252 C  
BRANCH  15  16
HETATM   16  C   UNL     1     -10.827  10.226  70.124  1.00  0.00    -0.362 C  
BRANCH  16  17
HETATM   17  C   UNL     1     -11.165   8.839  70.715  1.00  0.00    -0.309 C  
BRANCH  17  18
HETATM   18  C   UNL     1     -10.035   7.789  70.905  1.00  0.00    -0.190 C  
HETATM   19  N   UNL     1      -7.847   9.182  71.523  1.00  0.00    -0.339 NA 
HETATM   20  C   UNL     1     -10.329   6.848  72.170  1.00  0.00    -0.221 C  
HETATM   21  C   UNL     1      -8.791   8.563  71.249  1.00  0.00    -0.190 C  
HETATM   22  C   UNL     1     -11.587   5.968  72.090  1.00  0.00    -0.348 C  
HETATM   23  C   UNL     1     -10.442   7.629  73.497  1.00  0.00    -0.284 C  
BRANCH  18  24
HETATM   24  C   UNL     1      -9.893   7.018  69.587  1.00  0.00    -0.166 A  
HETATM   25  C   UNL     1      -8.634   6.663  69.072  1.00  0.00    -0.130 A  
HETATM   26  C   UNL     1      -8.484   6.132  67.786  1.00  0.00    -0.115 A  
HETATM   27  C   UNL     1     -11.017   6.773  68.779  1.00  0.00    -0.267 A  
HETATM   28  C   UNL     1      -9.626   5.915  66.998  1.00  0.00    -0.132 A  
HETATM   29  C   UNL     1     -10.883   6.213  67.513  1.00  0.00    -0.422 A  
BRANCH  26  30
HETATM   30  O   UNL     1      -7.271   5.832  67.222  1.00  0.00    -0.073 OA 
HETATM   31  C   UNL     1      -6.125   5.903  68.063  1.00  0.00    -0.021 C  
ENDBRANCH  26  30
BRANCH  28  32
HETATM   32  O   UNL     1      -9.416   5.439  65.726  1.00  0.00    -0.154 OA 
HETATM   33  C   UNL     1     -10.143   4.275  65.352  1.00  0.00    -0.225 C  
ENDBRANCH  28  32
ENDBRANCH  18  24
ENDBRANCH  17  18
ENDBRANCH  16  17
ENDBRANCH  15  16
ENDBRANCH  13  15
ENDBRANCH  12  13
ENDBRANCH  11  12
ENDBRANCH   7  11
ENDBRANCH   2   3
TORSDOF 12
ENDMDL
MODEL      104
REMARK 921   NORMALIZED FREE ENERGY PREDICTED BY IDOCK:   -4.90 KCAL/MOL
REMARK 922        TOTAL FREE ENERGY PREDICTED BY IDOCK:  -10.57 KCAL/MOL
REMARK 923 INTER-LIGAND FREE ENERGY PREDICTED BY IDOCK:   -9.56 KCAL/MOL
REMARK 924 INTRA-LIGAND FREE ENERGY PREDICTED BY IDOCK:   -1.00 KCAL/MOL
REMARK 927      BINDING AFFINITY PREDICTED BY RF-SCORE:    0.00 PKD
ROOT
HETATM    1  C   UNL     1      -7.755   5.445  71.573  1.00  0.00    -0.105 C  
HETATM    2  O   UNL     1      -9.081   4.933  71.662  1.00  0.00    -0.135 OA 
ENDROOT
BRANCH   2   3
HETATM    3  C   UNL     1     -10.093   5.863  71.665  1.00  0.00    -0.190 A  
HETATM    4  C   UNL     1     -10.957   6.177  70.602  1.00  0.00    -0.311 A  
HETATM    5  C   UNL     1     -11.120   7.614  73.009  1.00  0.00    -0.437 A  
HETATM    6  C   UNL     1     -11.902   7.205  70.769  1.00  0.00    -0.367 A  
HETATM    7  C   UNL     1     -12.000   7.927  71.966  1.00  0.00    -0.364 A  
HETATM    8  C   UNL     1     -10.173   6.596  72.854  1.00  0.00    -0.215 A  
BRANCH   4   9
HETATM    9  O   UNL     1     -10.796   5.495  69.425  1.00  0.00    -0.298 OA 
HETATM   10  C   UNL     1     -10.999   6.210  68.214  1.00  0.00    -0.308 C  
ENDBRANCH   4   9
BRANCH   7  11
HETATM   11  C   UNL     1     -12.924   9.142  72.040  1.00  0.00    -0.496 C  
BRANCH  11  12
HETATM   12  C   UNL     1     -12.184  10.314  71.383  1.00  0.00    -0.383 C  
BRANCH  12  13
HETATM   13  N   UNL     1     -12.854  11.542  70.944  1.00  0.00    -0.255 NA 
HETATM   14  C   UNL     1     -13.242  12.404  72.059  1.00  0.00    -0.409 C  
BRANCH  13  15
HETATM   15  C   UNL     1     -12.039  12.298  69.956  1.00  0.00    -0.273 C  
BRANCH  15  16
HETATM   16  C   UNL     1     -11.330  11.557  68.779  1.00  0.00    -0.327 C  
BRANCH  16  17
HETATM   17  C   UNL     1     -11.352  12.307  67.428  1.00  0.00    -0.389 C  
BRANCH  17  18
HETATM   18  C   UNL     1     -10.045  12.425  66.595  1.00  0.00    -0.234 C  
HETATM   19  N   UNL     1      -8.117  11.391  68.120  1.00  0.00    -0.130 NA 
HETATM   20  C   UNL     1     -10.111  11.503  65.284  1.00  0.00    -0.314 C  
HETATM   21  C   UNL     1      -8.946  11.850  67.447  1.00  0.00    -0.173 C  
HETATM   22  C   UNL     1     -11.193  11.859  64.252  1.00  0.00    -0.424 C  
HETATM   23  C   UNL     1     -10.305  10.005  65.603  1.00  0.00    -0.171 C  
BRANCH  18  24
HETATM   24  C   UNL     1      -9.824  13.911  66.288  1.00  0.00    -0.318 A  
HETATM   25  C   UNL     1      -8.749  14.627  66.842  1.00  0.00    -0.251 A  
HETATM   26  C   UNL     1      -8.647  16.017  66.725  1.00  0.00    -0.257 A  
HETATM   27  C   UNL     1     -10.781  14.639  65.559  1.00  0.00    -0.360 A  
HETATM   28  C   UNL     1      -9.628  16.717  66.003  1.00  0.00    -0.234 A  
HETATM   29  C   UNL     1     -10.671  16.017  65.406  1.00  0.00    -0.399 A  
BRANCH  26  30
HETATM   30  O   UNL     1      -7.650  16.761  67.303  1.00  0.00    -0.156 OA 
HETATM   31  C   UNL     1      -6.419  16.100  67.576  1.00  0.00    -0.172 C  
ENDBRANCH  26  30
BRANCH  28  32
HETATM   32  O   UNL     1      -9.505  18.085  65.962  1.00  0.00    -0.504 OA 
HETATM   33  C   UNL     1     -10.694  18.825  65.707  1.00  0.00    -0.207 C  
ENDBRANCH  28  32
ENDBRANCH  18  24
ENDBRANCH  17  18
ENDBRANCH  16  17
ENDBRANCH  15  16
ENDBRANCH  13  15
ENDBRANCH  12  13
ENDBRANCH  11  12
ENDBRANCH   7  11
ENDBRANCH   2   3
TORSDOF 12
ENDMDL
MODEL      105
REMARK 921   NORMALIZED FREE ENERGY PREDICTED BY IDOCK:   -4.90 KCAL/MOL
REMARK 922        TOTAL FREE ENERGY PREDICTED BY IDOCK:  -10.55 KCAL/MOL
REMARK 923 INTER-LIGAND FREE ENERGY PREDICTED BY IDOCK:   -8.40 KCAL/MOL
REMARK 924 INTRA-LIGAND FREE ENERGY PREDICTED BY IDOCK:   -2.16 KCAL/MOL
REMARK 927      BINDING AFFINITY PREDICTED BY RF-SCORE:    0.00 PKD
ROOT
HETATM    1  C   UNL     1     -10.110  19.113  67.093  1.00  0.00    -0.373 C  
HETATM    2  O   UNL     1     -10.955  18.028  67.464  1.00  0.00    -0.314 OA 
ENDROOT
BRANCH   2   3
HETATM    3  C   UNL     1     -10.364  16.788  67.518  1.00  0.00    -0.301 A  
HETATM    4  C   UNL     1     -10.254  15.952  68.642  1.00  0.00    -0.223 A  
HETATM    5  C   UNL     1      -9.076  15.189  66.209  1.00  0.00    -0.313 A  
HETATM    6  C   UNL     1      -9.560  14.735  68.523  1.00  0.00    -0.218 A  
HETATM    7  C   UNL     1      -8.972  14.337  67.314  1.00  0.00    -0.221 A  
HETATM    8  C   UNL     1      -9.760  16.405  66.315  1.00  0.00    -0.332 A  
BRANCH   4   9
HETATM    9  O   UNL     1     -10.786  16.395  69.823  1.00  0.00    -0.322 OA 
HETATM   10  C   UNL     1     -11.840  15.637  70.400  1.00  0.00    -0.370 C  
ENDBRANCH   4   9
BRANCH   7  11
HETATM   11  C   UNL     1      -8.089  13.090  67.280  1.00  0.00    -0.164 C  
BRANCH  11  12
HETATM   12  C   UNL     1      -7.778  12.717  68.736  1.00  0.00     0.007 C  
BRANCH  12  13
HETATM   13  N   UNL     1      -6.807  11.683  69.109  1.00  0.00    -0.106 NA 
HETATM   14  C   UNL     1      -5.765  12.183  70.002  1.00  0.00    -0.141 C  
BRANCH  13  15
HETATM   15  C   UNL     1      -7.467  10.485  69.694  1.00  0.00    -0.141 C  
BRANCH  15  16
HETATM   16  C   UNL     1      -8.975  10.193  69.410  1.00  0.00    -0.205 C  
BRANCH  16  17
HETATM   17  C   UNL     1      -9.259   8.835  68.728  1.00  0.00    -0.141 C  
BRANCH  17  18
HETATM   18  C   UNL     1      -9.134   8.711  67.183  1.00  0.00    -0.156 C  
HETATM   19  N   UNL     1      -6.537   8.979  66.643  1.00  0.00    -0.067 NA 
HETATM   20  C   UNL     1      -9.536   7.239  66.689  1.00  0.00    -0.228 C  
HETATM   21  C   UNL     1      -7.672   8.867  66.864  1.00  0.00    -0.098 C  
HETATM   22  C   UNL     1     -10.990   6.808  66.938  1.00  0.00    -0.370 C  
HETATM   23  C   UNL     1      -8.654   6.129  67.302  1.00  0.00    -0.103 C  
BRANCH  18  24
HETATM   24  C   UNL     1      -9.987   9.821  66.558  1.00  0.00    -0.304 A  
HETATM   25  C   UNL     1      -9.827  10.208  65.217  1.00  0.00    -0.388 A  
HETATM   26  C   UNL     1     -10.459  11.339  64.692  1.00  0.00    -0.325 A  
HETATM   27  C   UNL     1     -10.854  10.590  67.355  1.00  0.00    -0.349 A  
HETATM   28  C   UNL     1     -11.307  12.095  65.519  1.00  0.00    -0.344 A  
HETATM   29  C   UNL     1     -11.516  11.696  66.835  1.00  0.00    -0.320 A  
BRANCH  26  30
HETATM   30  O   UNL     1     -10.280  11.787  63.408  1.00  0.00    -0.392 OA 
HETATM   31  C   UNL     1      -9.308  11.117  62.614  1.00  0.00    -0.304 C  
ENDBRANCH  26  30
BRANCH  28  32
HETATM   32  O   UNL     1     -11.862  13.224  64.967  1.00  0.00    -0.325 OA 
HETATM   33  C   UNL     1     -12.645  14.039  65.831  1.00  0.00    -0.449 C  
ENDBRANCH  28  32
ENDBRANCH  18  24
ENDBRANCH  17  18
ENDBRANCH  16  17
ENDBRANCH  15  16
ENDBRANCH  13  15
ENDBRANCH  12  13
ENDBRANCH  11  12
ENDBRANCH   7  11
ENDBRANCH   2   3
TORSDOF 12
ENDMDL
MODEL      106
REMARK 921   NORMALIZED FREE ENERGY PREDICTED BY IDOCK:   -4.89 KCAL/MOL
REMARK 922        TOTAL FREE ENERGY PREDICTED BY IDOCK:  -10.54 KCAL/MOL
REMARK 923 INTER-LIGAND FREE ENERGY PREDICTED BY IDOCK:   -9.15 KCAL/MOL
REMARK 924 INTRA-LIGAND FREE ENERGY PREDICTED BY IDOCK:   -1.40 KCAL/MOL
REMARK 927      BINDING AFFINITY PREDICTED BY RF-SCORE:    0.00 PKD
ROOT
HETATM    1  C   UNL     1     -10.439  19.213  66.050  1.00  0.00    -0.467 C  
HETATM    2  O   UNL     1      -9.685  18.006  65.988  1.00  0.00    -0.503 OA 
ENDROOT
BRANCH   2   3
HETATM    3  C   UNL     1     -10.406  16.837  66.016  1.00  0.00    -0.335 A  
HETATM    4  C   UNL     1     -10.672  16.034  67.138  1.00  0.00    -0.283 A  
HETATM    5  C   UNL     1     -11.538  15.217  64.594  1.00  0.00    -0.357 A  
HETATM    6  C   UNL     1     -11.383  14.833  66.966  1.00  0.00    -0.358 A  
HETATM    7  C   UNL     1     -11.827  14.414  65.704  1.00  0.00    -0.355 A  
HETATM    8  C   UNL     1     -10.828  16.412  64.751  1.00  0.00    -0.197 A  
BRANCH   4   9
HETATM    9  O   UNL     1     -10.174  16.439  68.347  1.00  0.00    -0.239 OA 
HETATM   10  C   UNL     1     -10.796  15.936  69.521  1.00  0.00    -0.305 C  
ENDBRANCH   4   9
BRANCH   7  11
HETATM   11  C   UNL     1     -12.444  13.025  65.545  1.00  0.00    -0.496 C  
BRANCH  11  12
HETATM   12  C   UNL     1     -11.298  12.054  65.235  1.00  0.00    -0.312 C  
BRANCH  12  13
HETATM   13  N   UNL     1     -10.541  11.348  66.274  1.00  0.00    -0.256 NA 
HETATM   14  C   UNL     1     -11.313  11.149  67.499  1.00  0.00    -0.278 C  
BRANCH  13  15
HETATM   15  C   UNL     1      -9.995  10.054  65.783  1.00  0.00    -0.276 C  
BRANCH  15  16
HETATM   16  C   UNL     1     -10.155   8.753  66.631  1.00  0.00    -0.358 C  
BRANCH  16  17
HETATM   17  C   UNL     1      -8.952   8.415  67.541  1.00  0.00    -0.142 C  
BRANCH  17  18
HETATM   18  C   UNL     1      -9.018   7.169  68.468  1.00  0.00    -0.127 C  
HETATM   19  N   UNL     1     -10.219   5.265  67.039  1.00  0.00    -0.214 NA 
HETATM   20  C   UNL     1      -7.548   6.614  68.792  1.00  0.00    -0.104 C  
HETATM   21  C   UNL     1      -9.700   6.087  67.675  1.00  0.00    -0.115 C  
HETATM   22  C   UNL     1      -6.618   7.557  69.572  1.00  0.00    -0.036 C  
HETATM   23  C   UNL     1      -6.764   6.194  67.529  1.00  0.00    -0.058 C  
BRANCH  18  24
HETATM   24  C   UNL     1      -9.813   7.562  69.718  1.00  0.00    -0.180 A  
HETATM   25  C   UNL     1     -10.548   6.616  70.453  1.00  0.00    -0.266 A  
HETATM   26  C   UNL     1     -11.426   6.991  71.475  1.00  0.00    -0.271 A  
HETATM   27  C   UNL     1      -9.952   8.914  70.080  1.00  0.00    -0.204 A  
HETATM   28  C   UNL     1     -11.553   8.352  71.801  1.00  0.00    -0.308 A  
HETATM   29  C   UNL     1     -10.794   9.296  71.118  1.00  0.00    -0.407 A  
BRANCH  26  30
HETATM   30  O   UNL     1     -12.208   6.107  72.173  1.00  0.00    -0.319 OA 
HETATM   31  C   UNL     1     -11.544   5.195  73.040  1.00  0.00    -0.223 C  
ENDBRANCH  26  30
BRANCH  28  32
HETATM   32  O   UNL     1     -12.466   8.669  72.779  1.00  0.00    -0.320 OA 
HETATM   33  C   UNL     1     -13.756   9.076  72.339  1.00  0.00    -0.479 C  
ENDBRANCH  28  32
ENDBRANCH  18  24
ENDBRANCH  17  18
ENDBRANCH  16  17
ENDBRANCH  15  16
ENDBRANCH  13  15
ENDBRANCH  12  13
ENDBRANCH  11  12
ENDBRANCH   7  11
ENDBRANCH   2   3
TORSDOF 12
ENDMDL
MODEL      107
REMARK 921   NORMALIZED FREE ENERGY PREDICTED BY IDOCK:   -4.89 KCAL/MOL
REMARK 922        TOTAL FREE ENERGY PREDICTED BY IDOCK:  -10.54 KCAL/MOL
REMARK 923 INTER-LIGAND FREE ENERGY PREDICTED BY IDOCK:   -8.51 KCAL/MOL
REMARK 924 INTRA-LIGAND FREE ENERGY PREDICTED BY IDOCK:   -2.03 KCAL/MOL
REMARK 927      BINDING AFFINITY PREDICTED BY RF-SCORE:    0.00 PKD
ROOT
HETATM    1  C   UNL     1      -7.430   8.054  68.260  1.00  0.00    -0.100 C  
HETATM    2  O   UNL     1      -8.032   7.742  69.513  1.00  0.00    -0.112 OA 
ENDROOT
BRANCH   2   3
HETATM    3  C   UNL     1      -9.207   8.392  69.802  1.00  0.00    -0.157 A  
HETATM    4  C   UNL     1     -10.504   7.853  69.763  1.00  0.00    -0.233 A  
HETATM    5  C   UNL     1     -10.136  10.573  70.359  1.00  0.00     0.462 A  
HETATM    6  C   UNL     1     -11.601   8.690  70.036  1.00  0.00     0.166 A  
HETATM    7  C   UNL     1     -11.433  10.048  70.341  1.00  0.00    -0.389 A  
HETATM    8  C   UNL     1      -9.037   9.752  70.085  1.00  0.00    -0.240 A  
BRANCH   4   9
HETATM    9  O   UNL     1     -10.640   6.539  69.403  1.00  0.00    -0.204 OA 
HETATM   10  C   UNL     1     -10.923   6.252  68.040  1.00  0.00    -0.327 C  
ENDBRANCH   4   9
BRANCH   7  11
HETATM   11  C   UNL     1     -12.661  10.950  70.464  1.00  0.00    -0.409 C  
BRANCH  11  12
HETATM   12  C   UNL     1     -12.157  12.399  70.483  1.00  0.00    -0.275 C  
BRANCH  12  13
HETATM   13  N   UNL     1     -12.896  13.497  71.113  1.00  0.00    -0.331 NA 
HETATM   14  C   UNL     1     -13.500  13.114  72.388  1.00  0.00    -0.543 C  
BRANCH  13  15
HETATM   15  C   UNL     1     -12.055  14.713  71.277  1.00  0.00    -0.350 C  
BRANCH  15  16
HETATM   16  C   UNL     1     -11.719  15.616  70.048  1.00  0.00    -0.369 C  
BRANCH  16  17
HETATM   17  C   UNL     1     -10.264  15.511  69.538  1.00  0.00    -0.279 C  
BRANCH  17  18
HETATM   18  C   UNL     1      -9.917  15.994  68.102  1.00  0.00    -0.228 C  
HETATM   19  N   UNL     1     -10.833  18.493  67.938  1.00  0.00    -0.295 NA 
HETATM   20  C   UNL     1      -8.329  16.094  67.896  1.00  0.00    -0.165 C  
HETATM   21  C   UNL     1     -10.434  17.403  67.994  1.00  0.00    -0.383 C  
HETATM   22  C   UNL     1      -7.543  14.777  68.000  1.00  0.00    -0.130 C  
HETATM   23  C   UNL     1      -7.648  17.072  68.877  1.00  0.00    -0.233 C  
BRANCH  18  24
HETATM   24  C   UNL     1     -10.605  15.045  67.115  1.00  0.00    -0.295 A  
HETATM   25  C   UNL     1     -10.924  13.721  67.463  1.00  0.00    -0.285 A  
HETATM   26  C   UNL     1     -11.374  12.795  66.517  1.00  0.00    -0.322 A  
HETATM   27  C   UNL     1     -10.802  15.428  65.776  1.00  0.00    -0.349 A  
HETATM   28  C   UNL     1     -11.546  13.206  65.185  1.00  0.00    -0.318 A  
HETATM   29  C   UNL     1     -11.283  14.526  64.834  1.00  0.00    -0.395 A  
BRANCH  26  30
HETATM   30  O   UNL     1     -11.635  11.479  66.802  1.00  0.00    -0.492 OA 
HETATM   31  C   UNL     1     -10.524  10.592  66.863  1.00  0.00    -0.249 C  
ENDBRANCH  26  30
BRANCH  28  32
HETATM   32  O   UNL     1     -11.942  12.242  64.288  1.00  0.00    -0.376 OA 
HETATM   33  C   UNL     1     -11.049  11.963  63.216  1.00  0.00    -0.308 C  
ENDBRANCH  28  32
ENDBRANCH  18  24
ENDBRANCH  17  18
ENDBRANCH  16  17
ENDBRANCH  15  16
ENDBRANCH  13  15
ENDBRANCH  12  13
ENDBRANCH  11  12
ENDBRANCH   7  11
ENDBRANCH   2   3
TORSDOF 12
ENDMDL
MODEL      108
REMARK 921   NORMALIZED FREE ENERGY PREDICTED BY IDOCK:   -4.88 KCAL/MOL
REMARK 922        TOTAL FREE ENERGY PREDICTED BY IDOCK:  -10.53 KCAL/MOL
REMARK 923 INTER-LIGAND FREE ENERGY PREDICTED BY IDOCK:   -8.66 KCAL/MOL
REMARK 924 INTRA-LIGAND FREE ENERGY PREDICTED BY IDOCK:   -1.87 KCAL/MOL
REMARK 927      BINDING AFFINITY PREDICTED BY RF-SCORE:    0.00 PKD
ROOT
HETATM    1  C   UNL     1     -10.065  16.604  68.462  1.00  0.00    -0.266 C  
HETATM    2  O   UNL     1     -11.432  16.204  68.433  1.00  0.00    -0.369 OA 
ENDROOT
BRANCH   2   3
HETATM    3  C   UNL     1     -11.774  15.152  69.249  1.00  0.00    -0.329 A  
HETATM    4  C   UNL     1     -11.786  13.789  68.911  1.00  0.00    -0.360 A  
HETATM    5  C   UNL     1     -12.653  14.608  71.454  1.00  0.00    -0.404 A  
HETATM    6  C   UNL     1     -12.224  12.852  69.863  1.00  0.00    -0.258 A  
HETATM    7  C   UNL     1     -12.654  13.244  71.139  1.00  0.00    -0.412 A  
HETATM    8  C   UNL     1     -12.223  15.550  70.513  1.00  0.00    -0.444 A  
BRANCH   4   9
HETATM    9  O   UNL     1     -11.418  13.442  67.638  1.00  0.00    -0.285 OA 
HETATM   10  C   UNL     1     -12.383  13.594  66.606  1.00  0.00    -0.331 C  
ENDBRANCH   4   9
BRANCH   7  11
HETATM   11  C   UNL     1     -13.277  12.209  72.075  1.00  0.00    -0.496 C  
BRANCH  11  12
HETATM   12  C   UNL     1     -13.229  10.858  71.351  1.00  0.00    -0.258 C  
BRANCH  12  13
HETATM   13  N   UNL     1     -13.142   9.573  72.054  1.00  0.00    -0.413 NA 
HETATM   14  C   UNL     1     -14.131   8.605  71.585  1.00  0.00    -0.400 C  
BRANCH  13  15
HETATM   15  C   UNL     1     -11.773   8.996  71.991  1.00  0.00    -0.347 C  
BRANCH  15  16
HETATM   16  C   UNL     1     -10.740   9.517  70.943  1.00  0.00    -0.403 C  
BRANCH  16  17
HETATM   17  C   UNL     1     -10.484   8.567  69.751  1.00  0.00    -0.220 C  
BRANCH  17  18
HETATM   18  C   UNL     1      -9.114   7.843  69.626  1.00  0.00    -0.153 C  
HETATM   19  N   UNL     1      -7.557   8.912  71.509  1.00  0.00    -0.274 NA 
HETATM   20  C   UNL     1      -9.247   6.288  69.997  1.00  0.00    -0.157 C  
HETATM   21  C   UNL     1      -8.222   8.441  70.681  1.00  0.00    -0.116 C  
HETATM   22  C   UNL     1     -10.151   5.444  69.084  1.00  0.00    -0.293 C  
HETATM   23  C   UNL     1      -9.754   6.047  71.435  1.00  0.00    -0.189 C  
BRANCH  18  24
HETATM   24  C   UNL     1      -8.585   8.092  68.209  1.00  0.00    -0.130 A  
HETATM   25  C   UNL     1      -9.264   8.926  67.304  1.00  0.00    -0.164 A  
HETATM   26  C   UNL     1      -8.898   9.010  65.957  1.00  0.00    -0.175 A  
HETATM   27  C   UNL     1      -7.480   7.371  67.723  1.00  0.00    -0.101 A  
HETATM   28  C   UNL     1      -7.799   8.264  65.499  1.00  0.00    -0.107 A  
HETATM   29  C   UNL     1      -7.085   7.474  66.393  1.00  0.00    -0.071 A  
BRANCH  26  30
HETATM   30  O   UNL     1      -9.572   9.761  65.028  1.00  0.00    -0.276 OA 
HETATM   31  C   UNL     1      -9.873  11.108  65.375  1.00  0.00    -0.242 C  
ENDBRANCH  26  30
BRANCH  28  32
HETATM   32  O   UNL     1      -7.515   8.345  64.157  1.00  0.00    -0.101 OA 
HETATM   33  C   UNL     1      -7.597   7.134  63.413  1.00  0.00    -0.112 C  
ENDBRANCH  28  32
ENDBRANCH  18  24
ENDBRANCH  17  18
ENDBRANCH  16  17
ENDBRANCH  15  16
ENDBRANCH  13  15
ENDBRANCH  12  13
ENDBRANCH  11  12
ENDBRANCH   7  11
ENDBRANCH   2   3
TORSDOF 12
ENDMDL
MODEL      109
REMARK 921   NORMALIZED FREE ENERGY PREDICTED BY IDOCK:   -4.87 KCAL/MOL
REMARK 922        TOTAL FREE ENERGY PREDICTED BY IDOCK:  -10.51 KCAL/MOL
REMARK 923 INTER-LIGAND FREE ENERGY PREDICTED BY IDOCK:   -9.15 KCAL/MOL
REMARK 924 INTRA-LIGAND FREE ENERGY PREDICTED BY IDOCK:   -1.36 KCAL/MOL
REMARK 927      BINDING AFFINITY PREDICTED BY RF-SCORE:    0.00 PKD
ROOT
HETATM    1  C   UNL     1     -10.347   2.353  74.546  1.00  0.00    -0.141 C  
HETATM    2  O   UNL     1      -9.664   2.471  73.302  1.00  0.00    -0.094 OA 
ENDROOT
BRANCH   2   3
HETATM    3  C   UNL     1     -10.063   3.502  72.485  1.00  0.00    -0.165 A  
HETATM    4  C   UNL     1      -9.769   3.661  71.121  1.00  0.00    -0.175 A  
HETATM    5  C   UNL     1     -11.211   5.649  72.484  1.00  0.00    -0.346 A  
HETATM    6  C   UNL     1     -10.216   4.816  70.455  1.00  0.00    -0.252 A  
HETATM    7  C   UNL     1     -10.942   5.815  71.120  1.00  0.00    -0.295 A  
HETATM    8  C   UNL     1     -10.768   4.506  73.158  1.00  0.00    -0.308 A  
BRANCH   4   9
HETATM    9  O   UNL     1      -9.007   2.699  70.513  1.00  0.00    -0.078 OA 
HETATM   10  C   UNL     1      -8.306   3.059  69.331  1.00  0.00    -0.059 C  
ENDBRANCH   4   9
BRANCH   7  11
HETATM   11  C   UNL     1     -11.258   7.124  70.398  1.00  0.00    -0.320 C  
BRANCH  11  12
HETATM   12  C   UNL     1     -10.787   8.267  71.307  1.00  0.00    -0.237 C  
BRANCH  12  13
HETATM   13  N   UNL     1     -10.280   9.544  70.793  1.00  0.00    -0.293 NA 
HETATM   14  C   UNL     1      -8.964   9.421  70.170  1.00  0.00    -0.227 C  
BRANCH  13  15
HETATM   15  C   UNL     1     -11.243  10.189  69.861  1.00  0.00    -0.287 C  
BRANCH  15  16
HETATM   16  C   UNL     1     -10.902  10.334  68.344  1.00  0.00    -0.288 C  
BRANCH  16  17
HETATM   17  C   UNL     1     -11.658  11.464  67.610  1.00  0.00    -0.315 C  
BRANCH  17  18
HETATM   18  C   UNL     1     -10.904  12.767  67.221  1.00  0.00    -0.277 C  
HETATM   19  N   UNL     1      -8.313  12.137  67.243  1.00  0.00    -0.172 NA 
HETATM   20  C   UNL     1     -11.239  13.199  65.713  1.00  0.00    -0.309 C  
HETATM   21  C   UNL     1      -9.438  12.427  67.235  1.00  0.00    -0.191 C  
HETATM   22  C   UNL     1     -12.703  13.563  65.416  1.00  0.00    -0.495 C  
HETATM   23  C   UNL     1     -10.850  12.127  64.672  1.00  0.00    -0.351 C  
BRANCH  18  24
HETATM   24  C   UNL     1     -11.262  13.837  68.259  1.00  0.00    -0.301 A  
HETATM   25  C   UNL     1     -10.635  15.095  68.269  1.00  0.00    -0.243 A  
HETATM   26  C   UNL     1     -10.812  16.002  69.318  1.00  0.00    -0.300 A  
HETATM   27  C   UNL     1     -12.125  13.535  69.327  1.00  0.00    -0.335 A  
HETATM   28  C   UNL     1     -11.670  15.663  70.378  1.00  0.00    -0.357 A  
HETATM   29  C   UNL     1     -12.338  14.444  70.357  1.00  0.00    -0.406 A  
BRANCH  26  30
HETATM   30  O   UNL     1     -10.171  17.212  69.398  1.00  0.00    -0.262 OA 
HETATM   31  C   UNL     1     -10.177  18.031  68.234  1.00  0.00    -0.395 C  
ENDBRANCH  26  30
BRANCH  28  32
HETATM   32  O   UNL     1     -11.768  16.570  71.406  1.00  0.00    -0.359 OA 
HETATM   33  C   UNL     1     -12.206  16.066  72.662  1.00  0.00    -0.522 C  
ENDBRANCH  28  32
ENDBRANCH  18  24
ENDBRANCH  17  18
ENDBRANCH  16  17
ENDBRANCH  15  16
ENDBRANCH  13  15
ENDBRANCH  12  13
ENDBRANCH  11  12
ENDBRANCH   7  11
ENDBRANCH   2   3
TORSDOF 12
ENDMDL
MODEL      110
REMARK 921   NORMALIZED FREE ENERGY PREDICTED BY IDOCK:   -4.87 KCAL/MOL
REMARK 922        TOTAL FREE ENERGY PREDICTED BY IDOCK:  -10.51 KCAL/MOL
REMARK 923 INTER-LIGAND FREE ENERGY PREDICTED BY IDOCK:   -9.02 KCAL/MOL
REMARK 924 INTRA-LIGAND FREE ENERGY PREDICTED BY IDOCK:   -1.49 KCAL/MOL
REMARK 927      BINDING AFFINITY PREDICTED BY RF-SCORE:    0.00 PKD
ROOT
HETATM    1  C   UNL     1     -11.471  16.019  70.786  1.00  0.00    -0.414 C  
HETATM    2  O   UNL     1     -12.469  15.238  70.137  1.00  0.00    -0.355 OA 
ENDROOT
BRANCH   2   3
HETATM    3  C   UNL     1     -12.476  13.895  70.430  1.00  0.00    -0.334 A  
HETATM    4  C   UNL     1     -12.004  12.850  69.619  1.00  0.00    -0.292 A  
HETATM    5  C   UNL     1     -13.232  12.268  72.077  1.00  0.00    -0.508 A  
HETATM    6  C   UNL     1     -12.146  11.523  70.061  1.00  0.00    -0.408 A  
HETATM    7  C   UNL     1     -12.751  11.216  71.288  1.00  0.00    -0.531 A  
HETATM    8  C   UNL     1     -13.099  13.593  71.646  1.00  0.00    -0.455 A  
BRANCH   4   9
HETATM    9  O   UNL     1     -11.473  13.177  68.399  1.00  0.00    -0.271 OA 
HETATM   10  C   UNL     1     -10.059  13.153  68.266  1.00  0.00    -0.247 C  
ENDBRANCH   4   9
BRANCH   7  11
HETATM   11  C   UNL     1     -13.033   9.758  71.645  1.00  0.00    -0.517 C  
BRANCH  11  12
HETATM   12  C   UNL     1     -12.085   8.895  70.804  1.00  0.00    -0.107 C  
BRANCH  12  13
HETATM   13  N   UNL     1     -10.937   8.177  71.369  1.00  0.00    -0.231 NA 
HETATM   14  C   UNL     1      -9.683   8.913  71.222  1.00  0.00    -0.289 C  
BRANCH  13  15
HETATM   15  C   UNL     1     -11.161   7.803  72.791  1.00  0.00    -0.398 C  
BRANCH  15  16
HETATM   16  C   UNL     1     -10.775   6.381  73.307  1.00  0.00    -0.288 C  
BRANCH  16  17
HETATM   17  C   UNL     1     -10.792   5.269  72.233  1.00  0.00    -0.269 C  
BRANCH  17  18
HETATM   18  C   UNL     1      -9.451   4.667  71.730  1.00  0.00    -0.205 C  
HETATM   19  N   UNL     1      -7.537   6.257  72.688  1.00  0.00    -0.100 NA 
HETATM   20  C   UNL     1      -9.188   3.224  72.378  1.00  0.00    -0.150 C  
HETATM   21  C   UNL     1      -8.361   5.559  72.259  1.00  0.00    -0.119 C  
HETATM   22  C   UNL     1     -10.199   2.121  72.023  1.00  0.00    -0.168 C  
HETATM   23  C   UNL     1      -9.117   3.253  73.920  1.00  0.00    -0.094 C  
BRANCH  18  24
HETATM   24  C   UNL     1      -9.495   4.651  70.198  1.00  0.00    -0.246 A  
HETATM   25  C   UNL     1     -10.225   5.608  69.471  1.00  0.00    -0.320 A  
HETATM   26  C   UNL     1     -10.429   5.492  68.092  1.00  0.00    -0.163 A  
HETATM   27  C   UNL     1      -8.927   3.585  69.478  1.00  0.00    -0.178 A  
HETATM   28  C   UNL     1      -9.860   4.407  67.405  1.00  0.00    -0.143 A  
HETATM   29  C   UNL     1      -9.092   3.480  68.101  1.00  0.00    -0.200 A  
BRANCH  26  30
HETATM   30  O   UNL     1     -11.186   6.368  67.356  1.00  0.00    -0.352 OA 
HETATM   31  C   UNL     1     -10.665   7.679  67.166  1.00  0.00    -0.290 C  
ENDBRANCH  26  30
BRANCH  28  32
HETATM   32  O   UNL     1     -10.134   4.316  66.061  1.00  0.00    -0.225 OA 
HETATM   33  C   UNL     1      -9.210   3.578  65.270  1.00  0.00    -0.153 C  
ENDBRANCH  28  32
ENDBRANCH  18  24
ENDBRANCH  17  18
ENDBRANCH  16  17
ENDBRANCH  15  16
ENDBRANCH  13  15
ENDBRANCH  12  13
ENDBRANCH  11  12
ENDBRANCH   7  11
ENDBRANCH   2   3
TORSDOF 12
ENDMDL
MODEL      111
REMARK 921   NORMALIZED FREE ENERGY PREDICTED BY IDOCK:   -4.86 KCAL/MOL
REMARK 922        TOTAL FREE ENERGY PREDICTED BY IDOCK:  -10.50 KCAL/MOL
REMARK 923 INTER-LIGAND FREE ENERGY PREDICTED BY IDOCK:   -8.64 KCAL/MOL
REMARK 924 INTRA-LIGAND FREE ENERGY PREDICTED BY IDOCK:   -1.86 KCAL/MOL
REMARK 927      BINDING AFFINITY PREDICTED BY RF-SCORE:    0.00 PKD
ROOT
HETATM    1  C   UNL     1     -13.968   7.973  71.635  1.00  0.00    -0.400 C  
HETATM    2  O   UNL     1     -13.027   6.968  71.272  1.00  0.00    -0.378 OA 
ENDROOT
BRANCH   2   3
HETATM    3  C   UNL     1     -11.723   7.379  71.131  1.00  0.00    -0.294 A  
HETATM    4  C   UNL     1     -10.858   7.094  70.062  1.00  0.00    -0.254 A  
HETATM    5  C   UNL     1      -9.917   8.543  72.276  1.00  0.00    -0.385 A  
HETATM    6  C   UNL     1      -9.530   7.553  70.115  1.00  0.00    -0.161 A  
HETATM    7  C   UNL     1      -9.046   8.282  71.210  1.00  0.00    -0.202 A  
HETATM    8  C   UNL     1     -11.239   8.088  72.236  1.00  0.00    -0.402 A  
BRANCH   4   9
HETATM    9  O   UNL     1     -11.341   6.328  69.034  1.00  0.00    -0.390 OA 
HETATM   10  C   UNL     1     -10.473   6.063  67.942  1.00  0.00    -0.234 C  
ENDBRANCH   4   9
BRANCH   7  11
HETATM   11  C   UNL     1      -7.557   8.612  71.298  1.00  0.00    -0.129 C  
BRANCH  11  12
HETATM   12  C   UNL     1      -7.270   9.691  70.245  1.00  0.00    -0.135 C  
BRANCH  12  13
HETATM   13  N   UNL     1      -6.216   9.564  69.233  1.00  0.00    -0.040 NA 
HETATM   14  C   UNL     1      -5.927   8.174  68.889  1.00  0.00    -0.039 C  
BRANCH  13  15
HETATM   15  C   UNL     1      -6.521  10.354  68.011  1.00  0.00    -0.060 C  
BRANCH  15  16
HETATM   16  C   UNL     1      -7.987  10.472  67.488  1.00  0.00    -0.107 C  
BRANCH  16  17
HETATM   17  C   UNL     1      -8.653  11.848  67.715  1.00  0.00    -0.154 C  
BRANCH  17  18
HETATM   18  C   UNL     1      -9.920  12.232  66.901  1.00  0.00    -0.223 C  
HETATM   19  N   UNL     1      -9.984  10.556  64.828  1.00  0.00    -0.325 NA 
HETATM   20  C   UNL     1     -11.255  11.942  67.741  1.00  0.00    -0.330 C  
HETATM   21  C   UNL     1      -9.966  11.296  65.723  1.00  0.00    -0.237 C  
HETATM   22  C   UNL     1     -11.436  12.751  69.036  1.00  0.00    -0.360 C  
HETATM   23  C   UNL     1     -11.411  10.459  68.144  1.00  0.00    -0.284 C  
BRANCH  18  24
HETATM   24  C   UNL     1      -9.772  13.696  66.473  1.00  0.00    -0.298 A  
HETATM   25  C   UNL     1      -8.751  14.515  66.987  1.00  0.00    -0.256 A  
HETATM   26  C   UNL     1      -8.720  15.894  66.754  1.00  0.00    -0.269 A  
HETATM   27  C   UNL     1     -10.747  14.307  65.665  1.00  0.00    -0.321 A  
HETATM   28  C   UNL     1      -9.719  16.475  65.954  1.00  0.00    -0.270 A  
HETATM   29  C   UNL     1     -10.706  15.670  65.396  1.00  0.00    -0.424 A  
BRANCH  26  30
HETATM   30  O   UNL     1      -7.780  16.738  67.288  1.00  0.00    -0.156 OA 
HETATM   31  C   UNL     1      -7.782  16.903  68.702  1.00  0.00    -0.235 C  
ENDBRANCH  26  30
BRANCH  28  32
HETATM   32  O   UNL     1      -9.669  17.840  65.799  1.00  0.00    -0.534 OA 
HETATM   33  C   UNL     1     -10.564  18.606  66.596  1.00  0.00    -0.359 C  
ENDBRANCH  28  32
ENDBRANCH  18  24
ENDBRANCH  17  18
ENDBRANCH  16  17
ENDBRANCH  15  16
ENDBRANCH  13  15
ENDBRANCH  12  13
ENDBRANCH  11  12
ENDBRANCH   7  11
ENDBRANCH   2   3
TORSDOF 12
ENDMDL
MODEL      112
REMARK 921   NORMALIZED FREE ENERGY PREDICTED BY IDOCK:   -4.85 KCAL/MOL
REMARK 922        TOTAL FREE ENERGY PREDICTED BY IDOCK:  -10.48 KCAL/MOL
REMARK 923 INTER-LIGAND FREE ENERGY PREDICTED BY IDOCK:   -7.69 KCAL/MOL
REMARK 924 INTRA-LIGAND FREE ENERGY PREDICTED BY IDOCK:   -2.79 KCAL/MOL
REMARK 927      BINDING AFFINITY PREDICTED BY RF-SCORE:    0.00 PKD
ROOT
HETATM    1  C   UNL     1      -6.664   8.426  63.647  1.00  0.00    -0.083 C  
HETATM    2  O   UNL     1      -5.728   8.667  64.693  1.00  0.00    -0.060 OA 
ENDROOT
BRANCH   2   3
HETATM    3  C   UNL     1      -6.180   9.416  65.753  1.00  0.00    -0.060 A  
HETATM    4  C   UNL     1      -6.824   8.943  66.908  1.00  0.00    -0.077 A  
HETATM    5  C   UNL     1      -6.470  11.704  66.534  1.00  0.00     0.019 A  
HETATM    6  C   UNL     1      -7.272   9.867  67.869  1.00  0.00    -0.087 A  
HETATM    7  C   UNL     1      -7.097  11.248  67.700  1.00  0.00    -0.090 A  
HETATM    8  C   UNL     1      -6.023  10.794  65.569  1.00  0.00    -0.081 A  
BRANCH   4   9
HETATM    9  O   UNL     1      -7.034   7.594  67.017  1.00  0.00    -0.075 OA 
HETATM   10  C   UNL     1      -6.701   6.970  68.249  1.00  0.00    -0.064 C  
ENDBRANCH   4   9
BRANCH   7  11
HETATM   11  C   UNL     1      -7.748  12.216  68.686  1.00  0.00    -0.089 C  
BRANCH  11  12
HETATM   12  C   UNL     1      -7.370  13.635  68.243  1.00  0.00    -0.119 C  
BRANCH  12  13
HETATM   13  N   UNL     1      -8.297  14.770  68.305  1.00  0.00    -0.142 NA 
HETATM   14  C   UNL     1      -7.801  15.859  69.145  1.00  0.00    -0.227 C  
BRANCH  13  15
HETATM   15  C   UNL     1      -8.653  15.273  66.952  1.00  0.00    -0.257 C  
BRANCH  15  16
HETATM   16  C   UNL     1      -9.907  14.718  66.204  1.00  0.00    -0.335 C  
BRANCH  16  17
HETATM   17  C   UNL     1      -9.796  13.246  65.748  1.00  0.00    -0.210 C  
BRANCH  17  18
HETATM   18  C   UNL     1     -11.029  12.308  65.874  1.00  0.00    -0.338 C  
HETATM   19  N   UNL     1     -13.133  13.773  65.141  1.00  0.00    -0.751 NA 
HETATM   20  C   UNL     1     -10.946  11.101  64.822  1.00  0.00    -0.218 C  
HETATM   21  C   UNL     1     -12.226  13.125  65.469  1.00  0.00    -0.461 C  
HETATM   22  C   UNL     1      -9.769  10.125  64.992  1.00  0.00    -0.384 C  
HETATM   23  C   UNL     1     -10.892  11.576  63.353  1.00  0.00    -0.423 C  
BRANCH  18  24
HETATM   24  C   UNL     1     -11.110  11.844  67.333  1.00  0.00    -0.336 A  
HETATM   25  C   UNL     1     -10.898  10.502  67.694  1.00  0.00    -0.355 A  
HETATM   26  C   UNL     1     -11.156  10.033  68.986  1.00  0.00    -0.180 A  
HETATM   27  C   UNL     1     -11.549  12.724  68.339  1.00  0.00    -0.365 A  
HETATM   28  C   UNL     1     -11.608  10.935  69.964  1.00  0.00    -0.341 A  
HETATM   29  C   UNL     1     -11.775  12.276  69.636  1.00  0.00    -0.386 A  
BRANCH  26  30
HETATM   30  O   UNL     1     -11.022   8.721  69.363  1.00  0.00    -0.163 OA 
HETATM   31  C   UNL     1     -10.273   7.870  68.504  1.00  0.00    -0.205 C  
ENDBRANCH  26  30
BRANCH  28  32
HETATM   32  O   UNL     1     -11.894  10.411  71.202  1.00  0.00    -0.356 OA 
HETATM   33  C   UNL     1     -13.270  10.297  71.545  1.00  0.00    -0.386 C  
ENDBRANCH  28  32
ENDBRANCH  18  24
ENDBRANCH  17  18
ENDBRANCH  16  17
ENDBRANCH  15  16
ENDBRANCH  13  15
ENDBRANCH  12  13
ENDBRANCH  11  12
ENDBRANCH   7  11
ENDBRANCH   2   3
TORSDOF 12
ENDMDL
MODEL      113
REMARK 921   NORMALIZED FREE ENERGY PREDICTED BY IDOCK:   -4.85 KCAL/MOL
REMARK 922        TOTAL FREE ENERGY PREDICTED BY IDOCK:  -10.47 KCAL/MOL
REMARK 923 INTER-LIGAND FREE ENERGY PREDICTED BY IDOCK:   -7.96 KCAL/MOL
REMARK 924 INTRA-LIGAND FREE ENERGY PREDICTED BY IDOCK:   -2.51 KCAL/MOL
REMARK 927      BINDING AFFINITY PREDICTED BY RF-SCORE:    0.00 PKD
ROOT
HETATM    1  C   UNL     1     -12.275  13.108  63.340  1.00  0.00    -0.444 C  
HETATM    2  O   UNL     1     -11.044  13.372  64.006  1.00  0.00    -0.365 OA 
ENDROOT
BRANCH   2   3
HETATM    3  C   UNL     1     -10.606  12.406  64.880  1.00  0.00    -0.294 A  
HETATM    4  C   UNL     1     -10.344  12.563  66.251  1.00  0.00    -0.250 A  
HETATM    5  C   UNL     1      -9.842  10.098  65.002  1.00  0.00    -0.392 A  
HETATM    6  C   UNL     1      -9.842  11.470  66.980  1.00  0.00    -0.212 A  
HETATM    7  C   UNL     1      -9.592  10.232  66.372  1.00  0.00    -0.233 A  
HETATM    8  C   UNL     1     -10.338  11.178  64.264  1.00  0.00    -0.413 A  
BRANCH   4   9
HETATM    9  O   UNL     1     -10.540  13.800  66.803  1.00  0.00    -0.271 OA 
HETATM   10  C   UNL     1     -11.824  14.090  67.338  1.00  0.00    -0.409 C  
ENDBRANCH   4   9
BRANCH   7  11
HETATM   11  C   UNL     1      -8.891   9.130  67.167  1.00  0.00    -0.130 C  
BRANCH  11  12
HETATM   12  C   UNL     1      -9.851   7.935  67.227  1.00  0.00    -0.195 C  
BRANCH  12  13
HETATM   13  N   UNL     1      -9.727   6.855  68.211  1.00  0.00    -0.132 NA 
HETATM   14  C   UNL     1     -10.683   5.772  67.985  1.00  0.00    -0.209 C  
BRANCH  13  15
HETATM   15  C   UNL     1      -8.341   6.323  68.281  1.00  0.00    -0.115 C  
BRANCH  15  16
HETATM   16  C   UNL     1      -7.762   5.794  69.632  1.00  0.00    -0.091 C  
BRANCH  16  17
HETATM   17  C   UNL     1      -7.736   6.828  70.781  1.00  0.00    -0.093 C  
BRANCH  17  18
HETATM   18  C   UNL     1      -8.889   6.847  71.823  1.00  0.00    -0.131 C  
HETATM   19  N   UNL     1     -10.131   4.500  71.571  1.00  0.00    -0.188 NA 
HETATM   20  C   UNL     1      -8.313   6.880  73.319  1.00  0.00    -0.131 C  
HETATM   21  C   UNL     1      -9.603   5.529  71.687  1.00  0.00    -0.152 C  
HETATM   22  C   UNL     1      -7.496   8.123  73.709  1.00  0.00    -0.211 C  
HETATM   23  C   UNL     1      -7.422   5.665  73.656  1.00  0.00    -0.091 C  
BRANCH  18  24
HETATM   24  C   UNL     1      -9.797   8.036  71.489  1.00  0.00    -0.217 A  
HETATM   25  C   UNL     1     -11.191   7.970  71.655  1.00  0.00    -0.301 A  
HETATM   26  C   UNL     1     -12.042   8.972  71.178  1.00  0.00    -0.287 A  
HETATM   27  C   UNL     1      -9.273   9.180  70.862  1.00  0.00    -0.326 A  
HETATM   28  C   UNL     1     -11.487  10.095  70.542  1.00  0.00    -0.337 A  
HETATM   29  C   UNL     1     -10.106  10.199  70.415  1.00  0.00    -0.052 A  
BRANCH  26  30
HETATM   30  O   UNL     1     -13.410   8.917  71.263  1.00  0.00    -0.287 OA 
HETATM   31  C   UNL     1     -13.981   8.902  72.566  1.00  0.00    -0.396 C  
ENDBRANCH  26  30
BRANCH  28  32
HETATM   32  O   UNL     1     -12.371  11.024  70.048  1.00  0.00    -0.320 OA 
HETATM   33  C   UNL     1     -12.323  12.322  70.628  1.00  0.00    -0.286 C  
ENDBRANCH  28  32
ENDBRANCH  18  24
ENDBRANCH  17  18
ENDBRANCH  16  17
ENDBRANCH  15  16
ENDBRANCH  13  15
ENDBRANCH  12  13
ENDBRANCH  11  12
ENDBRANCH   7  11
ENDBRANCH   2   3
TORSDOF 12
ENDMDL
MODEL      114
REMARK 921   NORMALIZED FREE ENERGY PREDICTED BY IDOCK:   -4.79 KCAL/MOL
REMARK 922        TOTAL FREE ENERGY PREDICTED BY IDOCK:  -10.38 KCAL/MOL
REMARK 923 INTER-LIGAND FREE ENERGY PREDICTED BY IDOCK:   -8.43 KCAL/MOL
REMARK 924 INTRA-LIGAND FREE ENERGY PREDICTED BY IDOCK:   -1.95 KCAL/MOL
REMARK 927      BINDING AFFINITY PREDICTED BY RF-SCORE:    0.00 PKD
ROOT
HETATM    1  C   UNL     1     -11.450  12.744  68.830  1.00  0.00    -0.305 C  
HETATM    2  O   UNL     1     -12.241  12.444  67.685  1.00  0.00    -0.425 OA 
ENDROOT
BRANCH   2   3
HETATM    3  C   UNL     1     -11.562  11.992  66.578  1.00  0.00    -0.314 A  
HETATM    4  C   UNL     1     -11.735  12.414  65.250  1.00  0.00    -0.390 A  
HETATM    5  C   UNL     1      -9.932  10.342  65.838  1.00  0.00    -0.321 A  
HETATM    6  C   UNL     1     -10.988  11.794  64.233  1.00  0.00    -0.419 A  
HETATM    7  C   UNL     1     -10.080  10.762  64.510  1.00  0.00    -0.415 A  
HETATM    8  C   UNL     1     -10.673  10.948  66.858  1.00  0.00    -0.318 A  
BRANCH   4   9
HETATM    9  O   UNL     1     -12.672  13.381  65.002  1.00  0.00    -0.623 OA 
HETATM   10  C   UNL     1     -12.213  14.649  64.558  1.00  0.00    -0.456 C  
ENDBRANCH   4   9
BRANCH   7  11
HETATM   11  C   UNL     1      -9.419  10.009  63.357  1.00  0.00    -0.239 C  
BRANCH  11  12
HETATM   12  C   UNL     1      -8.228   9.240  63.942  1.00  0.00    -0.165 C  
BRANCH  12  13
HETATM   13  N   UNL     1      -8.224   7.785  64.127  1.00  0.00    -0.067 NA 
HETATM   14  C   UNL     1      -7.339   7.099  63.187  1.00  0.00    -0.084 C  
BRANCH  13  15
HETATM   15  C   UNL     1      -7.899   7.402  65.527  1.00  0.00    -0.115 C  
BRANCH  15  16
HETATM   16  C   UNL     1      -7.739   5.900  65.922  1.00  0.00    -0.095 C  
BRANCH  16  17
HETATM   17  C   UNL     1      -7.896   5.601  67.430  1.00  0.00    -0.101 C  
BRANCH  17  18
HETATM   18  C   UNL     1      -9.280   5.161  67.985  1.00  0.00    -0.132 C  
HETATM   19  N   UNL     1     -10.786   4.638  65.847  1.00  0.00    -0.257 NA 
HETATM   20  C   UNL     1      -9.164   3.778  68.790  1.00  0.00    -0.218 C  
HETATM   21  C   UNL     1     -10.143   4.868  66.787  1.00  0.00    -0.238 C  
HETATM   22  C   UNL     1      -8.291   3.795  70.055  1.00  0.00    -0.081 C  
HETATM   23  C   UNL     1      -8.636   2.613  67.925  1.00  0.00    -0.117 C  
BRANCH  18  24
HETATM   24  C   UNL     1      -9.830   6.317  68.829  1.00  0.00    -0.156 A  
HETATM   25  C   UNL     1      -9.027   7.410  69.196  1.00  0.00    -0.135 A  
HETATM   26  C   UNL     1      -9.458   8.369  70.118  1.00  0.00    -0.164 A  
HETATM   27  C   UNL     1     -11.119   6.243  69.386  1.00  0.00    -0.477 A  
HETATM   28  C   UNL     1     -10.746   8.257  70.669  1.00  0.00    -0.220 A  
HETATM   29  C   UNL     1     -11.572   7.210  70.277  1.00  0.00    -0.260 A  
BRANCH  26  30
HETATM   30  O   UNL     1      -8.683   9.414  70.552  1.00  0.00    -0.215 OA 
HETATM   31  C   UNL     1      -7.980  10.157  69.563  1.00  0.00    -0.165 C  
ENDBRANCH  26  30
BRANCH  28  32
HETATM   32  O   UNL     1     -11.099   9.198  71.607  1.00  0.00    -0.332 OA 
HETATM   33  C   UNL     1     -12.450   9.644  71.586  1.00  0.00    -0.407 C  
ENDBRANCH  28  32
ENDBRANCH  18  24
ENDBRANCH  17  18
ENDBRANCH  16  17
ENDBRANCH  15  16
ENDBRANCH  13  15
ENDBRANCH  12  13
ENDBRANCH  11  12
ENDBRANCH   7  11
ENDBRANCH   2   3
TORSDOF 12
ENDMDL
MODEL      115
REMARK 921   NORMALIZED FREE ENERGY PREDICTED BY IDOCK:   -4.79 KCAL/MOL
REMARK 922        TOTAL FREE ENERGY PREDICTED BY IDOCK:  -10.38 KCAL/MOL
REMARK 923 INTER-LIGAND FREE ENERGY PREDICTED BY IDOCK:   -9.12 KCAL/MOL
REMARK 924 INTRA-LIGAND FREE ENERGY PREDICTED BY IDOCK:   -1.26 KCAL/MOL
REMARK 927      BINDING AFFINITY PREDICTED BY RF-SCORE:    0.00 PKD
ROOT
HETATM    1  C   UNL     1     -10.591  19.443  65.759  1.00  0.00    -0.400 C  
HETATM    2  O   UNL     1      -9.738  18.303  65.723  1.00  0.00    -0.494 OA 
ENDROOT
BRANCH   2   3
HETATM    3  C   UNL     1     -10.060  17.275  66.577  1.00  0.00    -0.309 A  
HETATM    4  C   UNL     1      -9.863  17.238  67.967  1.00  0.00    -0.284 A  
HETATM    5  C   UNL     1     -10.901  14.991  66.640  1.00  0.00    -0.318 A  
HETATM    6  C   UNL     1     -10.202  16.072  68.675  1.00  0.00    -0.231 A  
HETATM    7  C   UNL     1     -10.727  14.944  68.028  1.00  0.00    -0.253 A  
HETATM    8  C   UNL     1     -10.563  16.145  65.924  1.00  0.00    -0.322 A  
BRANCH   4   9
HETATM    9  O   UNL     1      -9.293  18.332  68.563  1.00  0.00    -0.305 OA 
HETATM   10  C   UNL     1      -7.875  18.415  68.573  1.00  0.00    -0.306 C  
ENDBRANCH   4   9
BRANCH   7  11
HETATM   11  C   UNL     1     -10.921  13.647  68.813  1.00  0.00    -0.292 C  
BRANCH  11  12
HETATM   12  C   UNL     1     -11.843  12.748  67.979  1.00  0.00    -0.336 C  
BRANCH  12  13
HETATM   13  N   UNL     1     -12.009  11.313  68.233  1.00  0.00    -0.621 NA 
HETATM   14  C   UNL     1     -10.969  10.503  67.602  1.00  0.00    -0.314 C  
BRANCH  13  15
HETATM   15  C   UNL     1     -12.097  11.012  69.687  1.00  0.00    -0.340 C  
BRANCH  15  16
HETATM   16  C   UNL     1     -10.935  10.264  70.413  1.00  0.00    -0.365 C  
BRANCH  16  17
HETATM   17  C   UNL     1     -11.256   8.812  70.835  1.00  0.00    -0.320 C  
BRANCH  17  18
HETATM   18  C   UNL     1     -10.101   7.783  70.985  1.00  0.00    -0.199 C  
HETATM   19  N   UNL     1      -7.951   9.201  71.676  1.00  0.00    -0.328 NA 
HETATM   20  C   UNL     1     -10.376   6.780  72.206  1.00  0.00    -0.219 C  
HETATM   21  C   UNL     1      -8.878   8.572  71.369  1.00  0.00    -0.198 C  
HETATM   22  C   UNL     1     -11.612   5.874  72.080  1.00  0.00    -0.314 C  
HETATM   23  C   UNL     1     -10.516   7.500  73.565  1.00  0.00    -0.362 C  
BRANCH  18  24
HETATM   24  C   UNL     1      -9.934   7.074  69.636  1.00  0.00    -0.177 A  
HETATM   25  C   UNL     1      -8.666   6.849  69.072  1.00  0.00    -0.131 A  
HETATM   26  C   UNL     1      -8.510   6.380  67.764  1.00  0.00    -0.117 A  
HETATM   27  C   UNL     1     -11.057   6.760  68.851  1.00  0.00    -0.243 A  
HETATM   28  C   UNL     1      -9.654   6.090  67.000  1.00  0.00    -0.133 A  
HETATM   29  C   UNL     1     -10.915   6.258  67.562  1.00  0.00    -0.444 A  
BRANCH  26  30
HETATM   30  O   UNL     1      -7.294   6.208  67.154  1.00  0.00    -0.074 OA 
HETATM   31  C   UNL     1      -6.144   6.674  67.851  1.00  0.00    -0.028 C  
ENDBRANCH  26  30
BRANCH  28  32
HETATM   32  O   UNL     1      -9.443   5.680  65.706  1.00  0.00    -0.122 OA 
HETATM   33  C   UNL     1      -9.921   4.385  65.361  1.00  0.00    -0.218 C  
ENDBRANCH  28  32
ENDBRANCH  18  24
ENDBRANCH  17  18
ENDBRANCH  16  17
ENDBRANCH  15  16
ENDBRANCH  13  15
ENDBRANCH  12  13
ENDBRANCH  11  12
ENDBRANCH   7  11
ENDBRANCH   2   3
TORSDOF 12
ENDMDL
MODEL      116
REMARK 921   NORMALIZED FREE ENERGY PREDICTED BY IDOCK:   -4.79 KCAL/MOL
REMARK 922        TOTAL FREE ENERGY PREDICTED BY IDOCK:  -10.37 KCAL/MOL
REMARK 923 INTER-LIGAND FREE ENERGY PREDICTED BY IDOCK:   -8.52 KCAL/MOL
REMARK 924 INTRA-LIGAND FREE ENERGY PREDICTED BY IDOCK:   -1.85 KCAL/MOL
REMARK 927      BINDING AFFINITY PREDICTED BY RF-SCORE:    0.00 PKD
ROOT
HETATM    1  C   UNL     1      -9.405  18.439  66.908  1.00  0.00    -0.290 C  
HETATM    2  O   UNL     1     -10.577  17.656  67.112  1.00  0.00    -0.339 OA 
ENDROOT
BRANCH   2   3
HETATM    3  C   UNL     1     -10.428  16.295  66.993  1.00  0.00    -0.306 A  
HETATM    4  C   UNL     1     -10.628  15.520  65.839  1.00  0.00    -0.339 A  
HETATM    5  C   UNL     1      -9.974  14.271  68.267  1.00  0.00    -0.239 A  
HETATM    6  C   UNL     1     -10.485  14.124  65.919  1.00  0.00    -0.313 A  
HETATM    7  C   UNL     1     -10.153  13.486  67.122  1.00  0.00    -0.245 A  
HETATM    8  C   UNL     1     -10.118  15.661  68.201  1.00  0.00    -0.222 A  
BRANCH   4   9
HETATM    9  O   UNL     1     -11.011  16.166  64.693  1.00  0.00    -0.642 OA 
HETATM   10  C   UNL     1     -12.031  15.568  63.906  1.00  0.00     0.222 C  
ENDBRANCH   4   9
BRANCH   7  11
HETATM   11  C   UNL     1     -10.174  11.959  67.196  1.00  0.00    -0.230 C  
BRANCH  11  12
HETATM   12  C   UNL     1     -10.954  11.458  65.974  1.00  0.00    -0.226 C  
BRANCH  12  13
HETATM   13  N   UNL     1     -10.366  10.592  64.947  1.00  0.00    -0.313 NA 
HETATM   14  C   UNL     1     -10.103  11.299  63.695  1.00  0.00    -0.382 C  
BRANCH  13  15
HETATM   15  C   UNL     1      -9.136   9.910  65.431  1.00  0.00    -0.196 C  
BRANCH  15  16
HETATM   16  C   UNL     1      -9.215   8.478  66.048  1.00  0.00    -0.262 C  
BRANCH  16  17
HETATM   17  C   UNL     1      -8.972   8.409  67.573  1.00  0.00    -0.142 C  
BRANCH  17  18
HETATM   18  C   UNL     1      -9.445   7.161  68.370  1.00  0.00    -0.138 C  
HETATM   19  N   UNL     1     -10.412   5.465  66.555  1.00  0.00    -0.279 NA 
HETATM   20  C   UNL     1      -8.203   6.411  69.055  1.00  0.00    -0.115 C  
HETATM   21  C   UNL     1      -9.999   6.197  67.357  1.00  0.00    -0.141 C  
HETATM   22  C   UNL     1      -7.425   7.206  70.116  1.00  0.00    -0.089 C  
HETATM   23  C   UNL     1      -7.151   5.922  68.036  1.00  0.00    -0.074 C  
BRANCH  18  24
HETATM   24  C   UNL     1     -10.508   7.626  69.372  1.00  0.00    -0.220 A  
HETATM   25  C   UNL     1     -10.692   8.986  69.675  1.00  0.00    -0.228 A  
HETATM   26  C   UNL     1     -11.520   9.406  70.721  1.00  0.00    -0.300 A  
HETATM   27  C   UNL     1     -11.231   6.689  70.132  1.00  0.00    -0.416 A  
HETATM   28  C   UNL     1     -12.217   8.443  71.470  1.00  0.00    -0.302 A  
HETATM   29  C   UNL     1     -12.085   7.096  71.150  1.00  0.00    -0.397 A  
BRANCH  26  30
HETATM   30  O   UNL     1     -11.679  10.717  71.090  1.00  0.00    -0.268 OA 
HETATM   31  C   UNL     1     -12.154  11.620  70.098  1.00  0.00    -0.333 C  
ENDBRANCH  26  30
BRANCH  28  32
HETATM   32  O   UNL     1     -12.977   8.908  72.517  1.00  0.00    -0.418 OA 
HETATM   33  C   UNL     1     -14.383   8.716  72.419  1.00  0.00    -0.340 C  
ENDBRANCH  28  32
ENDBRANCH  18  24
ENDBRANCH  17  18
ENDBRANCH  16  17
ENDBRANCH  15  16
ENDBRANCH  13  15
ENDBRANCH  12  13
ENDBRANCH  11  12
ENDBRANCH   7  11
ENDBRANCH   2   3
TORSDOF 12
ENDMDL
MODEL      117
REMARK 921   NORMALIZED FREE ENERGY PREDICTED BY IDOCK:   -4.79 KCAL/MOL
REMARK 922        TOTAL FREE ENERGY PREDICTED BY IDOCK:  -10.37 KCAL/MOL
REMARK 923 INTER-LIGAND FREE ENERGY PREDICTED BY IDOCK:   -8.90 KCAL/MOL
REMARK 924 INTRA-LIGAND FREE ENERGY PREDICTED BY IDOCK:   -1.47 KCAL/MOL
REMARK 927      BINDING AFFINITY PREDICTED BY RF-SCORE:    0.00 PKD
ROOT
HETATM    1  C   UNL     1     -10.709   5.632  70.398  1.00  0.00    -0.282 C  
HETATM    2  O   UNL     1     -11.180   6.734  69.628  1.00  0.00    -0.295 OA 
ENDROOT
BRANCH   2   3
HETATM    3  C   UNL     1     -10.268   7.321  68.785  1.00  0.00    -0.182 A  
HETATM    4  C   UNL     1     -10.180   7.163  67.392  1.00  0.00    -0.226 A  
HETATM    5  C   UNL     1      -8.274   8.719  68.748  1.00  0.00    -0.116 A  
HETATM    6  C   UNL     1      -9.138   7.801  66.696  1.00  0.00    -0.195 A  
HETATM    7  C   UNL     1      -8.182   8.586  67.357  1.00  0.00    -0.109 A  
HETATM    8  C   UNL     1      -9.304   8.086  69.452  1.00  0.00    -0.155 A  
BRANCH   4   9
HETATM    9  O   UNL     1     -11.091   6.342  66.783  1.00  0.00    -0.358 OA 
HETATM   10  C   UNL     1     -10.617   5.121  66.234  1.00  0.00    -0.266 C  
ENDBRANCH   4   9
BRANCH   7  11
HETATM   11  C   UNL     1      -6.977   9.118  66.583  1.00  0.00    -0.081 C  
BRANCH  11  12
HETATM   12  C   UNL     1      -7.479  10.267  65.700  1.00  0.00    -0.149 C  
BRANCH  12  13
HETATM   13  N   UNL     1      -7.454  10.224  64.234  1.00  0.00    -0.113 NA 
HETATM   14  C   UNL     1      -6.996   8.937  63.715  1.00  0.00    -0.088 C  
BRANCH  13  15
HETATM   15  C   UNL     1      -8.769  10.588  63.644  1.00  0.00    -0.181 C  
BRANCH  15  16
HETATM   16  C   UNL     1      -9.951  11.039  64.559  1.00  0.00    -0.366 C  
BRANCH  16  17
HETATM   17  C   UNL     1      -9.807  12.454  65.163  1.00  0.00    -0.157 C  
BRANCH  17  18
HETATM   18  C   UNL     1     -10.893  12.988  66.138  1.00  0.00    -0.296 C  
HETATM   19  N   UNL     1     -13.226  12.605  64.904  1.00  0.00    -0.719 NA 
HETATM   20  C   UNL     1     -10.953  12.102  67.474  1.00  0.00    -0.304 C  
HETATM   21  C   UNL     1     -12.216  12.783  65.451  1.00  0.00    -0.478 C  
HETATM   22  C   UNL     1      -9.690  12.104  68.352  1.00  0.00    -0.193 C  
HETATM   23  C   UNL     1     -11.279  10.617  67.206  1.00  0.00    -0.237 C  
BRANCH  18  24
HETATM   24  C   UNL     1     -10.597  14.469  66.397  1.00  0.00    -0.302 A  
HETATM   25  C   UNL     1     -10.686  15.025  67.685  1.00  0.00    -0.274 A  
HETATM   26  C   UNL     1     -10.605  16.404  67.903  1.00  0.00    -0.320 A  
HETATM   27  C   UNL     1     -10.372  15.350  65.325  1.00  0.00    -0.420 A  
HETATM   28  C   UNL     1     -10.396  17.259  66.808  1.00  0.00    -0.308 A  
HETATM   29  C   UNL     1     -10.254  16.720  65.534  1.00  0.00    -0.188 A  
BRANCH  26  30
HETATM   30  O   UNL     1     -10.750  16.993  69.133  1.00  0.00    -0.324 OA 
HETATM   31  C   UNL     1     -11.113  16.149  70.220  1.00  0.00    -0.369 C  
ENDBRANCH  26  30
BRANCH  28  32
HETATM   32  O   UNL     1     -10.375  18.607  67.072  1.00  0.00    -0.364 OA 
HETATM   33  C   UNL     1     -10.464  19.479  65.952  1.00  0.00    -0.491 C  
ENDBRANCH  28  32
ENDBRANCH  18  24
ENDBRANCH  17  18
ENDBRANCH  16  17
ENDBRANCH  15  16
ENDBRANCH  13  15
ENDBRANCH  12  13
ENDBRANCH  11  12
ENDBRANCH   7  11
ENDBRANCH   2   3
TORSDOF 12
ENDMDL
MODEL      118
REMARK 921   NORMALIZED FREE ENERGY PREDICTED BY IDOCK:   -4.78 KCAL/MOL
REMARK 922        TOTAL FREE ENERGY PREDICTED BY IDOCK:  -10.35 KCAL/MOL
REMARK 923 INTER-LIGAND FREE ENERGY PREDICTED BY IDOCK:   -8.88 KCAL/MOL
REMARK 924 INTRA-LIGAND FREE ENERGY PREDICTED BY IDOCK:   -1.47 KCAL/MOL
REMARK 927      BINDING AFFINITY PREDICTED BY RF-SCORE:    0.00 PKD
ROOT
HETATM    1  C   UNL     1     -10.118   7.118  67.417  1.00  0.00    -0.202 C  
HETATM    2  O   UNL     1      -9.180   8.180  67.281  1.00  0.00    -0.134 OA 
ENDROOT
BRANCH   2   3
HETATM    3  C   UNL     1      -9.416   9.073  66.264  1.00  0.00    -0.242 A  
HETATM    4  C   UNL     1      -8.693   9.202  65.066  1.00  0.00    -0.189 A  
HETATM    5  C   UNL     1     -10.794  10.978  65.630  1.00  0.00    -0.160 A  
HETATM    6  C   UNL     1      -9.045  10.218  64.161  1.00  0.00    -0.284 A  
HETATM    7  C   UNL     1     -10.095  11.109  64.425  1.00  0.00    -0.377 A  
HETATM    8  C   UNL     1     -10.451   9.973  66.541  1.00  0.00    -0.223 A  
BRANCH   4   9
HETATM    9  O   UNL     1      -7.635   8.357  64.864  1.00  0.00    -0.090 OA 
HETATM   10  C   UNL     1      -7.871   7.167  64.125  1.00  0.00    -0.113 C  
ENDBRANCH   4   9
BRANCH   7  11
HETATM   11  C   UNL     1     -10.329  12.297  63.492  1.00  0.00    -0.443 C  
BRANCH  11  12
HETATM   12  C   UNL     1     -11.814  12.667  63.595  1.00  0.00    -0.530 C  
BRANCH  12  13
HETATM   13  N   UNL     1     -12.289  13.925  64.181  1.00  0.00    -0.668 NA 
HETATM   14  C   UNL     1     -13.122  13.718  65.364  1.00  0.00    -0.164 C  
BRANCH  13  15
HETATM   15  C   UNL     1     -11.169  14.854  64.485  1.00  0.00    -0.264 C  
BRANCH  15  16
HETATM   16  C   UNL     1     -10.851  15.258  65.959  1.00  0.00    -0.331 C  
BRANCH  16  17
HETATM   17  C   UNL     1      -9.428  14.896  66.443  1.00  0.00    -0.327 C  
BRANCH  17  18
HETATM   18  C   UNL     1      -9.081  15.000  67.954  1.00  0.00    -0.180 C  
HETATM   19  N   UNL     1     -11.306  14.320  69.257  1.00  0.00    -0.270 NA 
HETATM   20  C   UNL     1      -7.979  13.911  68.369  1.00  0.00    -0.144 C  
HETATM   21  C   UNL     1     -10.332  14.624  68.702  1.00  0.00    -0.246 C  
HETATM   22  C   UNL     1      -6.600  14.047  67.704  1.00  0.00    -0.175 C  
HETATM   23  C   UNL     1      -8.432  12.457  68.112  1.00  0.00    -0.180 C  
BRANCH  18  24
HETATM   24  C   UNL     1      -8.651  16.445  68.233  1.00  0.00    -0.200 A  
HETATM   25  C   UNL     1      -9.453  17.538  67.865  1.00  0.00    -0.277 A  
HETATM   26  C   UNL     1      -8.989  18.855  67.939  1.00  0.00    -0.297 A  
HETATM   27  C   UNL     1      -7.366  16.723  68.732  1.00  0.00    -0.227 A  
HETATM   28  C   UNL     1      -7.695  19.098  68.427  1.00  0.00    -0.324 A  
HETATM   29  C   UNL     1      -6.907  18.030  68.844  1.00  0.00    -0.256 A  
BRANCH  26  30
HETATM   30  O   UNL     1      -9.716  19.945  67.531  1.00  0.00    -0.348 OA 
HETATM   31  C   UNL     1     -10.455  19.819  66.321  1.00  0.00    -0.506 C  
ENDBRANCH  26  30
BRANCH  28  32
HETATM   32  O   UNL     1      -7.272  20.406  68.431  1.00  0.00    -0.216 OA 
HETATM   33  C   UNL     1      -6.174  20.724  67.585  1.00  0.00    -0.289 C  
ENDBRANCH  28  32
ENDBRANCH  18  24
ENDBRANCH  17  18
ENDBRANCH  16  17
ENDBRANCH  15  16
ENDBRANCH  13  15
ENDBRANCH  12  13
ENDBRANCH  11  12
ENDBRANCH   7  11
ENDBRANCH   2   3
TORSDOF 12
ENDMDL
MODEL      119
REMARK 921   NORMALIZED FREE ENERGY PREDICTED BY IDOCK:   -4.77 KCAL/MOL
REMARK 922        TOTAL FREE ENERGY PREDICTED BY IDOCK:  -10.34 KCAL/MOL
REMARK 923 INTER-LIGAND FREE ENERGY PREDICTED BY IDOCK:   -9.39 KCAL/MOL
REMARK 924 INTRA-LIGAND FREE ENERGY PREDICTED BY IDOCK:   -0.95 KCAL/MOL
REMARK 927      BINDING AFFINITY PREDICTED BY RF-SCORE:    0.00 PKD
ROOT
HETATM    1  C   UNL     1     -10.705  16.431  68.201  1.00  0.00    -0.336 C  
HETATM    2  O   UNL     1     -11.812  16.210  69.069  1.00  0.00    -0.327 OA 
ENDROOT
BRANCH   2   3
HETATM    3  C   UNL     1     -12.001  14.918  69.497  1.00  0.00    -0.310 A  
HETATM    4  C   UNL     1     -12.431  14.502  70.768  1.00  0.00    -0.351 A  
HETATM    5  C   UNL     1     -11.728  12.591  68.834  1.00  0.00    -0.367 A  
HETATM    6  C   UNL     1     -12.512  13.127  71.046  1.00  0.00    -0.406 A  
HETATM    7  C   UNL     1     -12.171  12.160  70.090  1.00  0.00    -0.308 A  
HETATM    8  C   UNL     1     -11.639  13.957  68.546  1.00  0.00    -0.367 A  
BRANCH   4   9
HETATM    9  O   UNL     1     -12.699  15.469  71.700  1.00  0.00    -0.371 OA 
HETATM   10  C   UNL     1     -12.091  15.343  72.978  1.00  0.00    -0.446 C  
ENDBRANCH   4   9
BRANCH   7  11
HETATM   11  C   UNL     1     -12.114  10.687  70.494  1.00  0.00    -0.448 C  
BRANCH  11  12
HETATM   12  C   UNL     1     -13.017  10.521  71.723  1.00  0.00    -0.476 C  
BRANCH  12  13
HETATM   13  N   UNL     1     -13.160   9.254  72.448  1.00  0.00    -0.423 NA 
HETATM   14  C   UNL     1     -14.324   8.484  72.015  1.00  0.00    -0.447 C  
BRANCH  13  15
HETATM   15  C   UNL     1     -11.927   8.427  72.371  1.00  0.00    -0.384 C  
BRANCH  15  16
HETATM   16  C   UNL     1     -12.006   6.921  71.966  1.00  0.00    -0.342 C  
BRANCH  16  17
HETATM   17  C   UNL     1     -10.785   6.068  72.380  1.00  0.00    -0.267 C  
BRANCH  17  18
HETATM   18  C   UNL     1      -9.481   6.134  71.537  1.00  0.00    -0.161 C  
HETATM   19  N   UNL     1      -7.776   7.613  72.956  1.00  0.00    -0.100 NA 
HETATM   20  C   UNL     1      -8.804   4.686  71.408  1.00  0.00    -0.151 C  
HETATM   21  C   UNL     1      -8.510   6.972  72.325  1.00  0.00    -0.110 C  
HETATM   22  C   UNL     1      -9.621   3.613  70.669  1.00  0.00    -0.254 C  
HETATM   23  C   UNL     1      -8.427   4.066  72.771  1.00  0.00    -0.100 C  
BRANCH  18  24
HETATM   24  C   UNL     1      -9.833   6.768  70.187  1.00  0.00    -0.187 A  
HETATM   25  C   UNL     1     -10.371   6.010  69.133  1.00  0.00    -0.289 A  
HETATM   26  C   UNL     1     -10.516   6.533  67.844  1.00  0.00    -0.222 A  
HETATM   27  C   UNL     1      -9.486   8.104  69.913  1.00  0.00    -0.160 A  
HETATM   28  C   UNL     1     -10.146   7.866  67.600  1.00  0.00    -0.203 A  
HETATM   29  C   UNL     1      -9.660   8.645  68.645  1.00  0.00    -0.159 A  
BRANCH  26  30
HETATM   30  O   UNL     1     -10.977   5.809  66.774  1.00  0.00    -0.280 OA 
HETATM   31  C   UNL     1     -10.093   4.846  66.210  1.00  0.00    -0.257 C  
ENDBRANCH  26  30
BRANCH  28  32
HETATM   32  O   UNL     1     -10.263   8.312  66.305  1.00  0.00    -0.189 OA 
HETATM   33  C   UNL     1      -9.066   8.741  65.668  1.00  0.00    -0.191 C  
ENDBRANCH  28  32
ENDBRANCH  18  24
ENDBRANCH  17  18
ENDBRANCH  16  17
ENDBRANCH  15  16
ENDBRANCH  13  15
ENDBRANCH  12  13
ENDBRANCH  11  12
ENDBRANCH   7  11
ENDBRANCH   2   3
TORSDOF 12
ENDMDL
MODEL      120
REMARK 921   NORMALIZED FREE ENERGY PREDICTED BY IDOCK:   -4.77 KCAL/MOL
REMARK 922        TOTAL FREE ENERGY PREDICTED BY IDOCK:  -10.33 KCAL/MOL
REMARK 923 INTER-LIGAND FREE ENERGY PREDICTED BY IDOCK:   -8.96 KCAL/MOL
REMARK 924 INTRA-LIGAND FREE ENERGY PREDICTED BY IDOCK:   -1.38 KCAL/MOL
REMARK 927      BINDING AFFINITY PREDICTED BY RF-SCORE:    0.00 PKD
ROOT
HETATM    1  C   UNL     1      -9.069   4.321  64.437  1.00  0.00    -0.150 C  
HETATM    2  O   UNL     1     -10.193   4.052  65.268  1.00  0.00    -0.196 OA 
ENDROOT
BRANCH   2   3
HETATM    3  C   UNL     1     -10.152   4.579  66.537  1.00  0.00    -0.228 A  
HETATM    4  C   UNL     1      -9.564   4.001  67.674  1.00  0.00    -0.159 A  
HETATM    5  C   UNL     1     -10.948   6.435  67.897  1.00  0.00    -0.416 A  
HETATM    6  C   UNL     1      -9.670   4.663  68.910  1.00  0.00    -0.236 A  
HETATM    7  C   UNL     1     -10.352   5.881  69.037  1.00  0.00    -0.297 A  
HETATM    8  C   UNL     1     -10.853   5.784  66.663  1.00  0.00    -0.290 A  
BRANCH   4   9
HETATM    9  O   UNL     1      -8.956   2.782  67.531  1.00  0.00    -0.129 OA 
HETATM   10  C   UNL     1      -9.502   1.683  68.246  1.00  0.00    -0.183 C  
ENDBRANCH   4   9
BRANCH   7  11
HETATM   11  C   UNL     1     -10.584   6.474  70.426  1.00  0.00    -0.282 C  
BRANCH  11  12
HETATM   12  C   UNL     1     -11.397   7.761  70.238  1.00  0.00    -0.163 C  
BRANCH  12  13
HETATM   13  N   UNL     1     -10.816   9.102  70.359  1.00  0.00    -0.230 NA 
HETATM   14  C   UNL     1      -9.411   9.075  70.763  1.00  0.00    -0.251 C  
BRANCH  13  15
HETATM   15  C   UNL     1     -10.987   9.897  69.114  1.00  0.00    -0.200 C  
BRANCH  15  16
HETATM   16  C   UNL     1     -10.470  11.368  69.034  1.00  0.00    -0.196 C  
BRANCH  16  17
HETATM   17  C   UNL     1     -11.120  12.230  67.928  1.00  0.00    -0.290 C  
BRANCH  17  18
HETATM   18  C   UNL     1     -10.230  12.841  66.809  1.00  0.00    -0.245 C  
HETATM   19  N   UNL     1      -7.790  11.837  67.194  1.00  0.00    -0.160 NA 
HETATM   20  C   UNL     1     -10.693  12.330  65.361  1.00  0.00    -0.320 C  
HETATM   21  C   UNL     1      -8.847  12.287  67.018  1.00  0.00    -0.205 C  
HETATM   22  C   UNL     1     -12.108  12.732  64.914  1.00  0.00    -0.490 C  
HETATM   23  C   UNL     1     -10.619  10.796  65.205  1.00  0.00    -0.239 C  
BRANCH  18  24
HETATM   24  C   UNL     1     -10.274  14.366  66.964  1.00  0.00    -0.263 A  
HETATM   25  C   UNL     1      -9.424  15.208  66.226  1.00  0.00    -0.341 A  
HETATM   26  C   UNL     1      -9.321  16.576  66.495  1.00  0.00    -0.269 A  
HETATM   27  C   UNL     1     -11.067  14.959  67.963  1.00  0.00    -0.301 A  
HETATM   28  C   UNL     1     -10.116  17.135  67.510  1.00  0.00    -0.301 A  
HETATM   29  C   UNL     1     -10.999  16.325  68.215  1.00  0.00    -0.348 A  
BRANCH  26  30
HETATM   30  O   UNL     1      -8.460  17.420  65.843  1.00  0.00    -0.530 OA 
HETATM   31  C   UNL     1      -7.137  17.526  66.358  1.00  0.00    -0.286 C  
ENDBRANCH  26  30
BRANCH  28  32
HETATM   32  O   UNL     1      -9.938  18.474  67.766  1.00  0.00    -0.314 OA 
HETATM   33  C   UNL     1     -10.907  19.362  67.221  1.00  0.00    -0.448 C  
ENDBRANCH  28  32
ENDBRANCH  18  24
ENDBRANCH  17  18
ENDBRANCH  16  17
ENDBRANCH  15  16
ENDBRANCH  13  15
ENDBRANCH  12  13
ENDBRANCH  11  12
ENDBRANCH   7  11
ENDBRANCH   2   3
TORSDOF 12
ENDMDL
MODEL      121
REMARK 921   NORMALIZED FREE ENERGY PREDICTED BY IDOCK:   -4.76 KCAL/MOL
REMARK 922        TOTAL FREE ENERGY PREDICTED BY IDOCK:  -10.32 KCAL/MOL
REMARK 923 INTER-LIGAND FREE ENERGY PREDICTED BY IDOCK:   -7.93 KCAL/MOL
REMARK 924 INTRA-LIGAND FREE ENERGY PREDICTED BY IDOCK:   -2.39 KCAL/MOL
REMARK 927      BINDING AFFINITY PREDICTED BY RF-SCORE:    0.00 PKD
ROOT
HETATM    1  C   UNL     1     -12.485  12.717  63.715  1.00  0.00    -0.383 C  
HETATM    2  O   UNL     1     -11.691  12.987  64.865  1.00  0.00    -0.316 OA 
ENDROOT
BRANCH   2   3
HETATM    3  C   UNL     1     -11.200  11.892  65.535  1.00  0.00    -0.299 A  
HETATM    4  C   UNL     1     -11.342  11.603  66.902  1.00  0.00    -0.295 A  
HETATM    5  C   UNL     1      -9.806   9.913  65.267  1.00  0.00    -0.373 A  
HETATM    6  C   UNL     1     -10.718  10.458  67.428  1.00  0.00    -0.338 A  
HETATM    7  C   UNL     1      -9.953   9.601  66.624  1.00  0.00    -0.301 A  
HETATM    8  C   UNL     1     -10.419  11.051  64.733  1.00  0.00    -0.384 A  
BRANCH   4   9
HETATM    9  O   UNL     1     -12.044  12.490  67.674  1.00  0.00    -0.436 OA 
HETATM   10  C   UNL     1     -11.808  12.479  69.075  1.00  0.00    -0.296 C  
ENDBRANCH   4   9
BRANCH   7  11
HETATM   11  C   UNL     1      -9.159   8.468  67.272  1.00  0.00    -0.152 C  
BRANCH  11  12
HETATM   12  C   UNL     1      -7.679   8.869  67.226  1.00  0.00    -0.092 C  
BRANCH  12  13
HETATM   13  N   UNL     1      -6.592   7.906  67.023  1.00  0.00    -0.058 NA 
HETATM   14  C   UNL     1      -5.311   8.551  66.743  1.00  0.00    -0.032 C  
BRANCH  13  15
HETATM   15  C   UNL     1      -6.465   6.962  68.165  1.00  0.00    -0.050 C  
BRANCH  15  16
HETATM   16  C   UNL     1      -7.004   5.501  68.050  1.00  0.00    -0.065 C  
BRANCH  16  17
HETATM   17  C   UNL     1      -7.754   4.982  69.298  1.00  0.00    -0.075 C  
BRANCH  17  18
HETATM   18  C   UNL     1      -9.299   4.819  69.253  1.00  0.00    -0.196 C  
HETATM   19  N   UNL     1      -9.927   4.573  66.673  1.00  0.00    -0.225 NA 
HETATM   20  C   UNL     1      -9.754   3.447  69.949  1.00  0.00    -0.097 C  
HETATM   21  C   UNL     1      -9.668   4.685  67.801  1.00  0.00    -0.155 C  
HETATM   22  C   UNL     1      -9.451   3.308  71.449  1.00  0.00    -0.221 C  
HETATM   23  C   UNL     1      -9.151   2.194  69.277  1.00  0.00    -0.178 C  
BRANCH  18  24
HETATM   24  C   UNL     1      -9.916   6.066  69.896  1.00  0.00    -0.225 A  
HETATM   25  C   UNL     1      -9.158   6.931  70.704  1.00  0.00    -0.155 A  
HETATM   26  C   UNL     1      -9.749   7.958  71.447  1.00  0.00    -0.164 A  
HETATM   27  C   UNL     1     -11.301   6.299  69.818  1.00  0.00    -0.506 A  
HETATM   28  C   UNL     1     -11.138   8.155  71.358  1.00  0.00    -0.247 A  
HETATM   29  C   UNL     1     -11.894   7.340  70.523  1.00  0.00    -0.237 A  
BRANCH  26  30
HETATM   30  O   UNL     1      -9.056   8.783  72.296  1.00  0.00    -0.355 OA 
HETATM   31  C   UNL     1      -8.553   8.208  73.496  1.00  0.00    -0.246 C  
ENDBRANCH  26  30
BRANCH  28  32
HETATM   32  O   UNL     1     -11.672   9.145  72.147  1.00  0.00    -0.342 OA 
HETATM   33  C   UNL     1     -12.761   9.879  71.599  1.00  0.00    -0.429 C  
ENDBRANCH  28  32
ENDBRANCH  18  24
ENDBRANCH  17  18
ENDBRANCH  16  17
ENDBRANCH  15  16
ENDBRANCH  13  15
ENDBRANCH  12  13
ENDBRANCH  11  12
ENDBRANCH   7  11
ENDBRANCH   2   3
TORSDOF 12
ENDMDL
MODEL      122
REMARK 921   NORMALIZED FREE ENERGY PREDICTED BY IDOCK:   -4.76 KCAL/MOL
REMARK 922        TOTAL FREE ENERGY PREDICTED BY IDOCK:  -10.31 KCAL/MOL
REMARK 923 INTER-LIGAND FREE ENERGY PREDICTED BY IDOCK:   -9.44 KCAL/MOL
REMARK 924 INTRA-LIGAND FREE ENERGY PREDICTED BY IDOCK:   -0.87 KCAL/MOL
REMARK 927      BINDING AFFINITY PREDICTED BY RF-SCORE:    0.00 PKD
ROOT
HETATM    1  C   UNL     1      -9.570   5.338  73.073  1.00  0.00    -0.142 C  
HETATM    2  O   UNL     1      -9.030   6.649  72.948  1.00  0.00    -0.129 OA 
ENDROOT
BRANCH   2   3
HETATM    3  C   UNL     1      -9.867   7.606  72.426  1.00  0.00    -0.181 A  
HETATM    4  C   UNL     1      -9.501   8.721  71.655  1.00  0.00    -0.288 A  
HETATM    5  C   UNL     1     -12.186   8.349  72.390  1.00  0.00    -0.430 A  
HETATM    6  C   UNL     1     -10.494   9.631  71.253  1.00  0.00    -0.216 A  
HETATM    7  C   UNL     1     -11.840   9.456  71.606  1.00  0.00    -0.464 A  
HETATM    8  C   UNL     1     -11.206   7.438  72.799  1.00  0.00    -0.380 A  
BRANCH   4   9
HETATM    9  O   UNL     1      -8.171   8.897  71.377  1.00  0.00    -0.191 OA 
HETATM   10  C   UNL     1      -7.782   8.945  70.011  1.00  0.00    -0.078 C  
ENDBRANCH   4   9
BRANCH   7  11
HETATM   11  C   UNL     1     -12.851  10.557  71.290  1.00  0.00    -0.532 C  
BRANCH  11  12
HETATM   12  C   UNL     1     -12.121  11.614  70.451  1.00  0.00    -0.373 C  
BRANCH  12  13
HETATM   13  N   UNL     1     -12.608  12.988  70.291  1.00  0.00    -0.111 NA 
HETATM   14  C   UNL     1     -12.406  13.802  71.488  1.00  0.00    -0.194 C  
BRANCH  13  15
HETATM   15  C   UNL     1     -12.016  13.653  69.100  1.00  0.00    -0.351 C  
BRANCH  15  16
HETATM   16  C   UNL     1     -11.920  12.899  67.736  1.00  0.00    -0.336 C  
BRANCH  16  17
HETATM   17  C   UNL     1     -12.110  13.786  66.485  1.00  0.00    -0.483 C  
BRANCH  17  18
HETATM   18  C   UNL     1     -11.130  13.643  65.287  1.00  0.00    -0.307 C  
HETATM   19  N   UNL     1     -12.661  13.536  63.106  1.00  0.00    -0.693 NA 
HETATM   20  C   UNL     1     -10.223  14.956  65.123  1.00  0.00    -0.409 C  
HETATM   21  C   UNL     1     -11.982  13.575  64.048  1.00  0.00    -0.449 C  
HETATM   22  C   UNL     1      -9.275  15.281  66.289  1.00  0.00    -0.350 C  
HETATM   23  C   UNL     1     -11.048  16.238  64.878  1.00  0.00    -0.301 C  
BRANCH  18  24
HETATM   24  C   UNL     1     -10.317  12.360  65.503  1.00  0.00    -0.298 A  
HETATM   25  C   UNL     1      -9.244  12.311  66.409  1.00  0.00    -0.203 A  
HETATM   26  C   UNL     1      -8.381  11.212  66.474  1.00  0.00    -0.166 A  
HETATM   27  C   UNL     1     -10.530  11.235  64.687  1.00  0.00    -0.387 A  
HETATM   28  C   UNL     1      -8.612  10.110  65.635  1.00  0.00    -0.155 A  
HETATM   29  C   UNL     1      -9.700  10.122  64.769  1.00  0.00    -0.389 A  
BRANCH  26  30
HETATM   30  O   UNL     1      -7.286  11.149  67.298  1.00  0.00    -0.100 OA 
HETATM   31  C   UNL     1      -6.271  12.129  67.107  1.00  0.00    -0.143 C  
ENDBRANCH  26  30
BRANCH  28  32
HETATM   32  O   UNL     1      -7.705   9.080  65.705  1.00  0.00    -0.089 OA 
HETATM   33  C   UNL     1      -8.198   7.824  66.157  1.00  0.00    -0.123 C  
ENDBRANCH  28  32
ENDBRANCH  18  24
ENDBRANCH  17  18
ENDBRANCH  16  17
ENDBRANCH  15  16
ENDBRANCH  13  15
ENDBRANCH  12  13
ENDBRANCH  11  12
ENDBRANCH   7  11
ENDBRANCH   2   3
TORSDOF 12
ENDMDL
MODEL      123
REMARK 921   NORMALIZED FREE ENERGY PREDICTED BY IDOCK:   -4.74 KCAL/MOL
REMARK 922        TOTAL FREE ENERGY PREDICTED BY IDOCK:  -10.30 KCAL/MOL
REMARK 923 INTER-LIGAND FREE ENERGY PREDICTED BY IDOCK:   -8.71 KCAL/MOL
REMARK 924 INTRA-LIGAND FREE ENERGY PREDICTED BY IDOCK:   -1.58 KCAL/MOL
REMARK 927      BINDING AFFINITY PREDICTED BY RF-SCORE:    0.00 PKD
ROOT
HETATM    1  C   UNL     1     -10.831   8.019  71.773  1.00  0.00    -0.242 C  
HETATM    2  O   UNL     1     -11.677   8.507  70.737  1.00  0.00    -0.277 OA 
ENDROOT
BRANCH   2   3
HETATM    3  C   UNL     1     -12.122   9.800  70.873  1.00  0.00    -0.321 A  
HETATM    4  C   UNL     1     -11.728  10.914  70.114  1.00  0.00    -0.347 A  
HETATM    5  C   UNL     1     -13.518  11.240  72.254  1.00  0.00    -0.026 A  
HETATM    6  C   UNL     1     -12.250  12.180  70.435  1.00  0.00    -0.378 A  
HETATM    7  C   UNL     1     -13.149  12.358  71.496  1.00  0.00    -0.362 A  
HETATM    8  C   UNL     1     -13.003   9.976  71.946  1.00  0.00    -0.547 A  
BRANCH   4   9
HETATM    9  O   UNL     1     -10.803  10.719  69.124  1.00  0.00    -0.206 OA 
HETATM   10  C   UNL     1     -11.279  10.349  67.837  1.00  0.00    -0.263 C  
ENDBRANCH   4   9
BRANCH   7  11
HETATM   11  C   UNL     1     -13.555  13.772  71.911  1.00  0.00    -0.514 C  
BRANCH  11  12
HETATM   12  C   UNL     1     -13.292  14.688  70.709  1.00  0.00    -0.222 C  
BRANCH  12  13
HETATM   13  N   UNL     1     -12.334  15.798  70.740  1.00  0.00    -0.417 NA 
HETATM   14  C   UNL     1     -11.400  15.707  71.861  1.00  0.00    -0.334 C  
BRANCH  13  15
HETATM   15  C   UNL     1     -11.597  15.933  69.455  1.00  0.00    -0.349 C  
BRANCH  15  16
HETATM   16  C   UNL     1     -11.949  15.019  68.239  1.00  0.00    -0.214 C  
BRANCH  16  17
HETATM   17  C   UNL     1     -10.811  14.082  67.776  1.00  0.00    -0.257 C  
BRANCH  17  18
HETATM   18  C   UNL     1     -10.304  14.157  66.308  1.00  0.00    -0.294 C  
HETATM   19  N   UNL     1     -12.445  14.740  64.830  1.00  0.00    -0.346 NA 
HETATM   20  C   UNL     1      -9.287  15.382  66.112  1.00  0.00    -0.367 C  
HETATM   21  C   UNL     1     -11.505  14.480  65.462  1.00  0.00    -0.343 C  
HETATM   22  C   UNL     1      -7.976  15.317  66.912  1.00  0.00    -0.194 C  
HETATM   23  C   UNL     1      -9.916  16.754  66.441  1.00  0.00    -0.317 C  
BRANCH  18  24
HETATM   24  C   UNL     1      -9.695  12.794  65.958  1.00  0.00    -0.226 A  
HETATM   25  C   UNL     1      -8.636  12.246  66.700  1.00  0.00    -0.099 A  
HETATM   26  C   UNL     1      -7.950  11.102  66.279  1.00  0.00    -0.125 A  
HETATM   27  C   UNL     1     -10.083  12.120  64.786  1.00  0.00    -0.276 A  
HETATM   28  C   UNL     1      -8.353  10.461  65.095  1.00  0.00    -0.165 A  
HETATM   29  C   UNL     1      -9.433  10.962  64.376  1.00  0.00    -0.287 A  
BRANCH  26  30
HETATM   30  O   UNL     1      -6.872  10.571  66.939  1.00  0.00    -0.082 OA 
HETATM   31  C   UNL     1      -6.976  10.433  68.351  1.00  0.00    -0.069 C  
ENDBRANCH  26  30
BRANCH  28  32
HETATM   32  O   UNL     1      -7.613   9.371  64.701  1.00  0.00    -0.102 OA 
HETATM   33  C   UNL     1      -8.226   8.096  64.851  1.00  0.00    -0.147 C  
ENDBRANCH  28  32
ENDBRANCH  18  24
ENDBRANCH  17  18
ENDBRANCH  16  17
ENDBRANCH  15  16
ENDBRANCH  13  15
ENDBRANCH  12  13
ENDBRANCH  11  12
ENDBRANCH   7  11
ENDBRANCH   2   3
TORSDOF 12
ENDMDL
MODEL      124
REMARK 921   NORMALIZED FREE ENERGY PREDICTED BY IDOCK:   -4.74 KCAL/MOL
REMARK 922        TOTAL FREE ENERGY PREDICTED BY IDOCK:  -10.29 KCAL/MOL
REMARK 923 INTER-LIGAND FREE ENERGY PREDICTED BY IDOCK:   -8.82 KCAL/MOL
REMARK 924 INTRA-LIGAND FREE ENERGY PREDICTED BY IDOCK:   -1.47 KCAL/MOL
REMARK 927      BINDING AFFINITY PREDICTED BY RF-SCORE:    0.00 PKD
ROOT
HETATM    1  C   UNL     1     -13.179  15.799  73.340  1.00  0.00    -0.544 C  
HETATM    2  O   UNL     1     -13.421  15.451  71.980  1.00  0.00    -0.394 OA 
ENDROOT
BRANCH   2   3
HETATM    3  C   UNL     1     -13.013  14.198  71.591  1.00  0.00    -0.347 A  
HETATM    4  C   UNL     1     -12.101  13.885  70.570  1.00  0.00    -0.356 A  
HETATM    5  C   UNL     1     -13.404  11.824  71.963  1.00  0.00    -0.417 A  
HETATM    6  C   UNL     1     -11.846  12.535  70.270  1.00  0.00    -0.305 A  
HETATM    7  C   UNL     1     -12.484  11.494  70.960  1.00  0.00    -0.458 A  
HETATM    8  C   UNL     1     -13.669  13.163  72.268  1.00  0.00    -0.647 A  
BRANCH   4   9
HETATM    9  O   UNL     1     -11.539  14.922  69.873  1.00  0.00    -0.257 OA 
HETATM   10  C   UNL     1     -11.856  15.040  68.493  1.00  0.00    -0.291 C  
ENDBRANCH   4   9
BRANCH   7  11
HETATM   11  C   UNL     1     -12.303  10.053  70.486  1.00  0.00    -0.282 C  
BRANCH  11  12
HETATM   12  C   UNL     1     -11.971   9.209  71.724  1.00  0.00    -0.379 C  
BRANCH  12  13
HETATM   13  N   UNL     1     -11.242   7.938  71.657  1.00  0.00    -0.245 NA 
HETATM   14  C   UNL     1     -10.890   7.418  72.976  1.00  0.00    -0.375 C  
BRANCH  13  15
HETATM   15  C   UNL     1     -11.981   6.914  70.870  1.00  0.00    -0.381 C  
BRANCH  15  16
HETATM   16  C   UNL     1     -11.408   6.389  69.516  1.00  0.00    -0.460 C  
BRANCH  16  17
HETATM   17  C   UNL     1      -9.906   6.028  69.538  1.00  0.00    -0.202 C  
BRANCH  17  18
HETATM   18  C   UNL     1      -9.033   6.294  68.280  1.00  0.00    -0.115 C  
HETATM   19  N   UNL     1      -6.566   5.518  68.931  1.00  0.00    -0.049 NA 
HETATM   20  C   UNL     1      -9.481   5.356  67.059  1.00  0.00    -0.133 C  
HETATM   21  C   UNL     1      -7.635   5.866  68.636  1.00  0.00    -0.090 C  
HETATM   22  C   UNL     1     -10.906   5.566  66.523  1.00  0.00    -0.237 C  
HETATM   23  C   UNL     1      -9.365   3.849  67.375  1.00  0.00    -0.225 C  
BRANCH  18  24
HETATM   24  C   UNL     1      -9.119   7.792  67.965  1.00  0.00    -0.128 A  
HETATM   25  C   UNL     1      -9.119   8.270  66.643  1.00  0.00    -0.204 A  
HETATM   26  C   UNL     1      -9.004   9.632  66.348  1.00  0.00    -0.152 A  
HETATM   27  C   UNL     1      -9.050   8.744  68.998  1.00  0.00    -0.141 A  
HETATM   28  C   UNL     1      -8.921  10.556  67.403  1.00  0.00    -0.135 A  
HETATM   29  C   UNL     1      -8.971  10.103  68.717  1.00  0.00    -0.147 A  
BRANCH  26  30
HETATM   30  O   UNL     1      -8.936  10.134  65.074  1.00  0.00    -0.166 OA 
HETATM   31  C   UNL     1      -8.517   9.245  64.045  1.00  0.00    -0.193 C  
ENDBRANCH  26  30
BRANCH  28  32
HETATM   32  O   UNL     1      -8.759  11.876  67.057  1.00  0.00    -0.169 OA 
HETATM   33  C   UNL     1      -8.968  12.836  68.085  1.00  0.00    -0.199 C  
ENDBRANCH  28  32
ENDBRANCH  18  24
ENDBRANCH  17  18
ENDBRANCH  16  17
ENDBRANCH  15  16
ENDBRANCH  13  15
ENDBRANCH  12  13
ENDBRANCH  11  12
ENDBRANCH   7  11
ENDBRANCH   2   3
TORSDOF 12
ENDMDL
MODEL      125
REMARK 921   NORMALIZED FREE ENERGY PREDICTED BY IDOCK:   -4.73 KCAL/MOL
REMARK 922        TOTAL FREE ENERGY PREDICTED BY IDOCK:  -10.28 KCAL/MOL
REMARK 923 INTER-LIGAND FREE ENERGY PREDICTED BY IDOCK:   -8.85 KCAL/MOL
REMARK 924 INTRA-LIGAND FREE ENERGY PREDICTED BY IDOCK:   -1.43 KCAL/MOL
REMARK 927      BINDING AFFINITY PREDICTED BY RF-SCORE:    0.00 PKD
ROOT
HETATM    1  C   UNL     1     -10.566  19.802  66.510  1.00  0.00    -0.467 C  
HETATM    2  O   UNL     1     -10.380  19.602  67.908  1.00  0.00    -0.416 OA 
ENDROOT
BRANCH   2   3
HETATM    3  C   UNL     1      -9.562  18.559  68.269  1.00  0.00    -0.343 A  
HETATM    4  C   UNL     1      -8.173  18.604  68.472  1.00  0.00    -0.341 A  
HETATM    5  C   UNL     1      -9.536  16.157  68.671  1.00  0.00    -0.226 A  
HETATM    6  C   UNL     1      -7.487  17.417  68.784  1.00  0.00    -0.258 A  
HETATM    7  C   UNL     1      -8.154  16.189  68.893  1.00  0.00    -0.228 A  
HETATM    8  C   UNL     1     -10.229  17.331  68.356  1.00  0.00    -0.358 A  
BRANCH   4   9
HETATM    9  O   UNL     1      -7.540  19.807  68.299  1.00  0.00    -0.302 OA 
HETATM   10  C   UNL     1      -6.375  20.059  69.072  1.00  0.00    -0.318 C  
ENDBRANCH   4   9
BRANCH   7  11
HETATM   11  C   UNL     1      -7.344  14.904  69.066  1.00  0.00    -0.143 C  
BRANCH  11  12
HETATM   12  C   UNL     1      -7.098  14.332  67.664  1.00  0.00    -0.183 C  
BRANCH  12  13
HETATM   13  N   UNL     1      -6.646  12.958  67.426  1.00  0.00    -0.157 NA 
HETATM   14  C   UNL     1      -5.717  12.484  68.450  1.00  0.00    -0.058 C  
BRANCH  13  15
HETATM   15  C   UNL     1      -7.786  12.015  67.276  1.00  0.00    -0.170 C  
BRANCH  15  16
HETATM   16  C   UNL     1      -8.769  11.764  68.463  1.00  0.00    -0.118 C  
BRANCH  16  17
HETATM   17  C   UNL     1      -8.830  10.303  68.964  1.00  0.00    -0.170 C  
BRANCH  17  18
HETATM   18  C   UNL     1     -10.186   9.544  68.955  1.00  0.00    -0.211 C  
HETATM   19  N   UNL     1     -12.031  11.364  68.328  1.00  0.00    -0.610 NA 
HETATM   20  C   UNL     1     -10.228   8.453  67.781  1.00  0.00    -0.283 C  
HETATM   21  C   UNL     1     -11.238  10.562  68.608  1.00  0.00    -0.270 C  
HETATM   22  C   UNL     1      -9.208   7.306  67.877  1.00  0.00    -0.131 C  
HETATM   23  C   UNL     1     -10.046   9.064  66.375  1.00  0.00    -0.351 C  
BRANCH  18  24
HETATM   24  C   UNL     1     -10.393   8.949  70.353  1.00  0.00    -0.240 A  
HETATM   25  C   UNL     1      -9.410   9.053  71.352  1.00  0.00    -0.310 A  
HETATM   26  C   UNL     1      -9.506   8.354  72.560  1.00  0.00    -0.289 A  
HETATM   27  C   UNL     1     -11.515   8.148  70.628  1.00  0.00    -0.237 A  
HETATM   28  C   UNL     1     -10.633   7.550  72.798  1.00  0.00    -0.313 A  
HETATM   29  C   UNL     1     -11.638   7.477  71.840  1.00  0.00    -0.312 A  
BRANCH  26  30
HETATM   30  O   UNL     1      -8.541   8.378  73.534  1.00  0.00    -0.304 OA 
HETATM   31  C   UNL     1      -7.279   7.802  73.216  1.00  0.00    -0.100 C  
ENDBRANCH  26  30
BRANCH  28  32
HETATM   32  O   UNL     1     -10.652   6.848  73.979  1.00  0.00    -0.349 OA 
HETATM   33  C   UNL     1     -10.433   5.445  73.890  1.00  0.00    -0.280 C  
ENDBRANCH  28  32
ENDBRANCH  18  24
ENDBRANCH  17  18
ENDBRANCH  16  17
ENDBRANCH  15  16
ENDBRANCH  13  15
ENDBRANCH  12  13
ENDBRANCH  11  12
ENDBRANCH   7  11
ENDBRANCH   2   3
TORSDOF 12
ENDMDL
MODEL      126
REMARK 921   NORMALIZED FREE ENERGY PREDICTED BY IDOCK:   -4.73 KCAL/MOL
REMARK 922        TOTAL FREE ENERGY PREDICTED BY IDOCK:  -10.27 KCAL/MOL
REMARK 923 INTER-LIGAND FREE ENERGY PREDICTED BY IDOCK:   -8.53 KCAL/MOL
REMARK 924 INTRA-LIGAND FREE ENERGY PREDICTED BY IDOCK:   -1.74 KCAL/MOL
REMARK 927      BINDING AFFINITY PREDICTED BY RF-SCORE:    0.00 PKD
ROOT
HETATM    1  C   UNL     1      -9.483  20.452  66.789  1.00  0.00    -0.341 C  
HETATM    2  O   UNL     1      -8.544  19.902  67.708  1.00  0.00    -0.314 OA 
ENDROOT
BRANCH   2   3
HETATM    3  C   UNL     1      -8.806  18.630  68.157  1.00  0.00    -0.311 A  
HETATM    4  C   UNL     1      -7.875  17.601  68.371  1.00  0.00    -0.268 A  
HETATM    5  C   UNL     1     -10.615  17.109  68.742  1.00  0.00    -0.336 A  
HETATM    6  C   UNL     1      -8.335  16.337  68.780  1.00  0.00    -0.235 A  
HETATM    7  C   UNL     1      -9.699  16.077  68.976  1.00  0.00    -0.244 A  
HETATM    8  C   UNL     1     -10.170  18.370  68.330  1.00  0.00    -0.407 A  
BRANCH   4   9
HETATM    9  O   UNL     1      -6.556  17.867  68.113  1.00  0.00    -0.189 OA 
HETATM   10  C   UNL     1      -5.641  17.780  69.196  1.00  0.00    -0.195 C  
ENDBRANCH   4   9
BRANCH   7  11
HETATM   11  C   UNL     1     -10.161  14.648  69.256  1.00  0.00    -0.156 C  
BRANCH  11  12
HETATM   12  C   UNL     1     -11.625  14.550  68.807  1.00  0.00    -0.312 C  
BRANCH  12  13
HETATM   13  N   UNL     1     -12.049  13.825  67.604  1.00  0.00    -0.347 NA 
HETATM   14  C   UNL     1     -11.381  14.300  66.394  1.00  0.00    -0.343 C  
BRANCH  13  15
HETATM   15  C   UNL     1     -11.880  12.355  67.753  1.00  0.00    -0.298 C  
BRANCH  15  16
HETATM   16  C   UNL     1     -10.667  11.626  67.093  1.00  0.00    -0.288 C  
BRANCH  16  17
HETATM   17  C   UNL     1      -9.571  11.159  68.078  1.00  0.00    -0.181 C  
BRANCH  17  18
HETATM   18  C   UNL     1      -9.117   9.673  68.073  1.00  0.00    -0.128 C  
HETATM   19  N   UNL     1      -9.291   8.869  65.537  1.00  0.00    -0.190 NA 
HETATM   20  C   UNL     1      -7.568   9.542  68.470  1.00  0.00    -0.081 C  
HETATM   21  C   UNL     1      -9.216   9.204  66.647  1.00  0.00    -0.164 C  
HETATM   22  C   UNL     1      -7.185  10.000  69.886  1.00  0.00    -0.145 C  
HETATM   23  C   UNL     1      -6.627  10.302  67.510  1.00  0.00    -0.067 C  
BRANCH  18  24
HETATM   24  C   UNL     1     -10.056   8.898  69.005  1.00  0.00    -0.205 A  
HETATM   25  C   UNL     1     -10.776   9.541  70.027  1.00  0.00    -0.278 A  
HETATM   26  C   UNL     1     -11.482   8.824  70.998  1.00  0.00    -0.285 A  
HETATM   27  C   UNL     1     -10.108   7.494  68.960  1.00  0.00    -0.192 A  
HETATM   28  C   UNL     1     -11.502   7.420  70.933  1.00  0.00    -0.286 A  
HETATM   29  C   UNL     1     -10.836   6.772  69.899  1.00  0.00    -0.310 A  
BRANCH  26  30
HETATM   30  O   UNL     1     -12.145   9.408  72.047  1.00  0.00    -0.362 OA 
HETATM   31  C   UNL     1     -13.130  10.386  71.732  1.00  0.00    -0.462 C  
ENDBRANCH  26  30
BRANCH  28  32
HETATM   32  O   UNL     1     -12.169   6.765  71.941  1.00  0.00    -0.329 OA 
HETATM   33  C   UNL     1     -11.472   5.703  72.582  1.00  0.00    -0.285 C  
ENDBRANCH  28  32
ENDBRANCH  18  24
ENDBRANCH  17  18
ENDBRANCH  16  17
ENDBRANCH  15  16
ENDBRANCH  13  15
ENDBRANCH  12  13
ENDBRANCH  11  12
ENDBRANCH   7  11
ENDBRANCH   2   3
TORSDOF 12
ENDMDL
MODEL      127
REMARK 921   NORMALIZED FREE ENERGY PREDICTED BY IDOCK:   -4.73 KCAL/MOL
REMARK 922        TOTAL FREE ENERGY PREDICTED BY IDOCK:  -10.27 KCAL/MOL
REMARK 923 INTER-LIGAND FREE ENERGY PREDICTED BY IDOCK:   -8.68 KCAL/MOL
REMARK 924 INTRA-LIGAND FREE ENERGY PREDICTED BY IDOCK:   -1.59 KCAL/MOL
REMARK 927      BINDING AFFINITY PREDICTED BY RF-SCORE:    0.00 PKD
ROOT
HETATM    1  C   UNL     1      -9.808   6.817  73.844  1.00  0.00    -0.289 C  
HETATM    2  O   UNL     1     -11.069   7.139  73.265  1.00  0.00    -0.301 OA 
ENDROOT
BRANCH   2   3
HETATM    3  C   UNL     1     -11.045   7.587  71.966  1.00  0.00    -0.247 A  
HETATM    4  C   UNL     1     -10.947   6.805  70.803  1.00  0.00    -0.262 A  
HETATM    5  C   UNL     1     -10.979   9.607  70.608  1.00  0.00    -0.386 A  
HETATM    6  C   UNL     1     -10.878   7.445  69.553  1.00  0.00    -0.201 A  
HETATM    7  C   UNL     1     -10.899   8.842  69.438  1.00  0.00    -0.123 A  
HETATM    8  C   UNL     1     -11.045   8.982  71.858  1.00  0.00    -0.433 A  
BRANCH   4   9
HETATM    9  O   UNL     1     -10.868   5.446  70.951  1.00  0.00    -0.218 OA 
HETATM   10  C   UNL     1      -9.868   4.758  70.212  1.00  0.00    -0.242 C  
ENDBRANCH   4   9
BRANCH   7  11
HETATM   11  C   UNL     1     -10.652   9.490  68.076  1.00  0.00    -0.282 C  
BRANCH  11  12
HETATM   12  C   UNL     1      -9.331   8.925  67.540  1.00  0.00    -0.136 C  
BRANCH  12  13
HETATM   13  N   UNL     1      -8.019   9.306  68.074  1.00  0.00    -0.099 NA 
HETATM   14  C   UNL     1      -6.942   9.136  67.101  1.00  0.00    -0.081 C  
BRANCH  13  15
HETATM   15  C   UNL     1      -8.020  10.690  68.617  1.00  0.00    -0.128 C  
BRANCH  15  16
HETATM   16  C   UNL     1      -8.163  11.917  67.662  1.00  0.00    -0.148 C  
BRANCH  16  17
HETATM   17  C   UNL     1      -8.773  13.181  68.309  1.00  0.00    -0.165 C  
BRANCH  17  18
HETATM   18  C   UNL     1      -9.847  13.997  67.536  1.00  0.00    -0.236 C  
HETATM   19  N   UNL     1     -10.466  12.535  65.394  1.00  0.00    -0.276 NA 
HETATM   20  C   UNL     1     -11.199  14.122  68.389  1.00  0.00    -0.289 C  
HETATM   21  C   UNL     1     -10.201  13.185  66.320  1.00  0.00    -0.293 C  
HETATM   22  C   UNL     1     -11.100  14.885  69.720  1.00  0.00    -0.300 C  
HETATM   23  C   UNL     1     -11.833  12.756  68.730  1.00  0.00    -0.346 C  
BRANCH  18  24
HETATM   24  C   UNL     1      -9.226  15.350  67.170  1.00  0.00    -0.226 A  
HETATM   25  C   UNL     1     -10.017  16.442  66.774  1.00  0.00    -0.277 A  
HETATM   26  C   UNL     1      -9.455  17.614  66.257  1.00  0.00    -0.215 A  
HETATM   27  C   UNL     1      -7.830  15.493  67.076  1.00  0.00    -0.260 A  
HETATM   28  C   UNL     1      -8.058  17.719  66.161  1.00  0.00    -0.181 A  
HETATM   29  C   UNL     1      -7.259  16.667  66.597  1.00  0.00    -0.276 A  
BRANCH  26  30
HETATM   30  O   UNL     1     -10.192  18.677  65.800  1.00  0.00    -0.552 OA 
HETATM   31  C   UNL     1     -10.674  19.600  66.770  1.00  0.00    -0.447 C  
ENDBRANCH  26  30
BRANCH  28  32
HETATM   32  O   UNL     1      -7.562  18.871  65.600  1.00  0.00    -0.485 OA 
HETATM   33  C   UNL     1      -6.186  18.865  65.239  1.00  0.00    -0.281 C  
ENDBRANCH  28  32
ENDBRANCH  18  24
ENDBRANCH  17  18
ENDBRANCH  16  17
ENDBRANCH  15  16
ENDBRANCH  13  15
ENDBRANCH  12  13
ENDBRANCH  11  12
ENDBRANCH   7  11
ENDBRANCH   2   3
TORSDOF 12
ENDMDL
MODEL      128
REMARK 921   NORMALIZED FREE ENERGY PREDICTED BY IDOCK:   -4.73 KCAL/MOL
REMARK 922        TOTAL FREE ENERGY PREDICTED BY IDOCK:  -10.27 KCAL/MOL
REMARK 923 INTER-LIGAND FREE ENERGY PREDICTED BY IDOCK:   -8.95 KCAL/MOL
REMARK 924 INTRA-LIGAND FREE ENERGY PREDICTED BY IDOCK:   -1.32 KCAL/MOL
REMARK 927      BINDING AFFINITY PREDICTED BY RF-SCORE:    0.00 PKD
ROOT
HETATM    1  C   UNL     1     -10.906  17.137  65.410  1.00  0.00    -0.046 C  
HETATM    2  O   UNL     1     -10.626  15.979  64.630  1.00  0.00    -0.564 OA 
ENDROOT
BRANCH   2   3
HETATM    3  C   UNL     1     -10.622  14.779  65.301  1.00  0.00    -0.395 A  
HETATM    4  C   UNL     1      -9.655  14.323  66.211  1.00  0.00    -0.288 A  
HETATM    5  C   UNL     1     -11.801  12.658  65.497  1.00  0.00    -0.479 A  
HETATM    6  C   UNL     1      -9.786  13.035  66.761  1.00  0.00    -0.243 A  
HETATM    7  C   UNL     1     -10.855  12.194  66.419  1.00  0.00    -0.306 A  
HETATM    8  C   UNL     1     -11.679  13.936  64.941  1.00  0.00    -0.378 A  
BRANCH   4   9
HETATM    9  O   UNL     1      -8.591  15.142  66.479  1.00  0.00    -0.270 OA 
HETATM   10  C   UNL     1      -7.739  14.789  67.560  1.00  0.00    -0.194 C  
ENDBRANCH   4   9
BRANCH   7  11
HETATM   11  C   UNL     1     -10.862  10.747  66.911  1.00  0.00    -0.288 C  
BRANCH  11  12
HETATM   12  C   UNL     1      -9.944   9.948  65.977  1.00  0.00    -0.268 C  
BRANCH  12  13
HETATM   13  N   UNL     1      -9.545   8.561  66.239  1.00  0.00    -0.239 NA 
HETATM   14  C   UNL     1      -8.159   8.448  66.690  1.00  0.00    -0.101 C  
BRANCH  13  15
HETATM   15  C   UNL     1     -10.464   7.889  67.195  1.00  0.00    -0.344 C  
BRANCH  15  16
HETATM   16  C   UNL     1     -10.011   7.603  68.662  1.00  0.00    -0.181 C  
BRANCH  16  17
HETATM   17  C   UNL     1     -11.104   7.809  69.735  1.00  0.00    -0.095 C  
BRANCH  17  18
HETATM   18  C   UNL     1     -10.720   8.409  71.117  1.00  0.00    -0.280 C  
HETATM   19  N   UNL     1      -8.326   9.535  70.778  1.00  0.00    -0.278 NA 
HETATM   20  C   UNL     1     -11.713   9.601  71.524  1.00  0.00    -0.472 C  
HETATM   21  C   UNL     1      -9.367   9.043  70.942  1.00  0.00    -0.264 C  
HETATM   22  C   UNL     1     -13.189   9.222  71.727  1.00  0.00    -0.472 C  
HETATM   23  C   UNL     1     -11.710  10.767  70.512  1.00  0.00    -0.449 C  
BRANCH  18  24
HETATM   24  C   UNL     1     -10.695   7.259  72.130  1.00  0.00    -0.252 A  
HETATM   25  C   UNL     1      -9.584   7.030  72.960  1.00  0.00    -0.182 A  
HETATM   26  C   UNL     1      -9.472   5.879  73.746  1.00  0.00    -0.141 A  
HETATM   27  C   UNL     1     -11.730   6.306  72.154  1.00  0.00    -0.368 A  
HETATM   28  C   UNL     1     -10.516   4.939  73.735  1.00  0.00    -0.253 A  
HETATM   29  C   UNL     1     -11.646   5.176  72.959  1.00  0.00    -0.301 A  
BRANCH  26  30
HETATM   30  O   UNL     1      -8.379   5.586  74.520  1.00  0.00    -0.106 OA 
HETATM   31  C   UNL     1      -7.122   5.484  73.859  1.00  0.00    -0.086 C  
ENDBRANCH  26  30
BRANCH  28  32
HETATM   32  O   UNL     1     -10.332   3.803  74.488  1.00  0.00    -0.186 OA 
HETATM   33  C   UNL     1     -10.879   2.597  73.968  1.00  0.00    -0.182 C  
ENDBRANCH  28  32
ENDBRANCH  18  24
ENDBRANCH  17  18
ENDBRANCH  16  17
ENDBRANCH  15  16
ENDBRANCH  13  15
ENDBRANCH  12  13
ENDBRANCH  11  12
ENDBRANCH   7  11
ENDBRANCH   2   3
TORSDOF 12
ENDMDL
MODEL      129
REMARK 921   NORMALIZED FREE ENERGY PREDICTED BY IDOCK:   -4.73 KCAL/MOL
REMARK 922        TOTAL FREE ENERGY PREDICTED BY IDOCK:  -10.26 KCAL/MOL
REMARK 923 INTER-LIGAND FREE ENERGY PREDICTED BY IDOCK:   -8.63 KCAL/MOL
REMARK 924 INTRA-LIGAND FREE ENERGY PREDICTED BY IDOCK:   -1.63 KCAL/MOL
REMARK 927      BINDING AFFINITY PREDICTED BY RF-SCORE:    0.00 PKD
ROOT
HETATM    1  C   UNL     1     -10.527  18.955  66.519  1.00  0.00    -0.432 C  
HETATM    2  O   UNL     1     -10.408  18.541  67.876  1.00  0.00    -0.363 OA 
ENDROOT
BRANCH   2   3
HETATM    3  C   UNL     1      -9.535  17.509  68.123  1.00  0.00    -0.291 A  
HETATM    4  C   UNL     1      -8.197  17.614  68.537  1.00  0.00    -0.292 A  
HETATM    5  C   UNL     1      -9.301  15.089  67.996  1.00  0.00    -0.185 A  
HETATM    6  C   UNL     1      -7.433  16.443  68.685  1.00  0.00    -0.194 A  
HETATM    7  C   UNL     1      -7.971  15.175  68.424  1.00  0.00    -0.136 A  
HETATM    8  C   UNL     1     -10.070  16.247  67.841  1.00  0.00    -0.247 A  
BRANCH   4   9
HETATM    9  O   UNL     1      -7.682  18.869  68.725  1.00  0.00    -0.329 OA 
HETATM   10  C   UNL     1      -6.378  18.972  69.280  1.00  0.00    -0.287 C  
ENDBRANCH   4   9
BRANCH   7  11
HETATM   11  C   UNL     1      -7.055  13.951  68.436  1.00  0.00    -0.104 C  
BRANCH  11  12
HETATM   12  C   UNL     1      -7.680  12.911  67.497  1.00  0.00    -0.174 C  
BRANCH  12  13
HETATM   13  N   UNL     1      -7.152  11.551  67.340  1.00  0.00    -0.109 NA 
HETATM   14  C   UNL     1      -5.954  11.503  66.505  1.00  0.00    -0.101 C  
BRANCH  13  15
HETATM   15  C   UNL     1      -6.902  10.897  68.653  1.00  0.00    -0.062 C  
BRANCH  15  16
HETATM   16  C   UNL     1      -8.086  10.310  69.484  1.00  0.00    -0.170 C  
BRANCH  16  17
HETATM   17  C   UNL     1      -8.769   9.070  68.863  1.00  0.00    -0.136 C  
BRANCH  17  18
HETATM   18  C   UNL     1     -10.306   9.075  68.633  1.00  0.00    -0.233 C  
HETATM   19  N   UNL     1     -10.797   7.043  66.977  1.00  0.00    -0.370 NA 
HETATM   20  C   UNL     1     -11.093   8.737  69.988  1.00  0.00    -0.169 C  
HETATM   21  C   UNL     1     -10.596   7.935  67.694  1.00  0.00    -0.206 C  
HETATM   22  C   UNL     1     -10.929   9.739  71.142  1.00  0.00    -0.386 C  
HETATM   23  C   UNL     1     -10.731   7.354  70.574  1.00  0.00    -0.247 C  
BRANCH  18  24
HETATM   24  C   UNL     1     -10.680  10.434  68.030  1.00  0.00    -0.292 A  
HETATM   25  C   UNL     1     -11.257  11.452  68.807  1.00  0.00    -0.308 A  
HETATM   26  C   UNL     1     -11.776  12.618  68.233  1.00  0.00    -0.342 A  
HETATM   27  C   UNL     1     -10.593  10.647  66.642  1.00  0.00    -0.276 A  
HETATM   28  C   UNL     1     -11.687  12.794  66.842  1.00  0.00    -0.380 A  
HETATM   29  C   UNL     1     -11.072  11.818  66.065  1.00  0.00    -0.363 A  
BRANCH  26  30
HETATM   30  O   UNL     1     -12.403  13.607  68.947  1.00  0.00    -0.276 OA 
HETATM   31  C   UNL     1     -12.124  13.681  70.341  1.00  0.00    -0.351 C  
ENDBRANCH  26  30
BRANCH  28  32
HETATM   32  O   UNL     1     -12.256  13.933  66.327  1.00  0.00    -0.433 OA 
HETATM   33  C   UNL     1     -11.748  14.393  65.080  1.00  0.00    -0.389 C  
ENDBRANCH  28  32
ENDBRANCH  18  24
ENDBRANCH  17  18
ENDBRANCH  16  17
ENDBRANCH  15  16
ENDBRANCH  13  15
ENDBRANCH  12  13
ENDBRANCH  11  12
ENDBRANCH   7  11
ENDBRANCH   2   3
TORSDOF 12
ENDMDL
MODEL      130
REMARK 921   NORMALIZED FREE ENERGY PREDICTED BY IDOCK:   -4.72 KCAL/MOL
REMARK 922        TOTAL FREE ENERGY PREDICTED BY IDOCK:  -10.25 KCAL/MOL
REMARK 923 INTER-LIGAND FREE ENERGY PREDICTED BY IDOCK:   -8.84 KCAL/MOL
REMARK 924 INTRA-LIGAND FREE ENERGY PREDICTED BY IDOCK:   -1.42 KCAL/MOL
REMARK 927      BINDING AFFINITY PREDICTED BY RF-SCORE:    0.00 PKD
ROOT
HETATM    1  C   UNL     1      -9.102   6.670  74.356  1.00  0.00    -0.194 C  
HETATM    2  O   UNL     1     -10.314   7.070  73.725  1.00  0.00    -0.339 OA 
ENDROOT
BRANCH   2   3
HETATM    3  C   UNL     1     -10.457   6.719  72.404  1.00  0.00    -0.204 A  
HETATM    4  C   UNL     1     -11.610   6.855  71.613  1.00  0.00    -0.287 A  
HETATM    5  C   UNL     1      -9.315   5.637  70.546  1.00  0.00    -0.194 A  
HETATM    6  C   UNL     1     -11.589   6.386  70.288  1.00  0.00    -0.451 A  
HETATM    7  C   UNL     1     -10.450   5.781  69.739  1.00  0.00    -0.363 A  
HETATM    8  C   UNL     1      -9.324   6.097  71.867  1.00  0.00    -0.157 A  
BRANCH   4   9
HETATM    9  O   UNL     1     -12.726   7.395  72.196  1.00  0.00    -0.228 OA 
HETATM   10  C   UNL     1     -13.985   7.105  71.606  1.00  0.00    -0.309 C  
ENDBRANCH   4   9
BRANCH   7  11
HETATM   11  C   UNL     1     -10.531   5.137  68.355  1.00  0.00    -0.084 C  
BRANCH  11  12
HETATM   12  C   UNL     1     -10.337   6.256  67.324  1.00  0.00    -0.216 C  
BRANCH  12  13
HETATM   13  N   UNL     1      -9.240   7.228  67.392  1.00  0.00    -0.126 NA 
HETATM   14  C   UNL     1      -7.925   6.593  67.443  1.00  0.00    -0.114 C  
BRANCH  13  15
HETATM   15  C   UNL     1      -9.302   8.215  66.281  1.00  0.00    -0.196 C  
BRANCH  15  16
HETATM   16  C   UNL     1     -10.024   9.586  66.477  1.00  0.00    -0.329 C  
BRANCH  16  17
HETATM   17  C   UNL     1     -11.010   9.640  67.667  1.00  0.00    -0.190 C  
BRANCH  17  18
HETATM   18  C   UNL     1     -10.931  10.820  68.675  1.00  0.00    -0.285 C  
HETATM   19  N   UNL     1     -12.791  10.321  70.520  1.00  0.00    -0.284 NA 
HETATM   20  C   UNL     1      -9.529  10.820  69.454  1.00  0.00    -0.037 C  
HETATM   21  C   UNL     1     -11.981  10.554  69.720  1.00  0.00    -0.238 C  
HETATM   22  C   UNL     1      -8.271  11.034  68.597  1.00  0.00    -0.151 C  
HETATM   23  C   UNL     1      -9.279   9.525  70.257  1.00  0.00    -0.303 C  
BRANCH  18  24
HETATM   24  C   UNL     1     -11.200  12.114  67.898  1.00  0.00    -0.329 A  
HETATM   25  C   UNL     1     -11.874  12.107  66.665  1.00  0.00    -0.314 A  
HETATM   26  C   UNL     1     -11.956  13.248  65.860  1.00  0.00    -0.419 A  
HETATM   27  C   UNL     1     -10.645  13.333  68.327  1.00  0.00    -0.262 A  
HETATM   28  C   UNL     1     -11.378  14.446  66.310  1.00  0.00    -0.350 A  
HETATM   29  C   UNL     1     -10.752  14.482  67.552  1.00  0.00    -0.276 A  
BRANCH  26  30
HETATM   30  O   UNL     1     -12.549  13.269  64.623  1.00  0.00    -0.588 OA 
HETATM   31  C   UNL     1     -11.866  12.609  63.563  1.00  0.00    -0.541 C  
ENDBRANCH  26  30
BRANCH  28  32
HETATM   32  O   UNL     1     -11.444  15.522  65.458  1.00  0.00    -0.168 OA 
HETATM   33  C   UNL     1     -10.329  16.405  65.457  1.00  0.00    -0.313 C  
ENDBRANCH  28  32
ENDBRANCH  18  24
ENDBRANCH  17  18
ENDBRANCH  16  17
ENDBRANCH  15  16
ENDBRANCH  13  15
ENDBRANCH  12  13
ENDBRANCH  11  12
ENDBRANCH   7  11
ENDBRANCH   2   3
TORSDOF 12
ENDMDL
MODEL      131
REMARK 921   NORMALIZED FREE ENERGY PREDICTED BY IDOCK:   -4.72 KCAL/MOL
REMARK 922        TOTAL FREE ENERGY PREDICTED BY IDOCK:  -10.25 KCAL/MOL
REMARK 923 INTER-LIGAND FREE ENERGY PREDICTED BY IDOCK:   -8.75 KCAL/MOL
REMARK 924 INTRA-LIGAND FREE ENERGY PREDICTED BY IDOCK:   -1.51 KCAL/MOL
REMARK 927      BINDING AFFINITY PREDICTED BY RF-SCORE:    0.00 PKD
ROOT
HETATM    1  C   UNL     1      -9.136   3.878  68.786  1.00  0.00    -0.138 C  
HETATM    2  O   UNL     1      -9.016   4.316  70.136  1.00  0.00    -0.077 OA 
ENDROOT
BRANCH   2   3
HETATM    3  C   UNL     1     -10.015   5.136  70.601  1.00  0.00    -0.226 A  
HETATM    4  C   UNL     1     -10.437   5.285  71.932  1.00  0.00    -0.219 A  
HETATM    5  C   UNL     1     -11.774   6.658  69.880  1.00  0.00    -0.333 A  
HETATM    6  C   UNL     1     -11.522   6.133  72.216  1.00  0.00    -0.360 A  
HETATM    7  C   UNL     1     -12.196   6.830  71.204  1.00  0.00    -0.413 A  
HETATM    8  C   UNL     1     -10.698   5.814  69.584  1.00  0.00    -0.416 A  
BRANCH   4   9
HETATM    9  O   UNL     1      -9.799   4.544  72.892  1.00  0.00    -0.137 OA 
HETATM   10  C   UNL     1     -10.499   3.443  73.453  1.00  0.00    -0.175 C  
ENDBRANCH   4   9
BRANCH   7  11
HETATM   11  C   UNL     1     -13.469   7.605  71.541  1.00  0.00    -0.394 C  
BRANCH  11  12
HETATM   12  C   UNL     1     -13.037   8.982  72.061  1.00  0.00    -0.414 C  
BRANCH  12  13
HETATM   13  N   UNL     1     -13.086  10.199  71.245  1.00  0.00    -0.385 NA 
HETATM   14  C   UNL     1     -13.233  11.412  72.048  1.00  0.00    -0.327 C  
BRANCH  13  15
HETATM   15  C   UNL     1     -11.911  10.310  70.340  1.00  0.00    -0.309 C  
BRANCH  15  16
HETATM   16  C   UNL     1     -11.642  11.628  69.547  1.00  0.00    -0.397 C  
BRANCH  16  17
HETATM   17  C   UNL     1     -11.334  11.435  68.044  1.00  0.00    -0.372 C  
BRANCH  17  18
HETATM   18  C   UNL     1      -9.909  11.745  67.506  1.00  0.00    -0.195 C  
HETATM   19  N   UNL     1      -8.220  10.655  69.258  1.00  0.00    -0.144 NA 
HETATM   20  C   UNL     1      -9.643  10.996  66.114  1.00  0.00    -0.240 C  
HETATM   21  C   UNL     1      -8.945  11.140  68.490  1.00  0.00    -0.168 C  
HETATM   22  C   UNL     1     -10.539  11.407  64.934  1.00  0.00    -0.368 C  
HETATM   23  C   UNL     1      -9.759   9.459  66.217  1.00  0.00    -0.330 C  
BRANCH  18  24
HETATM   24  C   UNL     1      -9.769  13.269  67.419  1.00  0.00    -0.221 A  
HETATM   25  C   UNL     1      -8.574  13.922  67.766  1.00  0.00    -0.182 A  
HETATM   26  C   UNL     1      -8.494  15.314  67.873  1.00  0.00    -0.148 A  
HETATM   27  C   UNL     1     -10.886  14.073  67.129  1.00  0.00    -0.288 A  
HETATM   28  C   UNL     1      -9.633  16.088  67.592  1.00  0.00    -0.218 A  
HETATM   29  C   UNL     1     -10.809  15.460  67.197  1.00  0.00    -0.321 A  
BRANCH  26  30
HETATM   30  O   UNL     1      -7.367  15.986  68.271  1.00  0.00    -0.123 OA 
HETATM   31  C   UNL     1      -6.158  15.697  67.578  1.00  0.00    -0.113 C  
ENDBRANCH  26  30
BRANCH  28  32
HETATM   32  O   UNL     1      -9.513  17.446  67.761  1.00  0.00    -0.254 OA 
HETATM   33  C   UNL     1     -10.120  18.001  68.922  1.00  0.00    -0.344 C  
ENDBRANCH  28  32
ENDBRANCH  18  24
ENDBRANCH  17  18
ENDBRANCH  16  17
ENDBRANCH  15  16
ENDBRANCH  13  15
ENDBRANCH  12  13
ENDBRANCH  11  12
ENDBRANCH   7  11
ENDBRANCH   2   3
TORSDOF 12
ENDMDL
MODEL      132
REMARK 921   NORMALIZED FREE ENERGY PREDICTED BY IDOCK:   -4.72 KCAL/MOL
REMARK 922        TOTAL FREE ENERGY PREDICTED BY IDOCK:  -10.25 KCAL/MOL
REMARK 923 INTER-LIGAND FREE ENERGY PREDICTED BY IDOCK:   -8.79 KCAL/MOL
REMARK 924 INTRA-LIGAND FREE ENERGY PREDICTED BY IDOCK:   -1.46 KCAL/MOL
REMARK 927      BINDING AFFINITY PREDICTED BY RF-SCORE:    0.00 PKD
ROOT
HETATM    1  C   UNL     1     -10.583   8.811  71.695  1.00  0.00    -0.331 C  
HETATM    2  O   UNL     1     -11.608   9.167  70.773  1.00  0.00    -0.276 OA 
ENDROOT
BRANCH   2   3
HETATM    3  C   UNL     1     -12.143  10.425  70.915  1.00  0.00    -0.374 A  
HETATM    4  C   UNL     1     -11.890  11.548  70.110  1.00  0.00    -0.356 A  
HETATM    5  C   UNL     1     -13.551  11.786  72.362  1.00  0.00     0.134 A  
HETATM    6  C   UNL     1     -12.487  12.777  70.443  1.00  0.00    -0.231 A  
HETATM    7  C   UNL     1     -13.323  12.911  71.560  1.00  0.00    -0.260 A  
HETATM    8  C   UNL     1     -12.960  10.559  72.044  1.00  0.00    -0.490 A  
BRANCH   4   9
HETATM    9  O   UNL     1     -11.022  11.400  69.061  1.00  0.00    -0.212 OA 
HETATM   10  C   UNL     1     -11.563  11.027  67.802  1.00  0.00    -0.194 C  
ENDBRANCH   4   9
BRANCH   7  11
HETATM   11  C   UNL     1     -13.810  14.299  71.974  1.00  0.00    -0.564 C  
BRANCH  11  12
HETATM   12  C   UNL     1     -13.212  15.303  70.981  1.00  0.00    -0.484 C  
BRANCH  12  13
HETATM   13  N   UNL     1     -12.158  16.257  71.340  1.00  0.00    -0.320 NA 
HETATM   14  C   UNL     1     -11.936  16.336  72.783  1.00  0.00    -0.537 C  
BRANCH  13  15
HETATM   15  C   UNL     1     -10.884  15.973  70.629  1.00  0.00    -0.162 C  
BRANCH  15  16
HETATM   16  C   UNL     1     -10.873  15.735  69.086  1.00  0.00    -0.254 C  
BRANCH  16  17
HETATM   17  C   UNL     1      -9.726  14.835  68.572  1.00  0.00    -0.218 C  
BRANCH  17  18
HETATM   18  C   UNL     1      -9.157  15.057  67.143  1.00  0.00    -0.229 C  
HETATM   19  N   UNL     1     -10.803  16.798  65.971  1.00  0.00    -0.111 NA 
HETATM   20  C   UNL     1      -7.725  15.776  67.197  1.00  0.00    -0.255 C  
HETATM   21  C   UNL     1     -10.081  16.034  66.467  1.00  0.00    -0.287 C  
HETATM   22  C   UNL     1      -6.594  14.993  67.885  1.00  0.00    -0.174 C  
HETATM   23  C   UNL     1      -7.762  17.158  67.886  1.00  0.00    -0.188 C  
BRANCH  18  24
HETATM   24  C   UNL     1      -9.134  13.697  66.436  1.00  0.00    -0.073 A  
HETATM   25  C   UNL     1      -9.916  13.444  65.296  1.00  0.00    -0.195 A  
HETATM   26  C   UNL     1     -10.049  12.159  64.760  1.00  0.00    -0.251 A  
HETATM   27  C   UNL     1      -8.440  12.612  67.000  1.00  0.00    -0.150 A  
HETATM   28  C   UNL     1      -9.354  11.093  65.357  1.00  0.00    -0.219 A  
HETATM   29  C   UNL     1      -8.536  11.337  66.454  1.00  0.00    -0.169 A  
BRANCH  26  30
HETATM   30  O   UNL     1     -10.850  11.858  63.689  1.00  0.00    -0.367 OA 
HETATM   31  C   UNL     1     -11.884  12.782  63.368  1.00  0.00    -0.518 C  
ENDBRANCH  26  30
BRANCH  28  32
HETATM   32  O   UNL     1      -9.560   9.845  64.820  1.00  0.00    -0.289 OA 
HETATM   33  C   UNL     1      -9.118   8.737  65.594  1.00  0.00    -0.191 C  
ENDBRANCH  28  32
ENDBRANCH  18  24
ENDBRANCH  17  18
ENDBRANCH  16  17
ENDBRANCH  15  16
ENDBRANCH  13  15
ENDBRANCH  12  13
ENDBRANCH  11  12
ENDBRANCH   7  11
ENDBRANCH   2   3
TORSDOF 12
ENDMDL
MODEL      133
REMARK 921   NORMALIZED FREE ENERGY PREDICTED BY IDOCK:   -4.69 KCAL/MOL
REMARK 922        TOTAL FREE ENERGY PREDICTED BY IDOCK:  -10.20 KCAL/MOL
REMARK 923 INTER-LIGAND FREE ENERGY PREDICTED BY IDOCK:   -9.97 KCAL/MOL
REMARK 924 INTRA-LIGAND FREE ENERGY PREDICTED BY IDOCK:   -0.23 KCAL/MOL
REMARK 927      BINDING AFFINITY PREDICTED BY RF-SCORE:    0.00 PKD
ROOT
HETATM    1  C   UNL     1     -12.728  15.966  74.468  1.00  0.00    -0.265 C  
HETATM    2  O   UNL     1     -13.253  14.898  73.687  1.00  0.00    -0.485 OA 
ENDROOT
BRANCH   2   3
HETATM    3  C   UNL     1     -12.690  14.716  72.447  1.00  0.00    -0.347 A  
HETATM    4  C   UNL     1     -12.744  13.558  71.654  1.00  0.00    -0.287 A  
HETATM    5  C   UNL     1     -11.254  15.776  70.790  1.00  0.00    -0.404 A  
HETATM    6  C   UNL     1     -12.055  13.534  70.429  1.00  0.00    -0.415 A  
HETATM    7  C   UNL     1     -11.311  14.635  69.981  1.00  0.00    -0.288 A  
HETATM    8  C   UNL     1     -11.932  15.810  72.013  1.00  0.00    -0.570 A  
BRANCH   4   9
HETATM    9  O   UNL     1     -13.427  12.478  72.146  1.00  0.00    -0.532 OA 
HETATM   10  C   UNL     1     -13.094  11.195  71.634  1.00  0.00    -0.424 C  
ENDBRANCH   4   9
BRANCH   7  11
HETATM   11  C   UNL     1     -10.446  14.501  68.728  1.00  0.00    -0.246 C  
BRANCH  11  12
HETATM   12  C   UNL     1     -11.059  15.411  67.656  1.00  0.00    -0.316 C  
BRANCH  12  13
HETATM   13  N   UNL     1     -10.381  15.737  66.397  1.00  0.00    -0.289 NA 
HETATM   14  C   UNL     1      -9.522  16.915  66.506  1.00  0.00    -0.276 C  
BRANCH  13  15
HETATM   15  C   UNL     1      -9.617  14.579  65.861  1.00  0.00    -0.247 C  
BRANCH  15  16
HETATM   16  C   UNL     1      -9.255  13.372  66.783  1.00  0.00    -0.242 C  
BRANCH  16  17
HETATM   17  C   UNL     1      -8.939  12.054  66.040  1.00  0.00    -0.021 C  
BRANCH  17  18
HETATM   18  C   UNL     1     -10.074  11.022  65.790  1.00  0.00    -0.305 C  
HETATM   19  N   UNL     1     -12.354  12.390  65.994  1.00  0.00    -0.551 NA 
HETATM   20  C   UNL     1     -10.028  10.466  64.287  1.00  0.00    -0.368 C  
HETATM   21  C   UNL     1     -11.369  11.780  65.908  1.00  0.00    -0.263 C  
HETATM   22  C   UNL     1      -8.770   9.677  63.889  1.00  0.00    -0.241 C  
HETATM   23  C   UNL     1     -10.186  11.574  63.223  1.00  0.00    -0.432 C  
BRANCH  18  24
HETATM   24  C   UNL     1      -9.945   9.925  66.853  1.00  0.00    -0.268 A  
HETATM   25  C   UNL     1     -10.514   8.653  66.674  1.00  0.00    -0.239 A  
HETATM   26  C   UNL     1     -10.568   7.713  67.709  1.00  0.00    -0.196 A  
HETATM   27  C   UNL     1      -9.378  10.211  68.108  1.00  0.00    -0.140 A  
HETATM   28  C   UNL     1     -10.006   8.036  68.955  1.00  0.00    -0.185 A  
HETATM   29  C   UNL     1      -9.394   9.271  69.133  1.00  0.00    -0.157 A  
BRANCH  26  30
HETATM   30  O   UNL     1     -11.170   6.486  67.595  1.00  0.00    -0.324 OA 
HETATM   31  C   UNL     1     -10.534   5.524  66.762  1.00  0.00    -0.296 C  
ENDBRANCH  26  30
BRANCH  28  32
HETATM   32  O   UNL     1     -10.131   7.096  69.950  1.00  0.00    -0.187 OA 
HETATM   33  C   UNL     1      -9.545   7.414  71.207  1.00  0.00    -0.161 C  
ENDBRANCH  28  32
ENDBRANCH  18  24
ENDBRANCH  17  18
ENDBRANCH  16  17
ENDBRANCH  15  16
ENDBRANCH  13  15
ENDBRANCH  12  13
ENDBRANCH  11  12
ENDBRANCH   7  11
ENDBRANCH   2   3
TORSDOF 12
ENDMDL
MODEL      134
REMARK 921   NORMALIZED FREE ENERGY PREDICTED BY IDOCK:   -4.69 KCAL/MOL
REMARK 922        TOTAL FREE ENERGY PREDICTED BY IDOCK:  -10.19 KCAL/MOL
REMARK 923 INTER-LIGAND FREE ENERGY PREDICTED BY IDOCK:   -8.51 KCAL/MOL
REMARK 924 INTRA-LIGAND FREE ENERGY PREDICTED BY IDOCK:   -1.68 KCAL/MOL
REMARK 927      BINDING AFFINITY PREDICTED BY RF-SCORE:    0.00 PKD
ROOT
HETATM    1  C   UNL     1     -12.322  15.157  64.398  1.00  0.00    -0.209 C  
HETATM    2  O   UNL     1     -12.908  13.905  64.739  1.00  0.00    -0.679 OA 
ENDROOT
BRANCH   2   3
HETATM    3  C   UNL     1     -12.052  12.832  64.809  1.00  0.00    -0.432 A  
HETATM    4  C   UNL     1     -11.710  12.096  65.955  1.00  0.00    -0.321 A  
HETATM    5  C   UNL     1     -10.493  11.500  63.495  1.00  0.00    -0.486 A  
HETATM    6  C   UNL     1     -10.766  11.060  65.847  1.00  0.00    -0.226 A  
HETATM    7  C   UNL     1     -10.154  10.746  64.625  1.00  0.00    -0.410 A  
HETATM    8  C   UNL     1     -11.428  12.536  63.591  1.00  0.00    -0.568 A  
BRANCH   4   9
HETATM    9  O   UNL     1     -12.278  12.465  67.145  1.00  0.00    -0.492 OA 
HETATM   10  C   UNL     1     -11.712  13.571  67.834  1.00  0.00    -0.357 C  
ENDBRANCH   4   9
BRANCH   7  11
HETATM   11  C   UNL     1      -9.015   9.727  64.592  1.00  0.00    -0.270 C  
BRANCH  11  12
HETATM   12  C   UNL     1      -9.037   8.982  65.932  1.00  0.00    -0.212 C  
BRANCH  12  13
HETATM   13  N   UNL     1      -9.021   7.519  66.037  1.00  0.00    -0.156 NA 
HETATM   14  C   UNL     1      -7.674   6.980  66.216  1.00  0.00    -0.094 C  
BRANCH  13  15
HETATM   15  C   UNL     1      -9.928   7.028  67.109  1.00  0.00    -0.189 C  
BRANCH  15  16
HETATM   16  C   UNL     1      -9.612   7.319  68.610  1.00  0.00    -0.141 C  
BRANCH  16  17
HETATM   17  C   UNL     1     -10.661   8.187  69.342  1.00  0.00    -0.164 C  
BRANCH  17  18
HETATM   18  C   UNL     1     -10.191   9.354  70.254  1.00  0.00    -0.295 C  
HETATM   19  N   UNL     1     -12.269  11.016  70.434  1.00  0.00    -0.345 NA 
HETATM   20  C   UNL     1      -9.909   8.841  71.747  1.00  0.00    -0.391 C  
HETATM   21  C   UNL     1     -11.354  10.304  70.359  1.00  0.00    -0.332 C  
HETATM   22  C   UNL     1      -8.777   7.814  71.914  1.00  0.00    -0.150 C  
HETATM   23  C   UNL     1     -11.150   8.216  72.421  1.00  0.00    -0.437 C  
BRANCH  18  24
HETATM   24  C   UNL     1      -8.972  10.001  69.587  1.00  0.00    -0.221 A  
HETATM   25  C   UNL     1      -9.063  11.235  68.920  1.00  0.00    -0.064 A  
HETATM   26  C   UNL     1      -8.010  11.739  68.150  1.00  0.00    -0.146 A  
HETATM   27  C   UNL     1      -7.754   9.303  69.496  1.00  0.00    -0.084 A  
HETATM   28  C   UNL     1      -6.813  11.009  68.066  1.00  0.00    -0.067 A  
HETATM   29  C   UNL     1      -6.689   9.812  68.762  1.00  0.00    -0.050 A  
BRANCH  26  30
HETATM   30  O   UNL     1      -8.080  12.906  67.432  1.00  0.00    -0.167 OA 
HETATM   31  C   UNL     1      -8.158  14.120  68.170  1.00  0.00    -0.148 C  
ENDBRANCH  26  30
BRANCH  28  32
HETATM   32  O   UNL     1      -5.830  11.527  67.256  1.00  0.00    -0.068 OA 
HETATM   33  C   UNL     1      -5.635  10.885  66.001  1.00  0.00    -0.144 C  
ENDBRANCH  28  32
ENDBRANCH  18  24
ENDBRANCH  17  18
ENDBRANCH  16  17
ENDBRANCH  15  16
ENDBRANCH  13  15
ENDBRANCH  12  13
ENDBRANCH  11  12
ENDBRANCH   7  11
ENDBRANCH   2   3
TORSDOF 12
ENDMDL
MODEL      135
REMARK 921   NORMALIZED FREE ENERGY PREDICTED BY IDOCK:   -4.68 KCAL/MOL
REMARK 922        TOTAL FREE ENERGY PREDICTED BY IDOCK:  -10.19 KCAL/MOL
REMARK 923 INTER-LIGAND FREE ENERGY PREDICTED BY IDOCK:   -8.55 KCAL/MOL
REMARK 924 INTRA-LIGAND FREE ENERGY PREDICTED BY IDOCK:   -1.64 KCAL/MOL
REMARK 927      BINDING AFFINITY PREDICTED BY RF-SCORE:    0.00 PKD
ROOT
HETATM    1  C   UNL     1     -12.005   6.945  70.785  1.00  0.00    -0.373 C  
HETATM    2  O   UNL     1     -11.034   5.973  70.412  1.00  0.00    -0.293 OA 
ENDROOT
BRANCH   2   3
HETATM    3  C   UNL     1     -10.293   6.253  69.289  1.00  0.00    -0.218 A  
HETATM    4  C   UNL     1      -8.946   6.647  69.241  1.00  0.00    -0.135 A  
HETATM    5  C   UNL     1     -10.445   6.496  66.871  1.00  0.00    -0.347 A  
HETATM    6  C   UNL     1      -8.365   6.950  67.997  1.00  0.00    -0.121 A  
HETATM    7  C   UNL     1      -9.098   6.874  66.804  1.00  0.00    -0.162 A  
HETATM    8  C   UNL     1     -11.035   6.196  68.103  1.00  0.00    -0.398 A  
BRANCH   4   9
HETATM    9  O   UNL     1      -8.273   6.772  70.428  1.00  0.00    -0.121 OA 
HETATM   10  C   UNL     1      -7.752   8.050  70.762  1.00  0.00    -0.082 C  
ENDBRANCH   4   9
BRANCH   7  11
HETATM   11  C   UNL     1      -8.473   7.373  65.502  1.00  0.00    -0.126 C  
BRANCH  11  12
HETATM   12  C   UNL     1      -7.900   8.769  65.782  1.00  0.00    -0.099 C  
BRANCH  12  13
HETATM   13  N   UNL     1      -8.166   9.932  64.929  1.00  0.00    -0.138 NA 
HETATM   14  C   UNL     1      -7.354   9.939  63.714  1.00  0.00    -0.130 C  
BRANCH  13  15
HETATM   15  C   UNL     1      -9.610  10.058  64.596  1.00  0.00    -0.297 C  
BRANCH  15  16
HETATM   16  C   UNL     1     -10.476  11.187  65.238  1.00  0.00    -0.326 C  
BRANCH  16  17
HETATM   17  C   UNL     1      -9.674  12.347  65.870  1.00  0.00    -0.237 C  
BRANCH  17  18
HETATM   18  C   UNL     1      -9.982  12.788  67.328  1.00  0.00    -0.219 C  
HETATM   19  N   UNL     1     -12.081  11.335  68.098  1.00  0.00    -0.631 NA 
HETATM   20  C   UNL     1      -8.784  12.388  68.317  1.00  0.00    -0.175 C  
HETATM   21  C   UNL     1     -11.170  11.979  67.774  1.00  0.00    -0.271 C  
HETATM   22  C   UNL     1      -7.425  13.055  68.050  1.00  0.00    -0.134 C  
HETATM   23  C   UNL     1      -8.509  10.868  68.356  1.00  0.00    -0.141 C  
BRANCH  18  24
HETATM   24  C   UNL     1     -10.279  14.292  67.304  1.00  0.00    -0.252 A  
HETATM   25  C   UNL     1      -9.583  15.169  66.455  1.00  0.00    -0.309 A  
HETATM   26  C   UNL     1      -9.710  16.558  66.560  1.00  0.00    -0.272 A  
HETATM   27  C   UNL     1     -11.158  14.861  68.244  1.00  0.00    -0.290 A  
HETATM   28  C   UNL     1     -10.584  17.094  67.520  1.00  0.00    -0.323 A  
HETATM   29  C   UNL     1     -11.319  16.239  68.333  1.00  0.00    -0.312 A  
BRANCH  26  30
HETATM   30  O   UNL     1      -9.002  17.449  65.795  1.00  0.00    -0.521 OA 
HETATM   31  C   UNL     1      -7.626  17.628  66.109  1.00  0.00    -0.280 C  
ENDBRANCH  26  30
BRANCH  28  32
HETATM   32  O   UNL     1     -10.632  18.464  67.613  1.00  0.00    -0.408 OA 
HETATM   33  C   UNL     1      -9.884  19.059  68.666  1.00  0.00    -0.413 C  
ENDBRANCH  28  32
ENDBRANCH  18  24
ENDBRANCH  17  18
ENDBRANCH  16  17
ENDBRANCH  15  16
ENDBRANCH  13  15
ENDBRANCH  12  13
ENDBRANCH  11  12
ENDBRANCH   7  11
ENDBRANCH   2   3
TORSDOF 12
ENDMDL
MODEL      136
REMARK 921   NORMALIZED FREE ENERGY PREDICTED BY IDOCK:   -4.67 KCAL/MOL
REMARK 922        TOTAL FREE ENERGY PREDICTED BY IDOCK:  -10.16 KCAL/MOL
REMARK 923 INTER-LIGAND FREE ENERGY PREDICTED BY IDOCK:   -8.88 KCAL/MOL
REMARK 924 INTRA-LIGAND FREE ENERGY PREDICTED BY IDOCK:   -1.28 KCAL/MOL
REMARK 927      BINDING AFFINITY PREDICTED BY RF-SCORE:    0.00 PKD
ROOT
HETATM    1  C   UNL     1     -10.866  19.086  67.493  1.00  0.00    -0.391 C  
HETATM    2  O   UNL     1     -10.319  18.028  68.275  1.00  0.00    -0.368 OA 
ENDROOT
BRANCH   2   3
HETATM    3  C   UNL     1     -10.532  16.754  67.808  1.00  0.00    -0.335 A  
HETATM    4  C   UNL     1      -9.946  16.158  66.679  1.00  0.00    -0.260 A  
HETATM    5  C   UNL     1     -11.873  14.752  68.162  1.00  0.00    -0.318 A  
HETATM    6  C   UNL     1     -10.330  14.854  66.317  1.00  0.00    -0.302 A  
HETATM    7  C   UNL     1     -11.286  14.137  67.050  1.00  0.00    -0.328 A  
HETATM    8  C   UNL     1     -11.502  16.050  68.530  1.00  0.00    -0.357 A  
BRANCH   4   9
HETATM    9  O   UNL     1      -9.061  16.905  65.948  1.00  0.00    -0.504 OA 
HETATM   10  C   UNL     1      -7.697  16.890  66.345  1.00  0.00    -0.310 C  
ENDBRANCH   4   9
BRANCH   7  11
HETATM   11  C   UNL     1     -11.790  12.795  66.521  1.00  0.00    -0.471 C  
BRANCH  11  12
HETATM   12  C   UNL     1     -11.477  11.741  67.591  1.00  0.00    -0.300 C  
BRANCH  12  13
HETATM   13  N   UNL     1     -10.389  10.766  67.462  1.00  0.00    -0.196 NA 
HETATM   14  C   UNL     1      -9.431  11.123  66.418  1.00  0.00    -0.193 C  
BRANCH  13  15
HETATM   15  C   UNL     1      -9.693  10.536  68.756  1.00  0.00    -0.184 C  
BRANCH  15  16
HETATM   16  C   UNL     1     -10.509  10.248  70.055  1.00  0.00    -0.293 C  
BRANCH  16  17
HETATM   17  C   UNL     1     -11.384   8.975  70.008  1.00  0.00    -0.072 C  
BRANCH  17  18
HETATM   18  C   UNL     1     -11.290   7.936  71.161  1.00  0.00    -0.289 C  
HETATM   19  N   UNL     1      -9.429   8.867  72.827  1.00  0.00    -0.074 NA 
HETATM   20  C   UNL     1     -12.652   7.888  72.006  1.00  0.00    -0.327 C  
HETATM   21  C   UNL     1     -10.238   8.447  72.107  1.00  0.00    -0.320 C  
HETATM   22  C   UNL     1     -13.910   7.430  71.249  1.00  0.00    -0.357 C  
HETATM   23  C   UNL     1     -13.016   9.243  72.651  1.00  0.00    -0.282 C  
BRANCH  18  24
HETATM   24  C   UNL     1     -10.907   6.588  70.539  1.00  0.00    -0.323 A  
HETATM   25  C   UNL     1     -10.508   5.497  71.330  1.00  0.00    -0.305 A  
HETATM   26  C   UNL     1      -9.976   4.331  70.770  1.00  0.00    -0.154 A  
HETATM   27  C   UNL     1     -10.800   6.450  69.143  1.00  0.00    -0.382 A  
HETATM   28  C   UNL     1      -9.868   4.231  69.373  1.00  0.00    -0.135 A  
HETATM   29  C   UNL     1     -10.307   5.282  68.574  1.00  0.00    -0.182 A  
BRANCH  26  30
HETATM   30  O   UNL     1      -9.516   3.270  71.508  1.00  0.00    -0.123 OA 
HETATM   31  C   UNL     1     -10.127   3.043  72.772  1.00  0.00    -0.152 C  
ENDBRANCH  26  30
BRANCH  28  32
HETATM   32  O   UNL     1      -9.293   3.085  68.879  1.00  0.00    -0.155 OA 
HETATM   33  C   UNL     1      -8.823   3.134  67.537  1.00  0.00    -0.136 C  
ENDBRANCH  28  32
ENDBRANCH  18  24
ENDBRANCH  17  18
ENDBRANCH  16  17
ENDBRANCH  15  16
ENDBRANCH  13  15
ENDBRANCH  12  13
ENDBRANCH  11  12
ENDBRANCH   7  11
ENDBRANCH   2   3
TORSDOF 12
ENDMDL
MODEL      137
REMARK 921   NORMALIZED FREE ENERGY PREDICTED BY IDOCK:   -4.66 KCAL/MOL
REMARK 922        TOTAL FREE ENERGY PREDICTED BY IDOCK:  -10.15 KCAL/MOL
REMARK 923 INTER-LIGAND FREE ENERGY PREDICTED BY IDOCK:   -8.04 KCAL/MOL
REMARK 924 INTRA-LIGAND FREE ENERGY PREDICTED BY IDOCK:   -2.12 KCAL/MOL
REMARK 927      BINDING AFFINITY PREDICTED BY RF-SCORE:    0.00 PKD
ROOT
HETATM    1  C   UNL     1     -10.229  19.516  67.693  1.00  0.00    -0.434 C  
HETATM    2  O   UNL     1     -11.015  18.331  67.609  1.00  0.00    -0.333 OA 
ENDROOT
BRANCH   2   3
HETATM    3  C   UNL     1     -10.326  17.142  67.631  1.00  0.00    -0.344 A  
HETATM    4  C   UNL     1     -10.349  16.169  68.644  1.00  0.00    -0.252 A  
HETATM    5  C   UNL     1      -8.662  15.837  66.424  1.00  0.00    -0.372 A  
HETATM    6  C   UNL     1      -9.530  15.034  68.522  1.00  0.00    -0.203 A  
HETATM    7  C   UNL     1      -8.686  14.850  67.417  1.00  0.00    -0.208 A  
HETATM    8  C   UNL     1      -9.470  16.973  66.537  1.00  0.00    -0.295 A  
BRANCH   4   9
HETATM    9  O   UNL     1     -11.138  16.405  69.739  1.00  0.00    -0.338 OA 
HETATM   10  C   UNL     1     -11.412  15.312  70.605  1.00  0.00    -0.319 C  
ENDBRANCH   4   9
BRANCH   7  11
HETATM   11  C   UNL     1      -7.694  13.688  67.411  1.00  0.00    -0.156 C  
BRANCH  11  12
HETATM   12  C   UNL     1      -7.443  13.301  68.874  1.00  0.00     0.002 C  
BRANCH  12  13
HETATM   13  N   UNL     1      -6.195  12.685  69.339  1.00  0.00    -0.106 NA 
HETATM   14  C   UNL     1      -5.678  13.306  70.556  1.00  0.00    -0.176 C  
BRANCH  13  15
HETATM   15  C   UNL     1      -6.334  11.215  69.519  1.00  0.00    -0.101 C  
BRANCH  15  16
HETATM   16  C   UNL     1      -7.709  10.514  69.284  1.00  0.00    -0.144 C  
BRANCH  16  17
HETATM   17  C   UNL     1      -7.678   9.331  68.290  1.00  0.00    -0.087 C  
BRANCH  17  18
HETATM   18  C   UNL     1      -7.808   9.606  66.765  1.00  0.00    -0.102 C  
HETATM   19  N   UNL     1      -5.494  10.707  66.027  1.00  0.00    -0.090 NA 
HETATM   20  C   UNL     1      -7.926   8.235  65.941  1.00  0.00    -0.097 C  
HETATM   21  C   UNL     1      -6.510  10.233  66.336  1.00  0.00    -0.087 C  
HETATM   22  C   UNL     1      -9.163   7.370  66.227  1.00  0.00    -0.182 C  
HETATM   23  C   UNL     1      -6.707   7.306  66.127  1.00  0.00    -0.053 C  
BRANCH  18  24
HETATM   24  C   UNL     1      -9.002  10.546  66.564  1.00  0.00    -0.171 A  
HETATM   25  C   UNL     1     -10.011  10.675  67.534  1.00  0.00    -0.201 A  
HETATM   26  C   UNL     1     -11.194  11.378  67.283  1.00  0.00    -0.304 A  
HETATM   27  C   UNL     1      -9.199  11.197  65.333  1.00  0.00    -0.225 A  
HETATM   28  C   UNL     1     -11.366  12.004  66.037  1.00  0.00    -0.343 A  
HETATM   29  C   UNL     1     -10.354  11.929  65.085  1.00  0.00    -0.318 A  
BRANCH  26  30
HETATM   30  O   UNL     1     -12.229  11.475  68.177  1.00  0.00    -0.576 OA 
HETATM   31  C   UNL     1     -11.897  11.769  69.529  1.00  0.00    -0.337 C  
ENDBRANCH  26  30
BRANCH  28  32
HETATM   32  O   UNL     1     -12.567  12.639  65.825  1.00  0.00    -0.575 OA 
HETATM   33  C   UNL     1     -12.510  14.027  65.521  1.00  0.00    -0.509 C  
ENDBRANCH  28  32
ENDBRANCH  18  24
ENDBRANCH  17  18
ENDBRANCH  16  17
ENDBRANCH  15  16
ENDBRANCH  13  15
ENDBRANCH  12  13
ENDBRANCH  11  12
ENDBRANCH   7  11
ENDBRANCH   2   3
TORSDOF 12
ENDMDL
MODEL      138
REMARK 921   NORMALIZED FREE ENERGY PREDICTED BY IDOCK:   -4.65 KCAL/MOL
REMARK 922        TOTAL FREE ENERGY PREDICTED BY IDOCK:  -10.14 KCAL/MOL
REMARK 923 INTER-LIGAND FREE ENERGY PREDICTED BY IDOCK:   -8.42 KCAL/MOL
REMARK 924 INTRA-LIGAND FREE ENERGY PREDICTED BY IDOCK:   -1.73 KCAL/MOL
REMARK 927      BINDING AFFINITY PREDICTED BY RF-SCORE:    0.00 PKD
ROOT
HETATM    1  C   UNL     1      -7.646  19.494  68.725  1.00  0.00    -0.351 C  
HETATM    2  O   UNL     1      -7.303  18.959  67.450  1.00  0.00    -0.223 OA 
ENDROOT
BRANCH   2   3
HETATM    3  C   UNL     1      -8.183  18.048  66.917  1.00  0.00    -0.242 A  
HETATM    4  C   UNL     1      -7.908  16.720  66.552  1.00  0.00    -0.303 A  
HETATM    5  C   UNL     1     -10.457  17.801  66.081  1.00  0.00    -0.301 A  
HETATM    6  C   UNL     1      -8.925  15.948  65.963  1.00  0.00    -0.337 A  
HETATM    7  C   UNL     1     -10.204  16.471  65.727  1.00  0.00    -0.350 A  
HETATM    8  C   UNL     1      -9.452  18.581  66.664  1.00  0.00    -0.313 A  
BRANCH   4   9
HETATM    9  O   UNL     1      -6.633  16.256  66.739  1.00  0.00    -0.255 OA 
HETATM   10  C   UNL     1      -6.342  15.598  67.964  1.00  0.00    -0.134 C  
ENDBRANCH   4   9
BRANCH   7  11
HETATM   11  C   UNL     1     -11.220  15.649  64.934  1.00  0.00    -0.376 C  
BRANCH  11  12
HETATM   12  C   UNL     1     -10.579  14.283  64.658  1.00  0.00    -0.340 C  
BRANCH  12  13
HETATM   13  N   UNL     1     -11.319  13.148  64.097  1.00  0.00    -0.384 NA 
HETATM   14  C   UNL     1     -10.446  12.162  63.462  1.00  0.00    -0.454 C  
BRANCH  13  15
HETATM   15  C   UNL     1     -12.192  12.498  65.111  1.00  0.00    -0.448 C  
BRANCH  15  16
HETATM   16  C   UNL     1     -11.987  12.781  66.632  1.00  0.00    -0.411 C  
BRANCH  16  17
HETATM   17  C   UNL     1     -11.993  11.527  67.537  1.00  0.00     0.006 C  
BRANCH  17  18
HETATM   18  C   UNL     1     -10.915  11.376  68.646  1.00  0.00    -0.267 C  
HETATM   19  N   UNL     1      -9.304  13.485  68.384  1.00  0.00    -0.197 NA 
HETATM   20  C   UNL     1     -11.569  11.502  70.105  1.00  0.00    -0.336 C  
HETATM   21  C   UNL     1      -9.994  12.559  68.506  1.00  0.00    -0.165 C  
HETATM   22  C   UNL     1     -12.593  10.422  70.490  1.00  0.00    -0.384 C  
HETATM   23  C   UNL     1     -12.272  12.856  70.343  1.00  0.00    -0.381 C  
BRANCH  18  24
HETATM   24  C   UNL     1     -10.191  10.046  68.412  1.00  0.00    -0.196 A  
HETATM   25  C   UNL     1      -8.990   9.733  69.071  1.00  0.00    -0.154 A  
HETATM   26  C   UNL     1      -8.225   8.614  68.725  1.00  0.00    -0.121 A  
HETATM   27  C   UNL     1     -10.632   9.160  67.413  1.00  0.00    -0.315 A  
HETATM   28  C   UNL     1      -8.687   7.757  67.711  1.00  0.00    -0.123 A  
HETATM   29  C   UNL     1      -9.899   8.025  67.085  1.00  0.00    -0.274 A  
BRANCH  26  30
HETATM   30  O   UNL     1      -7.018   8.307  69.298  1.00  0.00    -0.056 OA 
HETATM   31  C   UNL     1      -6.696   8.955  70.524  1.00  0.00    -0.051 C  
ENDBRANCH  26  30
BRANCH  28  32
HETATM   32  O   UNL     1      -7.872   6.702  67.378  1.00  0.00    -0.109 OA 
HETATM   33  C   UNL     1      -7.230   6.767  66.110  1.00  0.00    -0.067 C  
ENDBRANCH  28  32
ENDBRANCH  18  24
ENDBRANCH  17  18
ENDBRANCH  16  17
ENDBRANCH  15  16
ENDBRANCH  13  15
ENDBRANCH  12  13
ENDBRANCH  11  12
ENDBRANCH   7  11
ENDBRANCH   2   3
TORSDOF 12
ENDMDL
MODEL      139
REMARK 921   NORMALIZED FREE ENERGY PREDICTED BY IDOCK:   -4.64 KCAL/MOL
REMARK 922        TOTAL FREE ENERGY PREDICTED BY IDOCK:  -10.11 KCAL/MOL
REMARK 923 INTER-LIGAND FREE ENERGY PREDICTED BY IDOCK:   -8.24 KCAL/MOL
REMARK 924 INTRA-LIGAND FREE ENERGY PREDICTED BY IDOCK:   -1.87 KCAL/MOL
REMARK 927      BINDING AFFINITY PREDICTED BY RF-SCORE:    0.00 PKD
ROOT
HETATM    1  C   UNL     1     -10.623  19.540  66.465  1.00  0.00    -0.476 C  
HETATM    2  O   UNL     1      -9.555  19.801  67.370  1.00  0.00    -0.320 OA 
ENDROOT
BRANCH   2   3
HETATM    3  C   UNL     1      -8.624  18.801  67.515  1.00  0.00    -0.274 A  
HETATM    4  C   UNL     1      -7.622  18.714  68.496  1.00  0.00    -0.311 A  
HETATM    5  C   UNL     1      -7.775  16.768  66.477  1.00  0.00    -0.334 A  
HETATM    6  C   UNL     1      -6.716  17.640  68.455  1.00  0.00    -0.208 A  
HETATM    7  C   UNL     1      -6.782  16.658  67.458  1.00  0.00    -0.181 A  
HETATM    8  C   UNL     1      -8.681  17.834  66.505  1.00  0.00    -0.281 A  
BRANCH   4   9
HETATM    9  O   UNL     1      -7.545  19.721  69.422  1.00  0.00    -0.263 OA 
HETATM   10  C   UNL     1      -6.277  20.326  69.636  1.00  0.00    -0.323 C  
ENDBRANCH   4   9
BRANCH   7  11
HETATM   11  C   UNL     1      -5.675  15.609  67.357  1.00  0.00    -0.006 C  
BRANCH  11  12
HETATM   12  C   UNL     1      -5.390  15.116  68.782  1.00  0.00    -0.091 C  
BRANCH  12  13
HETATM   13  N   UNL     1      -5.306  13.695  69.138  1.00  0.00    -0.073 NA 
HETATM   14  C   UNL     1      -5.717  13.433  70.515  1.00  0.00    -0.175 C  
BRANCH  13  15
HETATM   15  C   UNL     1      -6.068  12.838  68.191  1.00  0.00    -0.085 C  
BRANCH  15  16
HETATM   16  C   UNL     1      -7.573  12.513  68.452  1.00  0.00    -0.129 C  
BRANCH  16  17
HETATM   17  C   UNL     1      -8.515  12.776  67.255  1.00  0.00    -0.194 C  
BRANCH  17  18
HETATM   18  C   UNL     1     -10.052  12.813  67.481  1.00  0.00    -0.213 C  
HETATM   19  N   UNL     1     -10.503  14.930  69.039  1.00  0.00    -0.241 NA 
HETATM   20  C   UNL     1     -10.830  13.104  66.109  1.00  0.00    -0.293 C  
HETATM   21  C   UNL     1     -10.321  14.001  68.365  1.00  0.00    -0.251 C  
HETATM   22  C   UNL     1     -10.685  12.045  65.004  1.00  0.00    -0.341 C  
HETATM   23  C   UNL     1     -10.439  14.449  65.460  1.00  0.00    -0.366 C  
BRANCH  18  24
HETATM   24  C   UNL     1     -10.455  11.492  68.147  1.00  0.00    -0.216 A  
HETATM   25  C   UNL     1     -11.179  11.463  69.351  1.00  0.00    -0.333 A  
HETATM   26  C   UNL     1     -11.385  10.277  70.062  1.00  0.00    -0.301 A  
HETATM   27  C   UNL     1      -9.979  10.267  67.646  1.00  0.00    -0.212 A  
HETATM   28  C   UNL     1     -10.884   9.071  69.542  1.00  0.00    -0.166 A  
HETATM   29  C   UNL     1     -10.209   9.076  68.326  1.00  0.00    -0.241 A  
BRANCH  26  30
HETATM   30  O   UNL     1     -12.031  10.213  71.270  1.00  0.00    -0.355 OA 
HETATM   31  C   UNL     1     -13.135  11.089  71.466  1.00  0.00    -0.396 C  
ENDBRANCH  26  30
BRANCH  28  32
HETATM   32  O   UNL     1     -11.071   7.945  70.306  1.00  0.00    -0.257 OA 
HETATM   33  C   UNL     1     -11.097   6.702  69.615  1.00  0.00    -0.334 C  
ENDBRANCH  28  32
ENDBRANCH  18  24
ENDBRANCH  17  18
ENDBRANCH  16  17
ENDBRANCH  15  16
ENDBRANCH  13  15
ENDBRANCH  12  13
ENDBRANCH  11  12
ENDBRANCH   7  11
ENDBRANCH   2   3
TORSDOF 12
ENDMDL
MODEL      140
REMARK 921   NORMALIZED FREE ENERGY PREDICTED BY IDOCK:   -4.62 KCAL/MOL
REMARK 922        TOTAL FREE ENERGY PREDICTED BY IDOCK:  -10.09 KCAL/MOL
REMARK 923 INTER-LIGAND FREE ENERGY PREDICTED BY IDOCK:   -8.18 KCAL/MOL
REMARK 924 INTRA-LIGAND FREE ENERGY PREDICTED BY IDOCK:   -1.90 KCAL/MOL
REMARK 927      BINDING AFFINITY PREDICTED BY RF-SCORE:    0.00 PKD
ROOT
HETATM    1  C   UNL     1     -14.411  13.594  72.139  1.00  0.00    -0.297 C  
HETATM    2  O   UNL     1     -13.112  13.088  71.847  1.00  0.00    -0.400 OA 
ENDROOT
BRANCH   2   3
HETATM    3  C   UNL     1     -12.334  13.853  71.013  1.00  0.00    -0.376 A  
HETATM    4  C   UNL     1     -11.452  13.394  70.021  1.00  0.00    -0.056 A  
HETATM    5  C   UNL     1     -11.654  16.145  70.550  1.00  0.00    -0.322 A  
HETATM    6  C   UNL     1     -10.689  14.328  69.298  1.00  0.00    -0.194 A  
HETATM    7  C   UNL     1     -10.783  15.705  69.546  1.00  0.00    -0.271 A  
HETATM    8  C   UNL     1     -12.415  15.225  71.278  1.00  0.00    -0.435 A  
BRANCH   4   9
HETATM    9  O   UNL     1     -11.338  12.041  69.843  1.00  0.00    -0.196 OA 
HETATM   10  C   UNL     1     -12.501  11.324  69.454  1.00  0.00    -0.008 C  
ENDBRANCH   4   9
BRANCH   7  11
HETATM   11  C   UNL     1      -9.814  16.663  68.854  1.00  0.00    -0.261 C  
BRANCH  11  12
HETATM   12  C   UNL     1     -10.588  17.348  67.720  1.00  0.00    -0.371 C  
BRANCH  12  13
HETATM   13  N   UNL     1     -10.122  17.370  66.329  1.00  0.00    -0.331 NA 
HETATM   14  C   UNL     1      -8.707  17.719  66.213  1.00  0.00    -0.176 C  
BRANCH  13  15
HETATM   15  C   UNL     1     -10.405  16.090  65.627  1.00  0.00    -0.392 C  
BRANCH  15  16
HETATM   16  C   UNL     1      -9.660  14.780  66.034  1.00  0.00    -0.334 C  
BRANCH  16  17
HETATM   17  C   UNL     1      -9.804  13.610  65.035  1.00  0.00    -0.087 C  
BRANCH  17  18
HETATM   18  C   UNL     1     -10.760  12.430  65.368  1.00  0.00    -0.317 C  
HETATM   19  N   UNL     1     -12.875  13.526  66.565  1.00  0.00     0.001 NA 
HETATM   20  C   UNL     1     -11.318  11.746  64.029  1.00  0.00    -0.461 C  
HETATM   21  C   UNL     1     -11.957  13.035  66.050  1.00  0.00    -0.440 C  
HETATM   22  C   UNL     1     -10.276  11.079  63.116  1.00  0.00    -0.300 C  
HETATM   23  C   UNL     1     -12.107  12.723  63.130  1.00  0.00    -0.354 C  
BRANCH  18  24
HETATM   24  C   UNL     1      -9.999  11.460  66.280  1.00  0.00    -0.259 A  
HETATM   25  C   UNL     1     -10.577  10.259  66.725  1.00  0.00    -0.252 A  
HETATM   26  C   UNL     1      -9.972   9.464  67.704  1.00  0.00    -0.190 A  
HETATM   27  C   UNL     1      -8.752  11.819  66.821  1.00  0.00    -0.192 A  
HETATM   28  C   UNL     1      -8.733   9.859  68.235  1.00  0.00    -0.119 A  
HETATM   29  C   UNL     1      -8.123  11.018  67.768  1.00  0.00    -0.116 A  
BRANCH  26  30
HETATM   30  O   UNL     1     -10.531   8.320  68.212  1.00  0.00    -0.205 OA 
HETATM   31  C   UNL     1     -10.568   7.180  67.360  1.00  0.00    -0.302 C  
ENDBRANCH  26  30
BRANCH  28  32
HETATM   32  O   UNL     1      -8.207   9.068  69.229  1.00  0.00    -0.112 OA 
HETATM   33  C   UNL     1      -6.856   8.655  69.069  1.00  0.00    -0.056 C  
ENDBRANCH  28  32
ENDBRANCH  18  24
ENDBRANCH  17  18
ENDBRANCH  16  17
ENDBRANCH  15  16
ENDBRANCH  13  15
ENDBRANCH  12  13
ENDBRANCH  11  12
ENDBRANCH   7  11
ENDBRANCH   2   3
TORSDOF 12
ENDMDL
MODEL      141
REMARK 921   NORMALIZED FREE ENERGY PREDICTED BY IDOCK:   -4.62 KCAL/MOL
REMARK 922        TOTAL FREE ENERGY PREDICTED BY IDOCK:  -10.08 KCAL/MOL
REMARK 923 INTER-LIGAND FREE ENERGY PREDICTED BY IDOCK:   -8.37 KCAL/MOL
REMARK 924 INTRA-LIGAND FREE ENERGY PREDICTED BY IDOCK:   -1.70 KCAL/MOL
REMARK 927      BINDING AFFINITY PREDICTED BY RF-SCORE:    0.00 PKD
ROOT
HETATM    1  C   UNL     1      -9.762  20.355  67.608  1.00  0.00    -0.400 C  
HETATM    2  O   UNL     1      -8.996  19.487  68.437  1.00  0.00    -0.338 OA 
ENDROOT
BRANCH   2   3
HETATM    3  C   UNL     1      -9.304  18.150  68.366  1.00  0.00    -0.309 A  
HETATM    4  C   UNL     1      -8.422  17.069  68.530  1.00  0.00    -0.257 A  
HETATM    5  C   UNL     1     -11.108  16.595  67.859  1.00  0.00    -0.212 A  
HETATM    6  C   UNL     1      -8.906  15.759  68.364  1.00  0.00    -0.185 A  
HETATM    7  C   UNL     1     -10.245  15.506  68.035  1.00  0.00    -0.229 A  
HETATM    8  C   UNL     1     -10.636  17.902  68.017  1.00  0.00    -0.366 A  
BRANCH   4   9
HETATM    9  O   UNL     1      -7.107  17.350  68.791  1.00  0.00    -0.225 OA 
HETATM   10  C   UNL     1      -6.377  16.422  69.580  1.00  0.00    -0.211 C  
ENDBRANCH   4   9
BRANCH   7  11
HETATM   11  C   UNL     1     -10.683  14.080  67.702  1.00  0.00    -0.261 C  
BRANCH  11  12
HETATM   12  C   UNL     1     -11.978  14.183  66.887  1.00  0.00    -0.449 C  
BRANCH  12  13
HETATM   13  N   UNL     1     -12.290  13.299  65.759  1.00  0.00    -0.451 NA 
HETATM   14  C   UNL     1     -12.015  13.917  64.463  1.00  0.00    -0.437 C  
BRANCH  13  15
HETATM   15  C   UNL     1     -11.597  11.988  65.872  1.00  0.00    -0.300 C  
BRANCH  15  16
HETATM   16  C   UNL     1     -10.278  11.718  65.082  1.00  0.00    -0.309 C  
BRANCH  16  17
HETATM   17  C   UNL     1      -9.097  11.206  65.937  1.00  0.00    -0.218 C  
BRANCH  17  18
HETATM   18  C   UNL     1      -8.575   9.756  65.738  1.00  0.00    -0.147 C  
HETATM   19  N   UNL     1      -8.855   9.236  63.137  1.00  0.00    -0.195 NA 
HETATM   20  C   UNL     1      -7.003   9.662  66.038  1.00  0.00    -0.093 C  
HETATM   21  C   UNL     1      -8.733   9.447  64.273  1.00  0.00    -0.197 C  
HETATM   22  C   UNL     1      -6.562   9.976  67.477  1.00  0.00    -0.068 C  
HETATM   23  C   UNL     1      -6.153  10.574  65.126  1.00  0.00    -0.096 C  
BRANCH  18  24
HETATM   24  C   UNL     1      -9.423   8.833  66.620  1.00  0.00    -0.263 A  
HETATM   25  C   UNL     1      -9.952   9.267  67.848  1.00  0.00    -0.228 A  
HETATM   26  C   UNL     1     -10.561   8.384  68.745  1.00  0.00    -0.125 A  
HETATM   27  C   UNL     1      -9.572   7.473  66.295  1.00  0.00    -0.134 A  
HETATM   28  C   UNL     1     -10.680   7.028  68.397  1.00  0.00    -0.179 A  
HETATM   29  C   UNL     1     -10.208   6.592  67.163  1.00  0.00    -0.275 A  
BRANCH  26  30
HETATM   30  O   UNL     1     -11.033   8.753  69.979  1.00  0.00    -0.245 OA 
HETATM   31  C   UNL     1     -10.072   9.149  70.952  1.00  0.00    -0.287 C  
ENDBRANCH  26  30
BRANCH  28  32
HETATM   32  O   UNL     1     -11.241   6.196  69.336  1.00  0.00    -0.391 OA 
HETATM   33  C   UNL     1     -10.361   5.297  69.999  1.00  0.00    -0.295 C  
ENDBRANCH  28  32
ENDBRANCH  18  24
ENDBRANCH  17  18
ENDBRANCH  16  17
ENDBRANCH  15  16
ENDBRANCH  13  15
ENDBRANCH  12  13
ENDBRANCH  11  12
ENDBRANCH   7  11
ENDBRANCH   2   3
TORSDOF 12
ENDMDL
MODEL      142
REMARK 921   NORMALIZED FREE ENERGY PREDICTED BY IDOCK:   -4.60 KCAL/MOL
REMARK 922        TOTAL FREE ENERGY PREDICTED BY IDOCK:  -10.04 KCAL/MOL
REMARK 923 INTER-LIGAND FREE ENERGY PREDICTED BY IDOCK:   -8.93 KCAL/MOL
REMARK 924 INTRA-LIGAND FREE ENERGY PREDICTED BY IDOCK:   -1.11 KCAL/MOL
REMARK 927      BINDING AFFINITY PREDICTED BY RF-SCORE:    0.00 PKD
ROOT
HETATM    1  C   UNL     1     -10.442  15.809  67.350  1.00  0.00    -0.297 C  
HETATM    2  O   UNL     1     -11.590  15.703  68.185  1.00  0.00    -0.353 OA 
ENDROOT
BRANCH   2   3
HETATM    3  C   UNL     1     -11.770  14.499  68.822  1.00  0.00    -0.327 A  
HETATM    4  C   UNL     1     -12.355  14.287  70.081  1.00  0.00    -0.353 A  
HETATM    5  C   UNL     1     -11.279  12.120  68.656  1.00  0.00    -0.318 A  
HETATM    6  C   UNL     1     -12.402  12.983  70.604  1.00  0.00    -0.391 A  
HETATM    7  C   UNL     1     -11.874  11.889  69.902  1.00  0.00    -0.418 A  
HETATM    8  C   UNL     1     -11.223  13.414  68.128  1.00  0.00    -0.304 A  
BRANCH   4   9
HETATM    9  O   UNL     1     -12.807  15.382  70.769  1.00  0.00    -0.430 OA 
HETATM   10  C   UNL     1     -13.998  15.240  71.531  1.00  0.00    -0.532 C  
ENDBRANCH   4   9
BRANCH   7  11
HETATM   11  C   UNL     1     -11.798  10.523  70.583  1.00  0.00    -0.458 C  
BRANCH  11  12
HETATM   12  C   UNL     1     -13.088  10.350  71.395  1.00  0.00    -0.413 C  
BRANCH  12  13
HETATM   13  N   UNL     1     -13.353   9.181  72.240  1.00  0.00    -0.448 NA 
HETATM   14  C   UNL     1     -14.382   8.304  71.685  1.00  0.00    -0.467 C  
BRANCH  13  15
HETATM   15  C   UNL     1     -12.114   8.414  72.534  1.00  0.00    -0.337 C  
BRANCH  15  16
HETATM   16  C   UNL     1     -11.709   7.192  71.651  1.00  0.00    -0.324 C  
BRANCH  16  17
HETATM   17  C   UNL     1     -10.577   6.313  72.231  1.00  0.00    -0.244 C  
BRANCH  17  18
HETATM   18  C   UNL     1      -9.125   6.486  71.706  1.00  0.00    -0.142 C  
HETATM   19  N   UNL     1      -8.751   9.115  71.463  1.00  0.00    -0.336 NA 
HETATM   20  C   UNL     1      -8.056   5.989  72.793  1.00  0.00    -0.107 C  
HETATM   21  C   UNL     1      -8.902   7.967  71.559  1.00  0.00    -0.143 C  
HETATM   22  C   UNL     1      -8.099   4.496  73.160  1.00  0.00    -0.096 C  
HETATM   23  C   UNL     1      -8.145   6.756  74.130  1.00  0.00    -0.136 C  
BRANCH  18  24
HETATM   24  C   UNL     1      -9.025   5.748  70.366  1.00  0.00    -0.154 A  
HETATM   25  C   UNL     1      -8.430   6.341  69.239  1.00  0.00    -0.124 A  
HETATM   26  C   UNL     1      -8.503   5.758  67.970  1.00  0.00    -0.106 A  
HETATM   27  C   UNL     1      -9.663   4.508  70.185  1.00  0.00    -0.287 A  
HETATM   28  C   UNL     1      -9.161   4.526  67.820  1.00  0.00    -0.131 A  
HETATM   29  C   UNL     1      -9.711   3.902  68.935  1.00  0.00    -0.121 A  
BRANCH  26  30
HETATM   30  O   UNL     1      -7.991   6.333  66.835  1.00  0.00    -0.106 OA 
HETATM   31  C   UNL     1      -8.268   7.712  66.622  1.00  0.00    -0.124 C  
ENDBRANCH  26  30
BRANCH  28  32
HETATM   32  O   UNL     1      -9.247   4.023  66.544  1.00  0.00    -0.140 OA 
HETATM   33  C   UNL     1     -10.264   4.567  65.711  1.00  0.00    -0.265 C  
ENDBRANCH  28  32
ENDBRANCH  18  24
ENDBRANCH  17  18
ENDBRANCH  16  17
ENDBRANCH  15  16
ENDBRANCH  13  15
ENDBRANCH  12  13
ENDBRANCH  11  12
ENDBRANCH   7  11
ENDBRANCH   2   3
TORSDOF 12
ENDMDL
MODEL      143
REMARK 921   NORMALIZED FREE ENERGY PREDICTED BY IDOCK:   -4.60 KCAL/MOL
REMARK 922        TOTAL FREE ENERGY PREDICTED BY IDOCK:  -10.04 KCAL/MOL
REMARK 923 INTER-LIGAND FREE ENERGY PREDICTED BY IDOCK:   -9.21 KCAL/MOL
REMARK 924 INTRA-LIGAND FREE ENERGY PREDICTED BY IDOCK:   -0.83 KCAL/MOL
REMARK 927      BINDING AFFINITY PREDICTED BY RF-SCORE:    0.00 PKD
ROOT
HETATM    1  C   UNL     1     -10.583  19.723  65.658  1.00  0.00    -0.355 C  
HETATM    2  O   UNL     1      -9.721  18.601  65.818  1.00  0.00    -0.457 OA 
ENDROOT
BRANCH   2   3
HETATM    3  C   UNL     1     -10.195  17.577  66.602  1.00  0.00    -0.332 A  
HETATM    4  C   UNL     1     -10.345  17.581  67.999  1.00  0.00    -0.368 A  
HETATM    5  C   UNL     1     -10.919  15.253  66.537  1.00  0.00    -0.295 A  
HETATM    6  C   UNL     1     -10.794  16.414  68.642  1.00  0.00    -0.331 A  
HETATM    7  C   UNL     1     -11.090  15.246  67.926  1.00  0.00    -0.321 A  
HETATM    8  C   UNL     1     -10.469  16.406  65.886  1.00  0.00    -0.350 A  
BRANCH   4   9
HETATM    9  O   UNL     1      -9.991  18.717  68.677  1.00  0.00    -0.367 OA 
HETATM   10  C   UNL     1      -8.606  19.002  68.812  1.00  0.00    -0.321 C  
ENDBRANCH   4   9
BRANCH   7  11
HETATM   11  C   UNL     1     -11.411  13.958  68.684  1.00  0.00    -0.333 C  
BRANCH  11  12
HETATM   12  C   UNL     1     -12.006  12.973  67.670  1.00  0.00    -0.301 C  
BRANCH  12  13
HETATM   13  N   UNL     1     -11.787  11.524  67.735  1.00  0.00    -0.626 NA 
HETATM   14  C   UNL     1     -10.724  11.072  66.839  1.00  0.00    -0.274 C  
BRANCH  13  15
HETATM   15  C   UNL     1     -11.532  11.062  69.125  1.00  0.00    -0.301 C  
BRANCH  15  16
HETATM   16  C   UNL     1     -10.364  10.072  69.430  1.00  0.00    -0.245 C  
BRANCH  16  17
HETATM   17  C   UNL     1     -10.755   8.577  69.417  1.00  0.00    -0.166 C  
BRANCH  17  18
HETATM   18  C   UNL     1     -10.396   7.679  70.634  1.00  0.00    -0.205 C  
HETATM   19  N   UNL     1      -8.473   8.976  71.949  1.00  0.00    -0.346 NA 
HETATM   20  C   UNL     1     -11.628   7.569  71.654  1.00  0.00    -0.299 C  
HETATM   21  C   UNL     1      -9.306   8.397  71.383  1.00  0.00    -0.190 C  
HETATM   22  C   UNL     1     -12.904   6.900  71.115  1.00  0.00    -0.289 C  
HETATM   23  C   UNL     1     -12.073   8.935  72.220  1.00  0.00    -0.392 C  
BRANCH  18  24
HETATM   24  C   UNL     1      -9.930   6.324  70.088  1.00  0.00    -0.209 A  
HETATM   25  C   UNL     1      -9.553   6.160  68.744  1.00  0.00    -0.137 A  
HETATM   26  C   UNL     1      -9.311   4.898  68.192  1.00  0.00    -0.130 A  
HETATM   27  C   UNL     1     -10.009   5.168  70.885  1.00  0.00    -0.280 A  
HETATM   28  C   UNL     1      -9.414   3.761  69.011  1.00  0.00    -0.163 A  
HETATM   29  C   UNL     1      -9.736   3.911  70.356  1.00  0.00    -0.245 A  
BRANCH  26  30
HETATM   30  O   UNL     1      -9.004   4.688  66.872  1.00  0.00    -0.110 OA 
HETATM   31  C   UNL     1     -10.090   4.597  65.957  1.00  0.00    -0.264 C  
ENDBRANCH  26  30
BRANCH  28  32
HETATM   32  O   UNL     1      -9.216   2.544  68.406  1.00  0.00    -0.161 OA 
HETATM   33  C   UNL     1      -8.039   1.833  68.771  1.00  0.00    -0.048 C  
ENDBRANCH  28  32
ENDBRANCH  18  24
ENDBRANCH  17  18
ENDBRANCH  16  17
ENDBRANCH  15  16
ENDBRANCH  13  15
ENDBRANCH  12  13
ENDBRANCH  11  12
ENDBRANCH   7  11
ENDBRANCH   2   3
TORSDOF 12
ENDMDL
MODEL      144
REMARK 921   NORMALIZED FREE ENERGY PREDICTED BY IDOCK:   -4.59 KCAL/MOL
REMARK 922        TOTAL FREE ENERGY PREDICTED BY IDOCK:  -10.04 KCAL/MOL
REMARK 923 INTER-LIGAND FREE ENERGY PREDICTED BY IDOCK:   -8.52 KCAL/MOL
REMARK 924 INTRA-LIGAND FREE ENERGY PREDICTED BY IDOCK:   -1.52 KCAL/MOL
REMARK 927      BINDING AFFINITY PREDICTED BY RF-SCORE:    0.00 PKD
ROOT
HETATM    1  C   UNL     1     -12.793  11.084  70.982  1.00  0.00    -0.346 C  
HETATM    2  O   UNL     1     -12.545  12.485  70.933  1.00  0.00    -0.334 OA 
ENDROOT
BRANCH   2   3
HETATM    3  C   UNL     1     -11.908  12.951  69.808  1.00  0.00    -0.310 A  
HETATM    4  C   UNL     1     -11.424  14.250  69.587  1.00  0.00    -0.282 A  
HETATM    5  C   UNL     1     -11.253  12.328  67.547  1.00  0.00    -0.354 A  
HETATM    6  C   UNL     1     -10.847  14.564  68.344  1.00  0.00    -0.250 A  
HETATM    7  C   UNL     1     -10.749  13.614  67.317  1.00  0.00    -0.283 A  
HETATM    8  C   UNL     1     -11.832  12.005  68.779  1.00  0.00    -0.358 A  
BRANCH   4   9
HETATM    9  O   UNL     1     -11.588  15.173  70.586  1.00  0.00    -0.267 OA 
HETATM   10  C   UNL     1     -12.914  15.562  70.915  1.00  0.00    -0.467 C  
ENDBRANCH   4   9
BRANCH   7  11
HETATM   11  C   UNL     1     -10.271  14.048  65.932  1.00  0.00    -0.332 C  
BRANCH  11  12
HETATM   12  C   UNL     1     -11.368  13.658  64.932  1.00  0.00    -0.344 C  
BRANCH  12  13
HETATM   13  N   UNL     1     -11.560  12.287  64.446  1.00  0.00    -0.342 NA 
HETATM   14  C   UNL     1     -12.714  12.160  63.558  1.00  0.00    -0.431 C  
BRANCH  13  15
HETATM   15  C   UNL     1     -10.335  11.752  63.794  1.00  0.00    -0.410 C  
BRANCH  15  16
HETATM   16  C   UNL     1      -9.783  10.343  64.179  1.00  0.00    -0.387 C  
BRANCH  16  17
HETATM   17  C   UNL     1      -9.548  10.125  65.691  1.00  0.00    -0.302 C  
BRANCH  17  18
HETATM   18  C   UNL     1      -8.475   9.104  66.162  1.00  0.00    -0.136 C  
HETATM   19  N   UNL     1      -7.891   7.627  64.020  1.00  0.00    -0.132 NA 
HETATM   20  C   UNL     1      -7.113   9.845  66.569  1.00  0.00    -0.094 C  
HETATM   21  C   UNL     1      -8.140   8.259  64.963  1.00  0.00    -0.148 C  
HETATM   22  C   UNL     1      -7.192  10.814  67.760  1.00  0.00    -0.088 C  
HETATM   23  C   UNL     1      -6.488  10.651  65.409  1.00  0.00    -0.034 C  
BRANCH  18  24
HETATM   24  C   UNL     1      -9.088   8.279  67.300  1.00  0.00    -0.157 A  
HETATM   25  C   UNL     1      -9.182   6.879  67.230  1.00  0.00    -0.137 A  
HETATM   26  C   UNL     1      -9.906   6.137  68.168  1.00  0.00    -0.131 A  
HETATM   27  C   UNL     1      -9.712   8.917  68.387  1.00  0.00    -0.175 A  
HETATM   28  C   UNL     1     -10.531   6.806  69.234  1.00  0.00    -0.215 A  
HETATM   29  C   UNL     1     -10.404   8.187  69.346  1.00  0.00    -0.219 A  
BRANCH  26  30
HETATM   30  O   UNL     1     -10.076   4.778  68.101  1.00  0.00    -0.120 OA 
HETATM   31  C   UNL     1      -9.538   4.110  66.965  1.00  0.00    -0.201 C  
ENDBRANCH  26  30
BRANCH  28  32
HETATM   32  O   UNL     1     -11.270   6.035  70.098  1.00  0.00    -0.363 OA 
HETATM   33  C   UNL     1     -12.080   6.729  71.040  1.00  0.00    -0.372 C  
ENDBRANCH  28  32
ENDBRANCH  18  24
ENDBRANCH  17  18
ENDBRANCH  16  17
ENDBRANCH  15  16
ENDBRANCH  13  15
ENDBRANCH  12  13
ENDBRANCH  11  12
ENDBRANCH   7  11
ENDBRANCH   2   3
TORSDOF 12
ENDMDL
MODEL      145
REMARK 921   NORMALIZED FREE ENERGY PREDICTED BY IDOCK:   -4.57 KCAL/MOL
REMARK 922        TOTAL FREE ENERGY PREDICTED BY IDOCK:   -9.99 KCAL/MOL
REMARK 923 INTER-LIGAND FREE ENERGY PREDICTED BY IDOCK:   -8.23 KCAL/MOL
REMARK 924 INTRA-LIGAND FREE ENERGY PREDICTED BY IDOCK:   -1.76 KCAL/MOL
REMARK 927      BINDING AFFINITY PREDICTED BY RF-SCORE:    0.00 PKD
ROOT
HETATM    1  C   UNL     1     -13.518  15.874  73.047  1.00  0.00    -0.568 C  
HETATM    2  O   UNL     1     -13.390  15.602  71.655  1.00  0.00    -0.485 OA 
ENDROOT
BRANCH   2   3
HETATM    3  C   UNL     1     -12.975  14.336  71.318  1.00  0.00    -0.352 A  
HETATM    4  C   UNL     1     -12.194  13.969  70.210  1.00  0.00    -0.361 A  
HETATM    5  C   UNL     1     -13.189  11.991  71.938  1.00  0.00    -0.469 A  
HETATM    6  C   UNL     1     -11.913  12.608  69.992  1.00  0.00    -0.377 A  
HETATM    7  C   UNL     1     -12.398  11.610  70.848  1.00  0.00    -0.436 A  
HETATM    8  C   UNL     1     -13.478  13.341  72.164  1.00  0.00    -0.655 A  
BRANCH   4   9
HETATM    9  O   UNL     1     -11.786  14.960  69.358  1.00  0.00    -0.298 OA 
HETATM   10  C   UNL     1     -10.535  15.581  69.616  1.00  0.00    -0.286 C  
ENDBRANCH   4   9
BRANCH   7  11
HETATM   11  C   UNL     1     -12.208  10.140  70.476  1.00  0.00    -0.352 C  
BRANCH  11  12
HETATM   12  C   UNL     1     -11.837   9.392  71.763  1.00  0.00    -0.382 C  
BRANCH  12  13
HETATM   13  N   UNL     1     -11.134   8.105  71.769  1.00  0.00    -0.256 NA 
HETATM   14  C   UNL     1     -10.838   7.629  73.119  1.00  0.00    -0.382 C  
BRANCH  13  15
HETATM   15  C   UNL     1     -11.866   7.067  70.996  1.00  0.00    -0.351 C  
BRANCH  15  16
HETATM   16  C   UNL     1     -11.177   6.334  69.801  1.00  0.00    -0.499 C  
BRANCH  16  17
HETATM   17  C   UNL     1      -9.636   6.452  69.764  1.00  0.00    -0.163 C  
BRANCH  17  18
HETATM   18  C   UNL     1      -8.941   7.026  68.498  1.00  0.00    -0.122 C  
HETATM   19  N   UNL     1     -10.863   8.238  67.102  1.00  0.00    -0.156 NA 
HETATM   20  C   UNL     1      -7.891   8.174  68.888  1.00  0.00    -0.112 C  
HETATM   21  C   UNL     1     -10.017   7.709  67.697  1.00  0.00    -0.175 C  
HETATM   22  C   UNL     1      -6.696   7.742  69.753  1.00  0.00    -0.039 C  
HETATM   23  C   UNL     1      -8.538   9.367  69.624  1.00  0.00    -0.171 C  
BRANCH  18  24
HETATM   24  C   UNL     1      -8.311   5.851  67.742  1.00  0.00    -0.108 A  
HETATM   25  C   UNL     1      -7.982   5.942  66.378  1.00  0.00    -0.102 A  
HETATM   26  C   UNL     1      -7.588   4.824  65.636  1.00  0.00    -0.086 A  
HETATM   27  C   UNL     1      -8.182   4.593  68.357  1.00  0.00    -0.083 A  
HETATM   28  C   UNL     1      -7.484   3.579  66.277  1.00  0.00    -0.077 A  
HETATM   29  C   UNL     1      -7.756   3.482  67.638  1.00  0.00    -0.077 A  
BRANCH  26  30
HETATM   30  O   UNL     1      -7.319   4.857  64.291  1.00  0.00    -0.057 OA 
HETATM   31  C   UNL     1      -8.425   5.021  63.410  1.00  0.00    -0.123 C  
ENDBRANCH  26  30
BRANCH  28  32
HETATM   32  O   UNL     1      -7.141   2.506  65.490  1.00  0.00    -0.054 OA 
HETATM   33  C   UNL     1      -6.073   1.688  65.955  1.00  0.00    -0.022 C  
ENDBRANCH  28  32
ENDBRANCH  18  24
ENDBRANCH  17  18
ENDBRANCH  16  17
ENDBRANCH  15  16
ENDBRANCH  13  15
ENDBRANCH  12  13
ENDBRANCH  11  12
ENDBRANCH   7  11
ENDBRANCH   2   3
TORSDOF 12
ENDMDL
MODEL      146
REMARK 921   NORMALIZED FREE ENERGY PREDICTED BY IDOCK:   -4.56 KCAL/MOL
REMARK 922        TOTAL FREE ENERGY PREDICTED BY IDOCK:   -9.99 KCAL/MOL
REMARK 923 INTER-LIGAND FREE ENERGY PREDICTED BY IDOCK:   -7.18 KCAL/MOL
REMARK 924 INTRA-LIGAND FREE ENERGY PREDICTED BY IDOCK:   -2.81 KCAL/MOL
REMARK 927      BINDING AFFINITY PREDICTED BY RF-SCORE:    0.00 PKD
ROOT
HETATM    1  C   UNL     1     -10.577   3.939  64.525  1.00  0.00    -0.185 C  
HETATM    2  O   UNL     1      -9.358   4.656  64.688  1.00  0.00    -0.150 OA 
ENDROOT
BRANCH   2   3
HETATM    3  C   UNL     1      -9.131   5.195  65.932  1.00  0.00    -0.153 A  
HETATM    4  C   UNL     1      -8.562   6.446  66.221  1.00  0.00    -0.140 A  
HETATM    5  C   UNL     1      -9.239   4.700  68.314  1.00  0.00    -0.166 A  
HETATM    6  C   UNL     1      -8.352   6.809  67.563  1.00  0.00    -0.122 A  
HETATM    7  C   UNL     1      -8.690   5.951  68.619  1.00  0.00    -0.109 A  
HETATM    8  C   UNL     1      -9.450   4.326  66.982  1.00  0.00    -0.205 A  
BRANCH   4   9
HETATM    9  O   UNL     1      -8.187   7.237  65.168  1.00  0.00    -0.131 OA 
HETATM   10  C   UNL     1      -6.831   7.178  64.746  1.00  0.00    -0.050 C  
ENDBRANCH   4   9
BRANCH   7  11
HETATM   11  C   UNL     1      -8.288   6.318  70.047  1.00  0.00    -0.129 C  
BRANCH  11  12
HETATM   12  C   UNL     1      -8.700   5.147  70.948  1.00  0.00    -0.130 C  
BRANCH  12  13
HETATM   13  N   UNL     1      -9.190   5.324  72.320  1.00  0.00    -0.138 NA 
HETATM   14  C   UNL     1      -8.498   4.467  73.281  1.00  0.00    -0.102 C  
BRANCH  13  15
HETATM   15  C   UNL     1      -9.136   6.746  72.751  1.00  0.00    -0.135 C  
BRANCH  15  16
HETATM   16  C   UNL     1     -10.447   7.581  72.896  1.00  0.00    -0.372 C  
BRANCH  16  17
HETATM   17  C   UNL     1     -10.465   8.911  72.107  1.00  0.00    -0.320 C  
BRANCH  17  18
HETATM   18  C   UNL     1     -11.330   9.029  70.822  1.00  0.00    -0.329 C  
HETATM   19  N   UNL     1     -11.896   6.527  70.095  1.00  0.00    -0.374 NA 
HETATM   20  C   UNL     1     -12.740   9.724  71.139  1.00  0.00    -0.433 C  
HETATM   21  C   UNL     1     -11.652   7.622  70.397  1.00  0.00    -0.119 C  
HETATM   22  C   UNL     1     -12.689  11.177  71.638  1.00  0.00    -0.466 C  
HETATM   23  C   UNL     1     -13.581   8.949  72.177  1.00  0.00    -0.502 C  
BRANCH  18  24
HETATM   24  C   UNL     1     -10.501   9.778  69.772  1.00  0.00    -0.278 A  
HETATM   25  C   UNL     1     -11.069  10.230  68.568  1.00  0.00    -0.294 A  
HETATM   26  C   UNL     1     -10.287  10.740  67.527  1.00  0.00    -0.206 A  
HETATM   27  C   UNL     1      -9.108   9.901  69.918  1.00  0.00    -0.241 A  
HETATM   28  C   UNL     1      -8.896  10.836  67.699  1.00  0.00    -0.132 A  
HETATM   29  C   UNL     1      -8.325  10.440  68.904  1.00  0.00    -0.138 A  
BRANCH  26  30
HETATM   30  O   UNL     1     -10.793  11.133  66.314  1.00  0.00    -0.263 OA 
HETATM   31  C   UNL     1     -11.552  12.336  66.284  1.00  0.00    -0.385 C  
ENDBRANCH  26  30
BRANCH  28  32
HETATM   32  O   UNL     1      -8.171  11.297  66.626  1.00  0.00    -0.155 OA 
HETATM   33  C   UNL     1      -6.944  10.632  66.351  1.00  0.00    -0.129 C  
ENDBRANCH  28  32
ENDBRANCH  18  24
ENDBRANCH  17  18
ENDBRANCH  16  17
ENDBRANCH  15  16
ENDBRANCH  13  15
ENDBRANCH  12  13
ENDBRANCH  11  12
ENDBRANCH   7  11
ENDBRANCH   2   3
TORSDOF 12
ENDMDL
MODEL      147
REMARK 921   NORMALIZED FREE ENERGY PREDICTED BY IDOCK:   -4.56 KCAL/MOL
REMARK 922        TOTAL FREE ENERGY PREDICTED BY IDOCK:   -9.99 KCAL/MOL
REMARK 923 INTER-LIGAND FREE ENERGY PREDICTED BY IDOCK:   -7.97 KCAL/MOL
REMARK 924 INTRA-LIGAND FREE ENERGY PREDICTED BY IDOCK:   -2.02 KCAL/MOL
REMARK 927      BINDING AFFINITY PREDICTED BY RF-SCORE:    0.00 PKD
ROOT
HETATM    1  C   UNL     1     -11.421   2.007  73.616  1.00  0.00    -0.213 C  
HETATM    2  O   UNL     1     -10.754   2.610  72.512  1.00  0.00    -0.078 OA 
ENDROOT
BRANCH   2   3
HETATM    3  C   UNL     1     -10.281   3.885  72.710  1.00  0.00    -0.165 A  
HETATM    4  C   UNL     1      -9.458   4.625  71.845  1.00  0.00    -0.145 A  
HETATM    5  C   UNL     1     -10.189   5.693  74.338  1.00  0.00    -0.295 A  
HETATM    6  C   UNL     1      -9.022   5.902  72.242  1.00  0.00    -0.142 A  
HETATM    7  C   UNL     1      -9.383   6.451  73.480  1.00  0.00    -0.145 A  
HETATM    8  C   UNL     1     -10.627   4.421  73.956  1.00  0.00    -0.332 A  
BRANCH   4   9
HETATM    9  O   UNL     1      -9.073   4.038  70.670  1.00  0.00    -0.093 OA 
HETATM   10  C   UNL     1      -7.815   3.378  70.641  1.00  0.00    -0.043 C  
ENDBRANCH   4   9
BRANCH   7  11
HETATM   11  C   UNL     1      -8.749   7.765  73.935  1.00  0.00    -0.322 C  
BRANCH  11  12
HETATM   12  C   UNL     1      -7.370   7.856  73.269  1.00  0.00    -0.113 C  
BRANCH  12  13
HETATM   13  N   UNL     1      -6.974   8.962  72.391  1.00  0.00    -0.314 NA 
HETATM   14  C   UNL     1      -5.556   9.297  72.509  1.00  0.00    -0.030 C  
BRANCH  13  15
HETATM   15  C   UNL     1      -7.334   8.702  70.971  1.00  0.00    -0.083 C  
BRANCH  15  16
HETATM   16  C   UNL     1      -8.450   9.539  70.270  1.00  0.00    -0.237 C  
BRANCH  16  17
HETATM   17  C   UNL     1      -9.828   9.507  70.969  1.00  0.00    -0.236 C  
BRANCH  17  18
HETATM   18  C   UNL     1     -11.107   9.222  70.133  1.00  0.00    -0.260 C  
HETATM   19  N   UNL     1     -10.701   6.857  68.971  1.00  0.00    -0.229 NA 
HETATM   20  C   UNL     1     -12.386   9.033  71.082  1.00  0.00    -0.306 C  
HETATM   21  C   UNL     1     -10.889   7.891  69.466  1.00  0.00    -0.136 C  
HETATM   22  C   UNL     1     -12.803  10.253  71.918  1.00  0.00    -0.528 C  
HETATM   23  C   UNL     1     -12.234   7.866  72.082  1.00  0.00    -0.353 C  
BRANCH  18  24
HETATM   24  C   UNL     1     -11.260  10.362  69.118  1.00  0.00    -0.301 A  
HETATM   25  C   UNL     1     -10.948  10.186  67.759  1.00  0.00    -0.338 A  
HETATM   26  C   UNL     1     -10.901  11.261  66.866  1.00  0.00    -0.282 A  
HETATM   27  C   UNL     1     -11.576  11.663  69.549  1.00  0.00    -0.397 A  
HETATM   28  C   UNL     1     -11.207  12.551  67.331  1.00  0.00    -0.293 A  
HETATM   29  C   UNL     1     -11.567  12.733  68.662  1.00  0.00    -0.352 A  
BRANCH  26  30
HETATM   30  O   UNL     1     -10.540  11.144  65.548  1.00  0.00    -0.263 OA 
HETATM   31  C   UNL     1      -9.243  10.627  65.272  1.00  0.00    -0.197 C  
ENDBRANCH  26  30
BRANCH  28  32
HETATM   32  O   UNL     1     -11.096  13.577  66.423  1.00  0.00    -0.298 OA 
HETATM   33  C   UNL     1     -12.306  14.216  66.032  1.00  0.00    -0.445 C  
ENDBRANCH  28  32
ENDBRANCH  18  24
ENDBRANCH  17  18
ENDBRANCH  16  17
ENDBRANCH  15  16
ENDBRANCH  13  15
ENDBRANCH  12  13
ENDBRANCH  11  12
ENDBRANCH   7  11
ENDBRANCH   2   3
TORSDOF 12
ENDMDL
MODEL      148
REMARK 921   NORMALIZED FREE ENERGY PREDICTED BY IDOCK:   -4.56 KCAL/MOL
REMARK 922        TOTAL FREE ENERGY PREDICTED BY IDOCK:   -9.98 KCAL/MOL
REMARK 923 INTER-LIGAND FREE ENERGY PREDICTED BY IDOCK:   -7.38 KCAL/MOL
REMARK 924 INTRA-LIGAND FREE ENERGY PREDICTED BY IDOCK:   -2.60 KCAL/MOL
REMARK 927      BINDING AFFINITY PREDICTED BY RF-SCORE:    0.00 PKD
ROOT
HETATM    1  C   UNL     1     -10.001   5.432  69.693  1.00  0.00    -0.227 C  
HETATM    2  O   UNL     1      -9.760   5.187  68.311  1.00  0.00    -0.129 OA 
ENDROOT
BRANCH   2   3
HETATM    3  C   UNL     1      -9.627   6.296  67.511  1.00  0.00    -0.116 A  
HETATM    4  C   UNL     1      -8.565   6.586  66.638  1.00  0.00    -0.118 A  
HETATM    5  C   UNL     1     -10.645   8.442  66.977  1.00  0.00    -0.316 A  
HETATM    6  C   UNL     1      -8.569   7.805  65.937  1.00  0.00    -0.170 A  
HETATM    7  C   UNL     1      -9.603   8.739  66.091  1.00  0.00    -0.323 A  
HETATM    8  C   UNL     1     -10.650   7.235  67.683  1.00  0.00    -0.316 A  
BRANCH   4   9
HETATM    9  O   UNL     1      -7.540   5.682  66.555  1.00  0.00    -0.089 OA 
HETATM   10  C   UNL     1      -7.590   4.719  65.511  1.00  0.00    -0.085 C  
ENDBRANCH   4   9
BRANCH   7  11
HETATM   11  C   UNL     1      -9.478  10.116  65.438  1.00  0.00    -0.296 C  
BRANCH  11  12
HETATM   12  C   UNL     1     -10.843  10.804  65.572  1.00  0.00     0.009 C  
BRANCH  12  13
HETATM   13  N   UNL     1     -11.204  12.019  64.833  1.00  0.00    -0.320 NA 
HETATM   14  C   UNL     1     -11.555  11.750  63.440  1.00  0.00    -0.321 C  
BRANCH  13  15
HETATM   15  C   UNL     1     -12.290  12.779  65.509  1.00  0.00    -0.434 C  
BRANCH  15  16
HETATM   16  C   UNL     1     -12.118  14.299  65.821  1.00  0.00    -0.414 C  
BRANCH  16  17
HETATM   17  C   UNL     1     -11.790  14.631  67.294  1.00  0.00    -0.375 C  
BRANCH  17  18
HETATM   18  C   UNL     1     -10.309  14.820  67.727  1.00  0.00    -0.244 C  
HETATM   19  N   UNL     1      -9.114  16.067  65.695  1.00  0.00    -0.338 NA 
HETATM   20  C   UNL     1     -10.197  15.815  68.980  1.00  0.00    -0.224 C  
HETATM   21  C   UNL     1      -9.620  15.519  66.585  1.00  0.00    -0.253 C  
HETATM   22  C   UNL     1     -10.865  15.350  70.284  1.00  0.00    -0.332 C  
HETATM   23  C   UNL     1     -10.765  17.222  68.692  1.00  0.00    -0.280 C  
BRANCH  18  24
HETATM   24  C   UNL     1      -9.722  13.430  67.995  1.00  0.00    -0.222 A  
HETATM   25  C   UNL     1     -10.439  12.451  68.704  1.00  0.00    -0.224 A  
HETATM   26  C   UNL     1      -9.846  11.254  69.118  1.00  0.00    -0.004 A  
HETATM   27  C   UNL     1      -8.385  13.143  67.666  1.00  0.00    -0.174 A  
HETATM   28  C   UNL     1      -8.504  11.005  68.787  1.00  0.00    -0.144 A  
HETATM   29  C   UNL     1      -7.796  11.941  68.041  1.00  0.00    -0.140 A  
BRANCH  26  30
HETATM   30  O   UNL     1     -10.490  10.301  69.866  1.00  0.00    -0.257 OA 
HETATM   31  C   UNL     1     -11.692  10.690  70.521  1.00  0.00    -0.356 C  
ENDBRANCH  26  30
BRANCH  28  32
HETATM   32  O   UNL     1      -7.958   9.836  69.262  1.00  0.00    -0.093 OA 
HETATM   33  C   UNL     1      -6.691   9.463  68.733  1.00  0.00    -0.052 C  
ENDBRANCH  28  32
ENDBRANCH  18  24
ENDBRANCH  17  18
ENDBRANCH  16  17
ENDBRANCH  15  16
ENDBRANCH  13  15
ENDBRANCH  12  13
ENDBRANCH  11  12
ENDBRANCH   7  11
ENDBRANCH   2   3
TORSDOF 12
ENDMDL
MODEL      149
REMARK 921   NORMALIZED FREE ENERGY PREDICTED BY IDOCK:   -4.56 KCAL/MOL
REMARK 922        TOTAL FREE ENERGY PREDICTED BY IDOCK:   -9.97 KCAL/MOL
REMARK 923 INTER-LIGAND FREE ENERGY PREDICTED BY IDOCK:   -8.01 KCAL/MOL
REMARK 924 INTRA-LIGAND FREE ENERGY PREDICTED BY IDOCK:   -1.97 KCAL/MOL
REMARK 927      BINDING AFFINITY PREDICTED BY RF-SCORE:    0.00 PKD
ROOT
HETATM    1  C   UNL     1     -13.591  15.697  72.733  1.00  0.00    -0.593 C  
HETATM    2  O   UNL     1     -13.398  14.287  72.713  1.00  0.00    -0.495 OA 
ENDROOT
BRANCH   2   3
HETATM    3  C   UNL     1     -12.881  13.760  71.553  1.00  0.00    -0.362 A  
HETATM    4  C   UNL     1     -12.772  12.401  71.217  1.00  0.00    -0.248 A  
HETATM    5  C   UNL     1     -11.750  14.358  69.482  1.00  0.00    -0.362 A  
HETATM    6  C   UNL     1     -12.159  12.043  70.003  1.00  0.00    -0.355 A  
HETATM    7  C   UNL     1     -11.649  13.008  69.124  1.00  0.00    -0.368 A  
HETATM    8  C   UNL     1     -12.354  14.726  70.689  1.00  0.00    -0.401 A  
BRANCH   4   9
HETATM    9  O   UNL     1     -13.225  11.479  72.123  1.00  0.00    -0.505 OA 
HETATM   10  C   UNL     1     -13.042  10.104  71.816  1.00  0.00    -0.463 C  
ENDBRANCH   4   9
BRANCH   7  11
HETATM   11  C   UNL     1     -10.845  12.565  67.902  1.00  0.00    -0.251 C  
BRANCH  11  12
HETATM   12  C   UNL     1     -11.233  11.110  67.609  1.00  0.00    -0.297 C  
BRANCH  12  13
HETATM   13  N   UNL     1     -10.253  10.024  67.501  1.00  0.00    -0.198 NA 
HETATM   14  C   UNL     1      -9.943   9.678  66.116  1.00  0.00    -0.276 C  
BRANCH  13  15
HETATM   15  C   UNL     1      -9.008  10.321  68.258  1.00  0.00    -0.132 C  
BRANCH  15  16
HETATM   16  C   UNL     1      -8.861   9.881  69.748  1.00  0.00    -0.229 C  
BRANCH  16  17
HETATM   17  C   UNL     1      -9.753   8.691  70.169  1.00  0.00    -0.182 C  
BRANCH  17  18
HETATM   18  C   UNL     1      -9.113   7.464  70.877  1.00  0.00    -0.154 C  
HETATM   19  N   UNL     1      -7.400   8.467  72.657  1.00  0.00    -0.227 NA 
HETATM   20  C   UNL     1     -10.205   6.654  71.726  1.00  0.00    -0.206 C  
HETATM   21  C   UNL     1      -8.138   8.016  71.881  1.00  0.00    -0.121 C  
HETATM   22  C   UNL     1     -11.353   6.014  70.929  1.00  0.00    -0.299 C  
HETATM   23  C   UNL     1     -10.877   7.506  72.825  1.00  0.00    -0.397 C  
BRANCH  18  24
HETATM   24  C   UNL     1      -8.421   6.618  69.802  1.00  0.00    -0.132 A  
HETATM   25  C   UNL     1      -8.797   6.692  68.449  1.00  0.00    -0.121 A  
HETATM   26  C   UNL     1      -8.310   5.793  67.495  1.00  0.00    -0.104 A  
HETATM   27  C   UNL     1      -7.489   5.629  70.162  1.00  0.00    -0.077 A  
HETATM   28  C   UNL     1      -7.391   4.806  67.891  1.00  0.00    -0.070 A  
HETATM   29  C   UNL     1      -6.970   4.752  69.216  1.00  0.00    -0.051 A  
BRANCH  26  30
HETATM   30  O   UNL     1      -8.698   5.790  66.180  1.00  0.00    -0.129 OA 
HETATM   31  C   UNL     1      -9.902   5.102  65.858  1.00  0.00    -0.129 C  
ENDBRANCH  26  30
BRANCH  28  32
HETATM   32  O   UNL     1      -6.983   3.919  66.924  1.00  0.00    -0.057 OA 
HETATM   33  C   UNL     1      -5.604   3.944  66.575  1.00  0.00    -0.018 C  
ENDBRANCH  28  32
ENDBRANCH  18  24
ENDBRANCH  17  18
ENDBRANCH  16  17
ENDBRANCH  15  16
ENDBRANCH  13  15
ENDBRANCH  12  13
ENDBRANCH  11  12
ENDBRANCH   7  11
ENDBRANCH   2   3
TORSDOF 12
ENDMDL
MODEL      150
REMARK 921   NORMALIZED FREE ENERGY PREDICTED BY IDOCK:   -4.55 KCAL/MOL
REMARK 922        TOTAL FREE ENERGY PREDICTED BY IDOCK:   -9.96 KCAL/MOL
REMARK 923 INTER-LIGAND FREE ENERGY PREDICTED BY IDOCK:   -8.36 KCAL/MOL
REMARK 924 INTRA-LIGAND FREE ENERGY PREDICTED BY IDOCK:   -1.60 KCAL/MOL
REMARK 927      BINDING AFFINITY PREDICTED BY RF-SCORE:    0.00 PKD
ROOT
HETATM    1  C   UNL     1     -12.202  14.111  65.913  1.00  0.00    -0.439 C  
HETATM    2  O   UNL     1     -11.486  14.412  67.107  1.00  0.00    -0.330 OA 
ENDROOT
BRANCH   2   3
HETATM    3  C   UNL     1     -11.819  13.674  68.218  1.00  0.00    -0.369 A  
HETATM    4  C   UNL     1     -12.132  14.165  69.496  1.00  0.00    -0.340 A  
HETATM    5  C   UNL     1     -12.011  11.395  69.052  1.00  0.00    -0.387 A  
HETATM    6  C   UNL     1     -12.393  13.253  70.534  1.00  0.00    -0.389 A  
HETATM    7  C   UNL     1     -12.342  11.867  70.327  1.00  0.00    -0.287 A  
HETATM    8  C   UNL     1     -11.746  12.292  68.012  1.00  0.00    -0.417 A  
BRANCH   4   9
HETATM    9  O   UNL     1     -12.115  15.522  69.683  1.00  0.00    -0.351 OA 
HETATM   10  C   UNL     1     -11.141  16.055  70.569  1.00  0.00    -0.353 C  
ENDBRANCH   4   9
BRANCH   7  11
HETATM   11  C   UNL     1     -12.466  10.922  71.521  1.00  0.00    -0.419 C  
BRANCH  11  12
HETATM   12  C   UNL     1     -12.645   9.506  70.959  1.00  0.00    -0.253 C  
BRANCH  12  13
HETATM   13  N   UNL     1     -11.838   8.361  71.396  1.00  0.00    -0.287 NA 
HETATM   14  C   UNL     1     -12.558   7.093  71.298  1.00  0.00    -0.380 C  
BRANCH  13  15
HETATM   15  C   UNL     1     -10.542   8.285  70.672  1.00  0.00    -0.215 C  
BRANCH  15  16
HETATM   16  C   UNL     1     -10.144   6.993  69.891  1.00  0.00    -0.202 C  
BRANCH  16  17
HETATM   17  C   UNL     1     -10.118   7.142  68.352  1.00  0.00    -0.182 C  
BRANCH  17  18
HETATM   18  C   UNL     1      -8.899   6.608  67.550  1.00  0.00    -0.116 C  
HETATM   19  N   UNL     1      -6.851   6.607  69.259  1.00  0.00    -0.063 NA 
HETATM   20  C   UNL     1      -9.115   5.077  67.123  1.00  0.00    -0.115 C  
HETATM   21  C   UNL     1      -7.733   6.608  68.502  1.00  0.00    -0.105 C  
HETATM   22  C   UNL     1     -10.287   4.793  66.170  1.00  0.00    -0.337 C  
HETATM   23  C   UNL     1      -9.309   4.131  68.327  1.00  0.00    -0.214 C  
BRANCH  18  24
HETATM   24  C   UNL     1      -8.677   7.551  66.362  1.00  0.00    -0.158 A  
HETATM   25  C   UNL     1      -9.426   8.730  66.205  1.00  0.00    -0.300 A  
HETATM   26  C   UNL     1      -9.369   9.494  65.035  1.00  0.00    -0.229 A  
HETATM   27  C   UNL     1      -7.819   7.184  65.310  1.00  0.00    -0.121 A  
HETATM   28  C   UNL     1      -8.512   9.091  63.997  1.00  0.00    -0.163 A  
HETATM   29  C   UNL     1      -7.726   7.955  64.157  1.00  0.00    -0.132 A  
BRANCH  26  30
HETATM   30  O   UNL     1     -10.129  10.614  64.817  1.00  0.00    -0.304 OA 
HETATM   31  C   UNL     1      -9.552  11.869  65.160  1.00  0.00    -0.114 C  
ENDBRANCH  26  30
BRANCH  28  32
HETATM   32  O   UNL     1      -8.532   9.850  62.851  1.00  0.00    -0.143 OA 
HETATM   33  C   UNL     1      -7.284  10.370  62.408  1.00  0.00    -0.144 C  
ENDBRANCH  28  32
ENDBRANCH  18  24
ENDBRANCH  17  18
ENDBRANCH  16  17
ENDBRANCH  15  16
ENDBRANCH  13  15
ENDBRANCH  12  13
ENDBRANCH  11  12
ENDBRANCH   7  11
ENDBRANCH   2   3
TORSDOF 12
ENDMDL
MODEL      151
REMARK 921   NORMALIZED FREE ENERGY PREDICTED BY IDOCK:   -4.54 KCAL/MOL
REMARK 922        TOTAL FREE ENERGY PREDICTED BY IDOCK:   -9.95 KCAL/MOL
REMARK 923 INTER-LIGAND FREE ENERGY PREDICTED BY IDOCK:   -8.97 KCAL/MOL
REMARK 924 INTRA-LIGAND FREE ENERGY PREDICTED BY IDOCK:   -0.98 KCAL/MOL
REMARK 927      BINDING AFFINITY PREDICTED BY RF-SCORE:    0.00 PKD
ROOT
HETATM    1  C   UNL     1     -11.266   6.720  68.781  1.00  0.00    -0.104 C  
HETATM    2  O   UNL     1     -10.409   7.529  69.580  1.00  0.00    -0.213 OA 
ENDROOT
BRANCH   2   3
HETATM    3  C   UNL     1     -10.983   8.637  70.158  1.00  0.00    -0.226 A  
HETATM    4  C   UNL     1     -11.764   8.674  71.324  1.00  0.00    -0.289 A  
HETATM    5  C   UNL     1     -11.352  11.023  69.842  1.00  0.00    -0.364 A  
HETATM    6  C   UNL     1     -12.320   9.897  71.737  1.00  0.00    -0.456 A  
HETATM    7  C   UNL     1     -12.119  11.080  71.011  1.00  0.00    -0.406 A  
HETATM    8  C   UNL     1     -10.796   9.810  69.418  1.00  0.00    -0.256 A  
BRANCH   4   9
HETATM    9  O   UNL     1     -11.993   7.492  71.978  1.00  0.00    -0.282 OA 
HETATM   10  C   UNL     1     -11.034   7.070  72.937  1.00  0.00    -0.302 C  
ENDBRANCH   4   9
BRANCH   7  11
HETATM   11  C   UNL     1     -12.879  12.345  71.406  1.00  0.00    -0.360 C  
BRANCH  11  12
HETATM   12  C   UNL     1     -12.241  13.513  70.642  1.00  0.00    -0.358 C  
BRANCH  12  13
HETATM   13  N   UNL     1     -12.809  14.865  70.622  1.00  0.00    -0.359 NA 
HETATM   14  C   UNL     1     -13.559  15.181  71.836  1.00  0.00    -0.445 C  
BRANCH  13  15
HETATM   15  C   UNL     1     -11.773  15.899  70.362  1.00  0.00    -0.354 C  
BRANCH  15  16
HETATM   16  C   UNL     1     -11.356  16.254  68.899  1.00  0.00    -0.317 C  
BRANCH  16  17
HETATM   17  C   UNL     1     -10.159  17.225  68.778  1.00  0.00    -0.337 C  
BRANCH  17  18
HETATM   18  C   UNL     1      -9.120  17.024  67.640  1.00  0.00    -0.229 C  
HETATM   19  N   UNL     1     -10.544  16.596  65.427  1.00  0.00    -0.580 NA 
HETATM   20  C   UNL     1      -8.290  18.370  67.374  1.00  0.00    -0.256 C  
HETATM   21  C   UNL     1      -9.911  16.775  66.384  1.00  0.00    -0.304 C  
HETATM   22  C   UNL     1      -7.415  18.874  68.534  1.00  0.00    -0.339 C  
HETATM   23  C   UNL     1      -9.179  19.564  66.965  1.00  0.00    -0.404 C  
BRANCH  18  24
HETATM   24  C   UNL     1      -8.242  15.827  68.020  1.00  0.00    -0.143 A  
HETATM   25  C   UNL     1      -8.187  14.670  67.224  1.00  0.00    -0.235 A  
HETATM   26  C   UNL     1      -7.544  13.505  67.654  1.00  0.00    -0.177 A  
HETATM   27  C   UNL     1      -7.578  15.793  69.259  1.00  0.00    -0.224 A  
HETATM   28  C   UNL     1      -6.904  13.499  68.905  1.00  0.00    -0.111 A  
HETATM   29  C   UNL     1      -6.905  14.652  69.682  1.00  0.00    -0.163 A  
BRANCH  26  30
HETATM   30  O   UNL     1      -7.521  12.336  66.937  1.00  0.00    -0.100 OA 
HETATM   31  C   UNL     1      -8.767  11.837  66.465  1.00  0.00    -0.173 C  
ENDBRANCH  26  30
BRANCH  28  32
HETATM   32  O   UNL     1      -6.331  12.314  69.299  1.00  0.00    -0.088 OA 
HETATM   33  C   UNL     1      -7.218  11.233  69.563  1.00  0.00    -0.018 C  
ENDBRANCH  28  32
ENDBRANCH  18  24
ENDBRANCH  17  18
ENDBRANCH  16  17
ENDBRANCH  15  16
ENDBRANCH  13  15
ENDBRANCH  12  13
ENDBRANCH  11  12
ENDBRANCH   7  11
ENDBRANCH   2   3
TORSDOF 12
ENDMDL
MODEL      152
REMARK 921   NORMALIZED FREE ENERGY PREDICTED BY IDOCK:   -4.54 KCAL/MOL
REMARK 922        TOTAL FREE ENERGY PREDICTED BY IDOCK:   -9.95 KCAL/MOL
REMARK 923 INTER-LIGAND FREE ENERGY PREDICTED BY IDOCK:   -7.84 KCAL/MOL
REMARK 924 INTRA-LIGAND FREE ENERGY PREDICTED BY IDOCK:   -2.11 KCAL/MOL
REMARK 927      BINDING AFFINITY PREDICTED BY RF-SCORE:    0.00 PKD
ROOT
HETATM    1  C   UNL     1     -13.805   8.572  71.812  1.00  0.00    -0.413 C  
HETATM    2  O   UNL     1     -12.736   8.174  72.663  1.00  0.00    -0.189 OA 
ENDROOT
BRANCH   2   3
HETATM    3  C   UNL     1     -11.476   8.211  72.116  1.00  0.00    -0.350 A  
HETATM    4  C   UNL     1     -10.293   7.710  72.682  1.00  0.00    -0.275 A  
HETATM    5  C   UNL     1     -10.202   9.068  70.226  1.00  0.00    -0.235 A  
HETATM    6  C   UNL     1      -9.077   7.889  71.998  1.00  0.00    -0.198 A  
HETATM    7  C   UNL     1      -9.016   8.560  70.769  1.00  0.00    -0.193 A  
HETATM    8  C   UNL     1     -11.417   8.900  70.899  1.00  0.00    -0.339 A  
BRANCH   4   9
HETATM    9  O   UNL     1     -10.375   7.113  73.912  1.00  0.00    -0.358 OA 
HETATM   10  C   UNL     1      -9.419   6.109  74.226  1.00  0.00    -0.181 C  
ENDBRANCH   4   9
BRANCH   7  11
HETATM   11  C   UNL     1      -7.655   8.876  70.149  1.00  0.00    -0.074 C  
BRANCH  11  12
HETATM   12  C   UNL     1      -7.556   8.076  68.844  1.00  0.00    -0.099 C  
BRANCH  12  13
HETATM   13  N   UNL     1      -7.225   8.686  67.552  1.00  0.00    -0.080 NA 
HETATM   14  C   UNL     1      -6.488   7.781  66.672  1.00  0.00    -0.050 C  
BRANCH  13  15
HETATM   15  C   UNL     1      -8.430   9.220  66.863  1.00  0.00    -0.127 C  
BRANCH  15  16
HETATM   16  C   UNL     1      -8.658  10.760  66.744  1.00  0.00    -0.136 C  
BRANCH  16  17
HETATM   17  C   UNL     1     -10.137  11.206  66.777  1.00  0.00    -0.255 C  
BRANCH  17  18
HETATM   18  C   UNL     1     -10.482  12.721  66.804  1.00  0.00    -0.253 C  
HETATM   19  N   UNL     1      -8.141  13.997  66.839  1.00  0.00     0.005 NA 
HETATM   20  C   UNL     1     -11.207  13.171  65.446  1.00  0.00    -0.315 C  
HETATM   21  C   UNL     1      -9.168  13.454  66.830  1.00  0.00    -0.236 C  
HETATM   22  C   UNL     1     -12.572  12.526  65.154  1.00  0.00    -0.358 C  
HETATM   23  C   UNL     1     -10.347  12.928  64.187  1.00  0.00    -0.385 C  
BRANCH  18  24
HETATM   24  C   UNL     1     -11.319  12.985  68.061  1.00  0.00    -0.327 A  
HETATM   25  C   UNL     1     -11.583  14.289  68.512  1.00  0.00    -0.355 A  
HETATM   26  C   UNL     1     -12.178  14.537  69.753  1.00  0.00    -0.312 A  
HETATM   27  C   UNL     1     -11.721  11.919  68.886  1.00  0.00    -0.381 A  
HETATM   28  C   UNL     1     -12.554  13.451  70.561  1.00  0.00    -0.211 A  
HETATM   29  C   UNL     1     -12.346  12.153  70.106  1.00  0.00    -0.219 A  
BRANCH  26  30
HETATM   30  O   UNL     1     -12.395  15.794  70.259  1.00  0.00    -0.391 OA 
HETATM   31  C   UNL     1     -11.260  16.511  70.731  1.00  0.00    -0.036 C  
ENDBRANCH  26  30
BRANCH  28  32
HETATM   32  O   UNL     1     -13.088  13.752  71.791  1.00  0.00    -0.342 OA 
HETATM   33  C   UNL     1     -13.791  12.709  72.454  1.00  0.00    -0.169 C  
ENDBRANCH  28  32
ENDBRANCH  18  24
ENDBRANCH  17  18
ENDBRANCH  16  17
ENDBRANCH  15  16
ENDBRANCH  13  15
ENDBRANCH  12  13
ENDBRANCH  11  12
ENDBRANCH   7  11
ENDBRANCH   2   3
TORSDOF 12
ENDMDL
MODEL      153
REMARK 921   NORMALIZED FREE ENERGY PREDICTED BY IDOCK:   -4.53 KCAL/MOL
REMARK 922        TOTAL FREE ENERGY PREDICTED BY IDOCK:   -9.92 KCAL/MOL
REMARK 923 INTER-LIGAND FREE ENERGY PREDICTED BY IDOCK:   -7.90 KCAL/MOL
REMARK 924 INTRA-LIGAND FREE ENERGY PREDICTED BY IDOCK:   -2.02 KCAL/MOL
REMARK 927      BINDING AFFINITY PREDICTED BY RF-SCORE:    0.00 PKD
ROOT
HETATM    1  C   UNL     1     -13.534   7.718  71.811  1.00  0.00    -0.322 C  
HETATM    2  O   UNL     1     -12.560   6.725  71.505  1.00  0.00    -0.361 OA 
ENDROOT
BRANCH   2   3
HETATM    3  C   UNL     1     -11.327   7.184  71.107  1.00  0.00    -0.275 A  
HETATM    4  C   UNL     1     -10.772   7.109  69.819  1.00  0.00    -0.239 A  
HETATM    5  C   UNL     1      -9.261   8.173  71.934  1.00  0.00    -0.243 A  
HETATM    6  C   UNL     1      -9.465   7.582  69.609  1.00  0.00    -0.156 A  
HETATM    7  C   UNL     1      -8.700   8.121  70.653  1.00  0.00    -0.136 A  
HETATM    8  C   UNL     1     -10.560   7.701  72.157  1.00  0.00    -0.281 A  
BRANCH   4   9
HETATM    9  O   UNL     1     -11.520   6.523  68.833  1.00  0.00    -0.266 OA 
HETATM   10  C   UNL     1     -11.006   6.549  67.508  1.00  0.00    -0.359 C  
ENDBRANCH   4   9
BRANCH   7  11
HETATM   11  C   UNL     1      -7.231   8.465  70.411  1.00  0.00    -0.037 C  
BRANCH  11  12
HETATM   12  C   UNL     1      -7.116   9.995  70.425  1.00  0.00    -0.122 C  
BRANCH  12  13
HETATM   13  N   UNL     1      -6.235  10.743  69.522  1.00  0.00    -0.054 NA 
HETATM   14  C   UNL     1      -5.716   9.920  68.431  1.00  0.00    -0.042 C  
BRANCH  13  15
HETATM   15  C   UNL     1      -6.892  11.965  68.989  1.00  0.00    -0.105 C  
BRANCH  15  16
HETATM   16  C   UNL     1      -8.240  11.865  68.207  1.00  0.00    -0.157 C  
BRANCH  16  17
HETATM   17  C   UNL     1      -9.509  12.079  69.062  1.00  0.00     0.264 C  
BRANCH  17  18
HETATM   18  C   UNL     1     -10.897  12.171  68.367  1.00  0.00    -0.255 C  
HETATM   19  N   UNL     1     -11.019  10.083  66.714  1.00  0.00    -0.036 NA 
HETATM   20  C   UNL     1     -12.085  11.965  69.424  1.00  0.00    -0.277 C  
HETATM   21  C   UNL     1     -10.977  11.000  67.426  1.00  0.00    -0.291 C  
HETATM   22  C   UNL     1     -12.202  13.020  70.536  1.00  0.00    -0.392 C  
HETATM   23  C   UNL     1     -12.032  10.598  70.142  1.00  0.00    -0.417 C  
BRANCH  18  24
HETATM   24  C   UNL     1     -10.958  13.514  67.631  1.00  0.00    -0.280 A  
HETATM   25  C   UNL     1     -11.525  13.628  66.350  1.00  0.00    -0.358 A  
HETATM   26  C   UNL     1     -11.416  14.799  65.593  1.00  0.00    -0.327 A  
HETATM   27  C   UNL     1     -10.310  14.647  68.156  1.00  0.00    -0.230 A  
HETATM   28  C   UNL     1     -10.749  15.908  66.141  1.00  0.00    -0.271 A  
HETATM   29  C   UNL     1     -10.227  15.828  67.427  1.00  0.00    -0.270 A  
BRANCH  26  30
HETATM   30  O   UNL     1     -11.899  14.931  64.317  1.00  0.00    -0.386 OA 
HETATM   31  C   UNL     1     -12.181  13.734  63.600  1.00  0.00    -0.256 C  
ENDBRANCH  26  30
BRANCH  28  32
HETATM   32  O   UNL     1     -10.628  17.014  65.335  1.00  0.00    -0.601 OA 
HETATM   33  C   UNL     1     -10.471  18.267  65.991  1.00  0.00    -0.361 C  
ENDBRANCH  28  32
ENDBRANCH  18  24
ENDBRANCH  17  18
ENDBRANCH  16  17
ENDBRANCH  15  16
ENDBRANCH  13  15
ENDBRANCH  12  13
ENDBRANCH  11  12
ENDBRANCH   7  11
ENDBRANCH   2   3
TORSDOF 12
ENDMDL
MODEL      154
REMARK 921   NORMALIZED FREE ENERGY PREDICTED BY IDOCK:   -4.51 KCAL/MOL
REMARK 922        TOTAL FREE ENERGY PREDICTED BY IDOCK:   -9.90 KCAL/MOL
REMARK 923 INTER-LIGAND FREE ENERGY PREDICTED BY IDOCK:   -8.56 KCAL/MOL
REMARK 924 INTRA-LIGAND FREE ENERGY PREDICTED BY IDOCK:   -1.34 KCAL/MOL
REMARK 927      BINDING AFFINITY PREDICTED BY RF-SCORE:    0.00 PKD
ROOT
HETATM    1  C   UNL     1     -11.284  15.818  64.718  1.00  0.00    -0.366 C  
HETATM    2  O   UNL     1     -10.349  15.262  65.637  1.00  0.00    -0.311 OA 
ENDROOT
BRANCH   2   3
HETATM    3  C   UNL     1     -10.862  14.811  66.829  1.00  0.00    -0.316 A  
HETATM    4  C   UNL     1     -11.131  15.574  67.977  1.00  0.00    -0.322 A  
HETATM    5  C   UNL     1     -11.520  12.793  68.023  1.00  0.00    -0.364 A  
HETATM    6  C   UNL     1     -11.604  14.929  69.133  1.00  0.00    -0.331 A  
HETATM    7  C   UNL     1     -11.809  13.542  69.170  1.00  0.00    -0.386 A  
HETATM    8  C   UNL     1     -11.045  13.424  66.868  1.00  0.00    -0.309 A  
BRANCH   4   9
HETATM    9  O   UNL     1     -10.864  16.917  67.929  1.00  0.00    -0.354 OA 
HETATM   10  C   UNL     1      -9.696  17.383  68.592  1.00  0.00    -0.308 C  
ENDBRANCH   4   9
BRANCH   7  11
HETATM   11  C   UNL     1     -12.161  12.868  70.496  1.00  0.00    -0.395 C  
BRANCH  11  12
HETATM   12  C   UNL     1     -12.308  11.367  70.214  1.00  0.00    -0.297 C  
BRANCH  12  13
HETATM   13  N   UNL     1     -11.675  10.330  71.036  1.00  0.00    -0.369 NA 
HETATM   14  C   UNL     1     -12.583   9.230  71.355  1.00  0.00    -0.336 C  
BRANCH  13  15
HETATM   15  C   UNL     1     -10.425   9.815  70.416  1.00  0.00    -0.297 C  
BRANCH  15  16
HETATM   16  C   UNL     1     -10.484   8.710  69.314  1.00  0.00    -0.226 C  
BRANCH  16  17
HETATM   17  C   UNL     1     -10.655   9.235  67.871  1.00  0.00    -0.288 C  
BRANCH  17  18
HETATM   18  C   UNL     1      -9.547   8.960  66.816  1.00  0.00    -0.262 C  
HETATM   19  N   UNL     1     -10.171  10.458  64.700  1.00  0.00    -0.312 NA 
HETATM   20  C   UNL     1      -8.122   9.491  67.326  1.00  0.00    -0.110 C  
HETATM   21  C   UNL     1      -9.891   9.796  65.613  1.00  0.00    -0.301 C  
HETATM   22  C   UNL     1      -7.553   8.819  68.586  1.00  0.00    -0.097 C  
HETATM   23  C   UNL     1      -8.104  11.009  67.610  1.00  0.00    -0.116 C  
BRANCH  18  24
HETATM   24  C   UNL     1      -9.566   7.459  66.505  1.00  0.00    -0.228 A  
HETATM   25  C   UNL     1      -8.548   6.848  65.752  1.00  0.00    -0.139 A  
HETATM   26  C   UNL     1      -8.651   5.528  65.302  1.00  0.00    -0.149 A  
HETATM   27  C   UNL     1     -10.684   6.675  66.840  1.00  0.00    -0.401 A  
HETATM   28  C   UNL     1      -9.789   4.777  65.640  1.00  0.00    -0.176 A  
HETATM   29  C   UNL     1     -10.781   5.350  66.429  1.00  0.00    -0.284 A  
BRANCH  26  30
HETATM   30  O   UNL     1      -7.712   4.916  64.512  1.00  0.00    -0.078 OA 
HETATM   31  C   UNL     1      -6.465   4.591  65.115  1.00  0.00    -0.036 C  
ENDBRANCH  26  30
BRANCH  28  32
HETATM   32  O   UNL     1      -9.861   3.502  65.130  1.00  0.00    -0.157 OA 
HETATM   33  C   UNL     1     -10.666   3.323  63.971  1.00  0.00    -0.135 C  
ENDBRANCH  28  32
ENDBRANCH  18  24
ENDBRANCH  17  18
ENDBRANCH  16  17
ENDBRANCH  15  16
ENDBRANCH  13  15
ENDBRANCH  12  13
ENDBRANCH  11  12
ENDBRANCH   7  11
ENDBRANCH   2   3
TORSDOF 12
ENDMDL
MODEL      155
REMARK 921   NORMALIZED FREE ENERGY PREDICTED BY IDOCK:   -4.49 KCAL/MOL
REMARK 922        TOTAL FREE ENERGY PREDICTED BY IDOCK:   -9.87 KCAL/MOL
REMARK 923 INTER-LIGAND FREE ENERGY PREDICTED BY IDOCK:   -9.12 KCAL/MOL
REMARK 924 INTRA-LIGAND FREE ENERGY PREDICTED BY IDOCK:   -0.74 KCAL/MOL
REMARK 927      BINDING AFFINITY PREDICTED BY RF-SCORE:    0.00 PKD
ROOT
HETATM    1  C   UNL     1      -9.880  19.250  68.590  1.00  0.00    -0.431 C  
HETATM    2  O   UNL     1      -9.239  17.979  68.643  1.00  0.00    -0.292 OA 
ENDROOT
BRANCH   2   3
HETATM    3  C   UNL     1      -9.868  16.953  67.980  1.00  0.00    -0.264 A  
HETATM    4  C   UNL     1      -9.631  16.527  66.663  1.00  0.00    -0.258 A  
HETATM    5  C   UNL     1     -11.666  15.323  68.179  1.00  0.00    -0.297 A  
HETATM    6  C   UNL     1     -10.416  15.490  66.128  1.00  0.00    -0.323 A  
HETATM    7  C   UNL     1     -11.431  14.875  66.874  1.00  0.00    -0.318 A  
HETATM    8  C   UNL     1     -10.894  16.357  68.721  1.00  0.00    -0.338 A  
BRANCH   4   9
HETATM    9  O   UNL     1      -8.675  17.187  65.939  1.00  0.00    -0.526 OA 
HETATM   10  C   UNL     1      -7.313  16.932  66.254  1.00  0.00    -0.213 C  
ENDBRANCH   4   9
BRANCH   7  11
HETATM   11  C   UNL     1     -12.365  13.873  66.195  1.00  0.00    -0.504 C  
BRANCH  11  12
HETATM   12  C   UNL     1     -11.510  12.669  65.779  1.00  0.00    -0.358 C  
BRANCH  12  13
HETATM   13  N   UNL     1     -11.583  12.053  64.450  1.00  0.00    -0.346 NA 
HETATM   14  C   UNL     1     -11.997  12.996  63.413  1.00  0.00    -0.520 C  
BRANCH  13  15
HETATM   15  C   UNL     1     -10.307  11.388  64.074  1.00  0.00    -0.362 C  
BRANCH  15  16
HETATM   16  C   UNL     1      -9.384  10.766  65.169  1.00  0.00    -0.254 C  
BRANCH  16  17
HETATM   17  C   UNL     1      -9.766   9.333  65.608  1.00  0.00    -0.302 C  
BRANCH  17  18
HETATM   18  C   UNL     1      -8.864   8.575  66.621  1.00  0.00    -0.157 C  
HETATM   19  N   UNL     1      -8.598   6.106  65.648  1.00  0.00    -0.151 NA 
HETATM   20  C   UNL     1      -7.386   9.196  66.654  1.00  0.00    -0.086 C  
HETATM   21  C   UNL     1      -8.710   7.176  66.087  1.00  0.00    -0.151 C  
HETATM   22  C   UNL     1      -7.267  10.652  67.132  1.00  0.00    -0.097 C  
HETATM   23  C   UNL     1      -6.671   9.139  65.287  1.00  0.00    -0.069 C  
BRANCH  18  24
HETATM   24  C   UNL     1      -9.571   8.602  67.981  1.00  0.00    -0.168 A  
HETATM   25  C   UNL     1     -10.584   9.533  68.268  1.00  0.00    -0.260 A  
HETATM   26  C   UNL     1     -11.099   9.692  69.559  1.00  0.00    -0.168 A  
HETATM   27  C   UNL     1      -9.119   7.789  69.037  1.00  0.00    -0.144 A  
HETATM   28  C   UNL     1     -10.615   8.875  70.594  1.00  0.00    -0.229 A  
HETATM   29  C   UNL     1      -9.649   7.914  70.316  1.00  0.00    -0.171 A  
BRANCH  26  30
HETATM   30  O   UNL     1     -12.041  10.630  69.894  1.00  0.00    -0.303 OA 
HETATM   31  C   UNL     1     -11.841  11.955  69.415  1.00  0.00    -0.327 C  
ENDBRANCH  26  30
BRANCH  28  32
HETATM   32  O   UNL     1     -11.120   9.108  71.851  1.00  0.00    -0.364 OA 
HETATM   33  C   UNL     1     -11.859   8.049  72.449  1.00  0.00    -0.372 C  
ENDBRANCH  28  32
ENDBRANCH  18  24
ENDBRANCH  17  18
ENDBRANCH  16  17
ENDBRANCH  15  16
ENDBRANCH  13  15
ENDBRANCH  12  13
ENDBRANCH  11  12
ENDBRANCH   7  11
ENDBRANCH   2   3
TORSDOF 12
ENDMDL
MODEL      156
REMARK 921   NORMALIZED FREE ENERGY PREDICTED BY IDOCK:   -4.49 KCAL/MOL
REMARK 922        TOTAL FREE ENERGY PREDICTED BY IDOCK:   -9.86 KCAL/MOL
REMARK 923 INTER-LIGAND FREE ENERGY PREDICTED BY IDOCK:   -8.24 KCAL/MOL
REMARK 924 INTRA-LIGAND FREE ENERGY PREDICTED BY IDOCK:   -1.62 KCAL/MOL
REMARK 927      BINDING AFFINITY PREDICTED BY RF-SCORE:    0.00 PKD
ROOT
HETATM    1  C   UNL     1      -8.563   4.077  69.871  1.00  0.00    -0.065 C  
HETATM    2  O   UNL     1      -9.933   4.379  69.629  1.00  0.00    -0.222 OA 
ENDROOT
BRANCH   2   3
HETATM    3  C   UNL     1     -10.184   5.483  68.850  1.00  0.00    -0.214 A  
HETATM    4  C   UNL     1     -10.358   5.513  67.457  1.00  0.00    -0.214 A  
HETATM    5  C   UNL     1     -10.374   7.910  68.921  1.00  0.00    -0.225 A  
HETATM    6  C   UNL     1     -10.550   6.751  66.818  1.00  0.00    -0.311 A  
HETATM    7  C   UNL     1     -10.567   7.955  67.535  1.00  0.00    -0.312 A  
HETATM    8  C   UNL     1     -10.179   6.685  69.568  1.00  0.00    -0.208 A  
BRANCH   4   9
HETATM    9  O   UNL     1     -10.276   4.328  66.776  1.00  0.00    -0.167 OA 
HETATM   10  C   UNL     1      -9.309   4.225  65.740  1.00  0.00    -0.164 C  
ENDBRANCH   4   9
BRANCH   7  11
HETATM   11  C   UNL     1     -10.610   9.283  66.779  1.00  0.00    -0.207 C  
BRANCH  11  12
HETATM   12  C   UNL     1      -9.623   9.169  65.610  1.00  0.00    -0.217 C  
BRANCH  12  13
HETATM   13  N   UNL     1      -9.443  10.222  64.606  1.00  0.00    -0.268 NA 
HETATM   14  C   UNL     1      -9.006   9.701  63.312  1.00  0.00    -0.227 C  
BRANCH  13  15
HETATM   15  C   UNL     1     -10.665  11.055  64.449  1.00  0.00    -0.269 C  
BRANCH  15  16
HETATM   16  C   UNL     1     -10.758  12.461  65.122  1.00  0.00    -0.327 C  
BRANCH  16  17
HETATM   17  C   UNL     1      -9.509  12.884  65.927  1.00  0.00    -0.061 C  
BRANCH  17  18
HETATM   18  C   UNL     1      -9.681  13.516  67.336  1.00  0.00    -0.229 C  
HETATM   19  N   UNL     1     -11.930  12.480  68.325  1.00  0.00    -0.296 NA 
HETATM   20  C   UNL     1      -8.509  13.047  68.326  1.00  0.00    -0.159 C  
HETATM   21  C   UNL     1     -10.951  12.944  67.904  1.00  0.00    -0.241 C  
HETATM   22  C   UNL     1      -7.082  13.473  67.945  1.00  0.00    -0.140 C  
HETATM   23  C   UNL     1      -8.455  11.516  68.523  1.00  0.00    -0.143 C  
BRANCH  18  24
HETATM   24  C   UNL     1      -9.759  15.037  67.156  1.00  0.00    -0.228 A  
HETATM   25  C   UNL     1      -8.846  15.731  66.344  1.00  0.00    -0.371 A  
HETATM   26  C   UNL     1      -8.788  17.129  66.324  1.00  0.00    -0.231 A  
HETATM   27  C   UNL     1     -10.658  15.801  67.921  1.00  0.00    -0.282 A  
HETATM   28  C   UNL     1      -9.691  17.863  67.111  1.00  0.00    -0.289 A  
HETATM   29  C   UNL     1     -10.634  17.190  67.881  1.00  0.00    -0.376 A  
BRANCH  26  30
HETATM   30  O   UNL     1      -7.872  17.844  65.595  1.00  0.00    -0.534 OA 
HETATM   31  C   UNL     1      -6.512  17.770  66.007  1.00  0.00    -0.259 C  
ENDBRANCH  26  30
BRANCH  28  32
HETATM   32  O   UNL     1      -9.557  19.230  67.091  1.00  0.00    -0.310 OA 
HETATM   33  C   UNL     1     -10.483  19.950  66.286  1.00  0.00    -0.479 C  
ENDBRANCH  28  32
ENDBRANCH  18  24
ENDBRANCH  17  18
ENDBRANCH  16  17
ENDBRANCH  15  16
ENDBRANCH  13  15
ENDBRANCH  12  13
ENDBRANCH  11  12
ENDBRANCH   7  11
ENDBRANCH   2   3
TORSDOF 12
ENDMDL
MODEL      157
REMARK 921   NORMALIZED FREE ENERGY PREDICTED BY IDOCK:   -4.49 KCAL/MOL
REMARK 922        TOTAL FREE ENERGY PREDICTED BY IDOCK:   -9.86 KCAL/MOL
REMARK 923 INTER-LIGAND FREE ENERGY PREDICTED BY IDOCK:   -8.16 KCAL/MOL
REMARK 924 INTRA-LIGAND FREE ENERGY PREDICTED BY IDOCK:   -1.69 KCAL/MOL
REMARK 927      BINDING AFFINITY PREDICTED BY RF-SCORE:    0.00 PKD
ROOT
HETATM    1  C   UNL     1      -6.348   9.736  67.332  1.00  0.00    -0.068 C  
HETATM    2  O   UNL     1      -7.546   9.002  67.103  1.00  0.00    -0.090 OA 
ENDROOT
BRANCH   2   3
HETATM    3  C   UNL     1      -8.710   9.583  67.546  1.00  0.00    -0.126 A  
HETATM    4  C   UNL     1      -9.533  10.474  66.838  1.00  0.00    -0.165 A  
HETATM    5  C   UNL     1     -10.142   9.821  69.501  1.00  0.00    -0.233 A  
HETATM    6  C   UNL     1     -10.662  11.017  67.477  1.00  0.00    -0.289 A  
HETATM    7  C   UNL     1     -10.983  10.697  68.803  1.00  0.00    -0.292 A  
HETATM    8  C   UNL     1      -9.014   9.277  68.877  1.00  0.00    -0.136 A  
BRANCH   4   9
HETATM    9  O   UNL     1      -9.161  10.815  65.565  1.00  0.00    -0.186 OA 
HETATM   10  C   UNL     1      -9.767  10.115  64.488  1.00  0.00    -0.293 C  
ENDBRANCH   4   9
BRANCH   7  11
HETATM   11  C   UNL     1     -12.119  11.440  69.505  1.00  0.00    -0.370 C  
BRANCH  11  12
HETATM   12  C   UNL     1     -11.708  12.916  69.591  1.00  0.00    -0.299 C  
BRANCH  12  13
HETATM   13  N   UNL     1     -12.411  13.897  70.423  1.00  0.00    -0.344 NA 
HETATM   14  C   UNL     1     -12.950  13.315  71.650  1.00  0.00    -0.349 C  
BRANCH  13  15
HETATM   15  C   UNL     1     -11.559  15.076  70.733  1.00  0.00    -0.317 C  
BRANCH  15  16
HETATM   16  C   UNL     1     -10.635  15.697  69.638  1.00  0.00    -0.284 C  
BRANCH  16  17
HETATM   17  C   UNL     1      -9.168  15.213  69.670  1.00  0.00    -0.082 C  
BRANCH  17  18
HETATM   18  C   UNL     1      -8.221  15.554  68.485  1.00  0.00    -0.148 C  
HETATM   19  N   UNL     1      -7.175  17.939  69.058  1.00  0.00    -0.244 NA 
HETATM   20  C   UNL     1      -6.984  14.535  68.425  1.00  0.00    -0.107 C  
HETATM   21  C   UNL     1      -7.627  16.902  68.793  1.00  0.00    -0.243 C  
HETATM   22  C   UNL     1      -7.326  13.060  68.160  1.00  0.00    -0.118 C  
HETATM   23  C   UNL     1      -6.122  14.546  69.706  1.00  0.00    -0.131 C  
BRANCH  18  24
HETATM   24  C   UNL     1      -9.066  15.569  67.206  1.00  0.00    -0.215 A  
HETATM   25  C   UNL     1      -9.527  16.770  66.641  1.00  0.00    -0.275 A  
HETATM   26  C   UNL     1     -10.451  16.787  65.592  1.00  0.00    -0.269 A  
HETATM   27  C   UNL     1      -9.530  14.367  66.643  1.00  0.00    -0.300 A  
HETATM   28  C   UNL     1     -10.908  15.569  65.062  1.00  0.00    -0.450 A  
HETATM   29  C   UNL     1     -10.421  14.372  65.576  1.00  0.00    -0.366 A  
BRANCH  26  30
HETATM   30  O   UNL     1     -10.975  17.935  65.054  1.00  0.00    -0.776 OA 
HETATM   31  C   UNL     1     -10.723  19.153  65.747  1.00  0.00    -0.307 C  
ENDBRANCH  26  30
BRANCH  28  32
HETATM   32  O   UNL     1     -11.852  15.644  64.066  1.00  0.00    -0.491 OA 
HETATM   33  C   UNL     1     -12.498  14.428  63.706  1.00  0.00     0.197 C  
ENDBRANCH  28  32
ENDBRANCH  18  24
ENDBRANCH  17  18
ENDBRANCH  16  17
ENDBRANCH  15  16
ENDBRANCH  13  15
ENDBRANCH  12  13
ENDBRANCH  11  12
ENDBRANCH   7  11
ENDBRANCH   2   3
TORSDOF 12
ENDMDL
MODEL      158
REMARK 921   NORMALIZED FREE ENERGY PREDICTED BY IDOCK:   -4.46 KCAL/MOL
REMARK 922        TOTAL FREE ENERGY PREDICTED BY IDOCK:   -9.81 KCAL/MOL
REMARK 923 INTER-LIGAND FREE ENERGY PREDICTED BY IDOCK:   -8.31 KCAL/MOL
REMARK 924 INTRA-LIGAND FREE ENERGY PREDICTED BY IDOCK:   -1.50 KCAL/MOL
REMARK 927      BINDING AFFINITY PREDICTED BY RF-SCORE:    0.00 PKD
ROOT
HETATM    1  C   UNL     1     -11.634  15.877  64.487  1.00  0.00    -0.232 C  
HETATM    2  O   UNL     1     -10.825  15.719  65.648  1.00  0.00    -0.334 OA 
ENDROOT
BRANCH   2   3
HETATM    3  C   UNL     1     -11.165  14.688  66.491  1.00  0.00    -0.346 A  
HETATM    4  C   UNL     1     -11.102  14.687  67.894  1.00  0.00    -0.291 A  
HETATM    5  C   UNL     1     -11.869  12.357  66.526  1.00  0.00    -0.407 A  
HETATM    6  C   UNL     1     -11.437  13.514  68.593  1.00  0.00    -0.343 A  
HETATM    7  C   UNL     1     -11.828  12.345  67.925  1.00  0.00    -0.370 A  
HETATM    8  C   UNL     1     -11.534  13.517  65.819  1.00  0.00    -0.331 A  
BRANCH   4   9
HETATM    9  O   UNL     1     -10.658  15.824  68.515  1.00  0.00    -0.237 OA 
HETATM   10  C   UNL     1     -10.986  15.999  69.887  1.00  0.00    -0.353 C  
ENDBRANCH   4   9
BRANCH   7  11
HETATM   11  C   UNL     1     -12.018  11.052  68.718  1.00  0.00    -0.295 C  
BRANCH  11  12
HETATM   12  C   UNL     1     -11.561  11.332  70.155  1.00  0.00    -0.305 C  
BRANCH  12  13
HETATM   13  N   UNL     1     -11.954  10.501  71.298  1.00  0.00    -0.327 NA 
HETATM   14  C   UNL     1     -13.324  10.004  71.192  1.00  0.00    -0.305 C  
BRANCH  13  15
HETATM   15  C   UNL     1     -11.005   9.377  71.520  1.00  0.00    -0.359 C  
BRANCH  15  16
HETATM   16  C   UNL     1      -9.693   9.269  70.682  1.00  0.00    -0.334 C  
BRANCH  16  17
HETATM   17  C   UNL     1      -8.968   7.907  70.775  1.00  0.00    -0.141 C  
BRANCH  17  18
HETATM   18  C   UNL     1      -8.881   6.996  69.518  1.00  0.00    -0.133 C  
HETATM   19  N   UNL     1      -6.596   5.643  69.761  1.00  0.00    -0.048 NA 
HETATM   20  C   UNL     1     -10.047   5.894  69.523  1.00  0.00    -0.262 C  
HETATM   21  C   UNL     1      -7.591   6.230  69.639  1.00  0.00    -0.094 C  
HETATM   22  C   UNL     1     -11.488   6.424  69.448  1.00  0.00    -0.374 C  
HETATM   23  C   UNL     1     -10.001   4.965  70.756  1.00  0.00    -0.292 C  
BRANCH  18  24
HETATM   24  C   UNL     1      -8.903   7.905  68.284  1.00  0.00    -0.129 A  
HETATM   25  C   UNL     1      -7.847   8.788  67.999  1.00  0.00    -0.102 A  
HETATM   26  C   UNL     1      -7.940   9.752  66.991  1.00  0.00    -0.105 A  
HETATM   27  C   UNL     1     -10.053   7.989  67.480  1.00  0.00    -0.281 A  
HETATM   28  C   UNL     1      -9.109   9.821  66.215  1.00  0.00    -0.157 A  
HETATM   29  C   UNL     1     -10.143   8.920  66.451  1.00  0.00    -0.333 A  
BRANCH  26  30
HETATM   30  O   UNL     1      -6.960  10.673  66.722  1.00  0.00    -0.096 OA 
HETATM   31  C   UNL     1      -5.841  10.231  65.961  1.00  0.00    -0.083 C  
ENDBRANCH  26  30
BRANCH  28  32
HETATM   32  O   UNL     1      -9.167  10.819  65.272  1.00  0.00    -0.188 OA 
HETATM   33  C   UNL     1      -9.756  10.482  64.022  1.00  0.00    -0.323 C  
ENDBRANCH  28  32
ENDBRANCH  18  24
ENDBRANCH  17  18
ENDBRANCH  16  17
ENDBRANCH  15  16
ENDBRANCH  13  15
ENDBRANCH  12  13
ENDBRANCH  11  12
ENDBRANCH   7  11
ENDBRANCH   2   3
TORSDOF 12
ENDMDL
MODEL      159
REMARK 921   NORMALIZED FREE ENERGY PREDICTED BY IDOCK:   -4.46 KCAL/MOL
REMARK 922        TOTAL FREE ENERGY PREDICTED BY IDOCK:   -9.81 KCAL/MOL
REMARK 923 INTER-LIGAND FREE ENERGY PREDICTED BY IDOCK:   -8.23 KCAL/MOL
REMARK 924 INTRA-LIGAND FREE ENERGY PREDICTED BY IDOCK:   -1.58 KCAL/MOL
REMARK 927      BINDING AFFINITY PREDICTED BY RF-SCORE:    0.00 PKD
ROOT
HETATM    1  C   UNL     1     -11.090  15.328  66.139  1.00  0.00    -0.280 C  
HETATM    2  O   UNL     1     -12.044  14.278  66.009  1.00  0.00    -0.405 OA 
ENDROOT
BRANCH   2   3
HETATM    3  C   UNL     1     -11.548  12.997  66.041  1.00  0.00    -0.365 A  
HETATM    4  C   UNL     1     -11.328  12.203  67.179  1.00  0.00    -0.331 A  
HETATM    5  C   UNL     1     -10.602  11.244  64.641  1.00  0.00    -0.392 A  
HETATM    6  C   UNL     1     -10.756  10.929  67.023  1.00  0.00    -0.323 A  
HETATM    7  C   UNL     1     -10.393  10.433  65.763  1.00  0.00    -0.257 A  
HETATM    8  C   UNL     1     -11.167  12.515  64.783  1.00  0.00    -0.344 A  
BRANCH   4   9
HETATM    9  O   UNL     1     -11.637  12.738  68.401  1.00  0.00    -0.281 OA 
HETATM   10  C   UNL     1     -11.935  11.840  69.460  1.00  0.00    -0.300 C  
ENDBRANCH   4   9
BRANCH   7  11
HETATM   11  C   UNL     1      -9.622   9.117  65.664  1.00  0.00    -0.287 C  
BRANCH  11  12
HETATM   12  C   UNL     1     -10.223   8.162  66.704  1.00  0.00    -0.259 C  
BRANCH  12  13
HETATM   13  N   UNL     1      -9.702   6.814  66.951  1.00  0.00    -0.160 NA 
HETATM   14  C   UNL     1      -8.405   6.823  67.625  1.00  0.00    -0.123 C  
BRANCH  13  15
HETATM   15  C   UNL     1     -10.673   5.970  67.697  1.00  0.00    -0.296 C  
BRANCH  15  16
HETATM   16  C   UNL     1     -10.441   5.640  69.206  1.00  0.00    -0.356 C  
BRANCH  16  17
HETATM   17  C   UNL     1     -11.394   6.361  70.186  1.00  0.00    -0.485 C  
BRANCH  17  18
HETATM   18  C   UNL     1     -10.812   7.063  71.445  1.00  0.00    -0.253 C  
HETATM   19  N   UNL     1     -12.803   8.531  72.441  1.00  0.00    -0.349 NA 
HETATM   20  C   UNL     1     -10.443   5.995  72.582  1.00  0.00    -0.233 C  
HETATM   21  C   UNL     1     -11.925   7.901  72.014  1.00  0.00    -0.319 C  
HETATM   22  C   UNL     1      -9.343   4.978  72.233  1.00  0.00    -0.161 C  
HETATM   23  C   UNL     1     -11.655   5.162  73.053  1.00  0.00    -0.301 C  
BRANCH  18  24
HETATM   24  C   UNL     1      -9.619   7.913  70.992  1.00  0.00    -0.177 A  
HETATM   25  C   UNL     1      -8.334   7.728  71.530  1.00  0.00    -0.119 A  
HETATM   26  C   UNL     1      -7.287   8.616  71.267  1.00  0.00    -0.096 A  
HETATM   27  C   UNL     1      -9.809   9.008  70.129  1.00  0.00    -0.213 A  
HETATM   28  C   UNL     1      -7.514   9.709  70.414  1.00  0.00    -0.158 A  
HETATM   29  C   UNL     1      -8.766   9.877  69.833  1.00  0.00    -0.225 A  
BRANCH  26  30
HETATM   30  O   UNL     1      -6.037   8.508  71.821  1.00  0.00    -0.047 OA 
HETATM   31  C   UNL     1      -5.943   8.599  73.239  1.00  0.00    -0.098 C  
ENDBRANCH  26  30
BRANCH  28  32
HETATM   32  O   UNL     1      -6.464  10.577  70.230  1.00  0.00    -0.126 OA 
HETATM   33  C   UNL     1      -6.704  11.699  69.389  1.00  0.00    -0.110 C  
ENDBRANCH  28  32
ENDBRANCH  18  24
ENDBRANCH  17  18
ENDBRANCH  16  17
ENDBRANCH  15  16
ENDBRANCH  13  15
ENDBRANCH  12  13
ENDBRANCH  11  12
ENDBRANCH   7  11
ENDBRANCH   2   3
TORSDOF 12
ENDMDL
MODEL      160
REMARK 921   NORMALIZED FREE ENERGY PREDICTED BY IDOCK:   -4.46 KCAL/MOL
REMARK 922        TOTAL FREE ENERGY PREDICTED BY IDOCK:   -9.81 KCAL/MOL
REMARK 923 INTER-LIGAND FREE ENERGY PREDICTED BY IDOCK:   -7.58 KCAL/MOL
REMARK 924 INTRA-LIGAND FREE ENERGY PREDICTED BY IDOCK:   -2.23 KCAL/MOL
REMARK 927      BINDING AFFINITY PREDICTED BY RF-SCORE:    0.00 PKD
ROOT
HETATM    1  C   UNL     1     -10.438   4.212  74.522  1.00  0.00    -0.226 C  
HETATM    2  O   UNL     1     -10.734   3.780  73.198  1.00  0.00    -0.173 OA 
ENDROOT
BRANCH   2   3
HETATM    3  C   UNL     1     -10.044   4.403  72.186  1.00  0.00    -0.195 A  
HETATM    4  C   UNL     1     -10.413   5.578  71.511  1.00  0.00    -0.235 A  
HETATM    5  C   UNL     1      -8.106   4.179  70.729  1.00  0.00    -0.063 A  
HETATM    6  C   UNL     1      -9.608   6.042  70.455  1.00  0.00    -0.198 A  
HETATM    7  C   UNL     1      -8.450   5.358  70.057  1.00  0.00    -0.111 A  
HETATM    8  C   UNL     1      -8.901   3.706  71.778  1.00  0.00    -0.138 A  
BRANCH   4   9
HETATM    9  O   UNL     1     -11.580   6.190  71.882  1.00  0.00    -0.301 OA 
HETATM   10  C   UNL     1     -11.498   7.269  72.804  1.00  0.00    -0.230 C  
ENDBRANCH   4   9
BRANCH   7  11
HETATM   11  C   UNL     1      -7.705   5.807  68.800  1.00  0.00    -0.090 C  
BRANCH  11  12
HETATM   12  C   UNL     1      -8.393   5.137  67.604  1.00  0.00    -0.105 C  
BRANCH  12  13
HETATM   13  N   UNL     1      -8.997   5.891  66.500  1.00  0.00    -0.127 NA 
HETATM   14  C   UNL     1      -8.911   5.188  65.222  1.00  0.00    -0.152 C  
BRANCH  13  15
HETATM   15  C   UNL     1     -10.404   6.274  66.793  1.00  0.00    -0.221 C  
BRANCH  15  16
HETATM   16  C   UNL     1     -10.758   7.738  67.205  1.00  0.00    -0.337 C  
BRANCH  16  17
HETATM   17  C   UNL     1      -9.628   8.770  66.983  1.00  0.00    -0.236 C  
BRANCH  17  18
HETATM   18  C   UNL     1      -9.578  10.053  67.858  1.00  0.00    -0.163 C  
HETATM   19  N   UNL     1     -10.768   9.410  70.156  1.00  0.00    -0.228 NA 
HETATM   20  C   UNL     1      -8.067  10.434  68.237  1.00  0.00    -0.113 C  
HETATM   21  C   UNL     1     -10.252   9.706  69.158  1.00  0.00    -0.202 C  
HETATM   22  C   UNL     1      -7.140  10.797  67.066  1.00  0.00    -0.104 C  
HETATM   23  C   UNL     1      -7.339   9.324  69.026  1.00  0.00    -0.072 C  
BRANCH  18  24
HETATM   24  C   UNL     1     -10.318  11.161  67.099  1.00  0.00    -0.249 A  
HETATM   25  C   UNL     1     -10.887  12.260  67.766  1.00  0.00    -0.256 A  
HETATM   26  C   UNL     1     -11.722  13.171  67.112  1.00  0.00    -0.377 A  
HETATM   27  C   UNL     1     -10.577  11.033  65.723  1.00  0.00    -0.260 A  
HETATM   28  C   UNL     1     -11.974  13.005  65.740  1.00  0.00    -0.429 A  
HETATM   29  C   UNL     1     -11.377  11.953  65.054  1.00  0.00    -0.333 A  
BRANCH  26  30
HETATM   30  O   UNL     1     -12.348  14.218  67.738  1.00  0.00    -0.247 OA 
HETATM   31  C   UNL     1     -11.545  15.337  68.097  1.00  0.00    -0.330 C  
ENDBRANCH  26  30
BRANCH  28  32
HETATM   32  O   UNL     1     -12.841  13.899  65.159  1.00  0.00    -0.695 OA 
HETATM   33  C   UNL     1     -12.284  14.810  64.218  1.00  0.00    -0.379 C  
ENDBRANCH  28  32
ENDBRANCH  18  24
ENDBRANCH  17  18
ENDBRANCH  16  17
ENDBRANCH  15  16
ENDBRANCH  13  15
ENDBRANCH  12  13
ENDBRANCH  11  12
ENDBRANCH   7  11
ENDBRANCH   2   3
TORSDOF 12
ENDMDL
MODEL      161
REMARK 921   NORMALIZED FREE ENERGY PREDICTED BY IDOCK:   -4.42 KCAL/MOL
REMARK 922        TOTAL FREE ENERGY PREDICTED BY IDOCK:   -9.75 KCAL/MOL
REMARK 923 INTER-LIGAND FREE ENERGY PREDICTED BY IDOCK:   -8.80 KCAL/MOL
REMARK 924 INTRA-LIGAND FREE ENERGY PREDICTED BY IDOCK:   -0.95 KCAL/MOL
REMARK 927      BINDING AFFINITY PREDICTED BY RF-SCORE:    0.00 PKD
ROOT
HETATM    1  C   UNL     1      -7.506  19.062  66.098  1.00  0.00    -0.270 C  
HETATM    2  O   UNL     1      -7.400  17.809  66.768  1.00  0.00    -0.181 OA 
ENDROOT
BRANCH   2   3
HETATM    3  C   UNL     1      -8.573  17.116  66.950  1.00  0.00    -0.232 A  
HETATM    4  C   UNL     1      -9.566  17.371  67.909  1.00  0.00    -0.267 A  
HETATM    5  C   UNL     1      -9.812  15.161  66.194  1.00  0.00    -0.325 A  
HETATM    6  C   UNL     1     -10.680  16.516  67.986  1.00  0.00    -0.343 A  
HETATM    7  C   UNL     1     -10.820  15.412  67.133  1.00  0.00    -0.321 A  
HETATM    8  C   UNL     1      -8.698  16.003  66.111  1.00  0.00    -0.348 A  
BRANCH   4   9
HETATM    9  O   UNL     1      -9.372  18.421  68.767  1.00  0.00    -0.326 OA 
HETATM   10  C   UNL     1     -10.112  19.611  68.535  1.00  0.00    -0.453 C  
ENDBRANCH   4   9
BRANCH   7  11
HETATM   11  C   UNL     1     -11.958  14.419  67.366  1.00  0.00    -0.407 C  
BRANCH  11  12
HETATM   12  C   UNL     1     -11.379  13.013  67.165  1.00  0.00    -0.305 C  
BRANCH  12  13
HETATM   13  N   UNL     1     -11.849  12.093  66.124  1.00  0.00    -0.582 NA 
HETATM   14  C   UNL     1     -12.459  12.786  64.991  1.00  0.00    -0.506 C  
BRANCH  13  15
HETATM   15  C   UNL     1     -10.770  11.180  65.660  1.00  0.00    -0.185 C  
BRANCH  15  16
HETATM   16  C   UNL     1     -10.393   9.912  66.490  1.00  0.00    -0.259 C  
BRANCH  16  17
HETATM   17  C   UNL     1      -8.876   9.641  66.615  1.00  0.00    -0.153 C  
BRANCH  17  18
HETATM   18  C   UNL     1      -8.218   9.595  68.023  1.00  0.00    -0.110 C  
HETATM   19  N   UNL     1      -6.430   7.619  67.921  1.00  0.00    -0.053 NA 
HETATM   20  C   UNL     1      -7.380  10.931  68.311  1.00  0.00    -0.087 C  
HETATM   21  C   UNL     1      -7.210   8.479  67.981  1.00  0.00    -0.087 C  
HETATM   22  C   UNL     1      -8.182  12.242  68.365  1.00  0.00    -0.146 C  
HETATM   23  C   UNL     1      -6.245  11.170  67.292  1.00  0.00    -0.073 C  
BRANCH  18  24
HETATM   24  C   UNL     1      -9.330   9.335  69.046  1.00  0.00    -0.151 A  
HETATM   25  C   UNL     1      -9.809   8.039  69.302  1.00  0.00    -0.178 A  
HETATM   26  C   UNL     1     -10.945   7.811  70.086  1.00  0.00    -0.241 A  
HETATM   27  C   UNL     1     -10.007  10.409  69.651  1.00  0.00    -0.209 A  
HETATM   28  C   UNL     1     -11.608   8.907  70.664  1.00  0.00    -0.215 A  
HETATM   29  C   UNL     1     -11.116  10.192  70.462  1.00  0.00    -0.400 A  
BRANCH  26  30
HETATM   30  O   UNL     1     -11.483   6.570  70.308  1.00  0.00    -0.359 OA 
HETATM   31  C   UNL     1     -10.649   5.602  70.936  1.00  0.00    -0.258 C  
ENDBRANCH  26  30
BRANCH  28  32
HETATM   32  O   UNL     1     -12.747   8.630  71.382  1.00  0.00    -0.312 OA 
HETATM   33  C   UNL     1     -13.312   9.706  72.122  1.00  0.00    -0.454 C  
ENDBRANCH  28  32
ENDBRANCH  18  24
ENDBRANCH  17  18
ENDBRANCH  16  17
ENDBRANCH  15  16
ENDBRANCH  13  15
ENDBRANCH  12  13
ENDBRANCH  11  12
ENDBRANCH   7  11
ENDBRANCH   2   3
TORSDOF 12
ENDMDL
MODEL      162
REMARK 921   NORMALIZED FREE ENERGY PREDICTED BY IDOCK:   -4.41 KCAL/MOL
REMARK 922        TOTAL FREE ENERGY PREDICTED BY IDOCK:   -9.72 KCAL/MOL
REMARK 923 INTER-LIGAND FREE ENERGY PREDICTED BY IDOCK:   -8.95 KCAL/MOL
REMARK 924 INTRA-LIGAND FREE ENERGY PREDICTED BY IDOCK:   -0.77 KCAL/MOL
REMARK 927      BINDING AFFINITY PREDICTED BY RF-SCORE:    0.00 PKD
ROOT
HETATM    1  C   UNL     1      -8.533   3.743  68.519  1.00  0.00    -0.087 C  
HETATM    2  O   UNL     1      -9.414   3.273  69.535  1.00  0.00    -0.164 OA 
ENDROOT
BRANCH   2   3
HETATM    3  C   UNL     1      -9.806   4.196  70.474  1.00  0.00    -0.182 A  
HETATM    4  C   UNL     1      -9.992   3.977  71.849  1.00  0.00    -0.176 A  
HETATM    5  C   UNL     1     -10.569   6.493  70.742  1.00  0.00    -0.278 A  
HETATM    6  C   UNL     1     -10.456   5.032  72.653  1.00  0.00    -0.262 A  
HETATM    7  C   UNL     1     -10.743   6.296  72.117  1.00  0.00    -0.269 A  
HETATM    8  C   UNL     1     -10.112   5.449  69.931  1.00  0.00    -0.322 A  
BRANCH   4   9
HETATM    9  O   UNL     1      -9.762   2.716  72.333  1.00  0.00    -0.115 OA 
HETATM   10  C   UNL     1     -10.751   2.140  73.175  1.00  0.00    -0.162 C  
ENDBRANCH   4   9
BRANCH   7  11
HETATM   11  C   UNL     1     -11.402   7.356  72.998  1.00  0.00    -0.283 C  
BRANCH  11  12
HETATM   12  C   UNL     1     -11.400   8.668  72.204  1.00  0.00    -0.364 C  
BRANCH  12  13
HETATM   13  N   UNL     1     -12.571   9.167  71.474  1.00  0.00    -0.328 NA 
HETATM   14  C   UNL     1     -13.808   9.052  72.245  1.00  0.00    -0.484 C  
BRANCH  13  15
HETATM   15  C   UNL     1     -12.378  10.563  71.000  1.00  0.00    -0.399 C  
BRANCH  15  16
HETATM   16  C   UNL     1     -11.689  10.846  69.627  1.00  0.00    -0.403 C  
BRANCH  16  17
HETATM   17  C   UNL     1     -10.190  10.477  69.561  1.00  0.00    -0.230 C  
BRANCH  17  18
HETATM   18  C   UNL     1      -9.403  10.697  68.238  1.00  0.00    -0.156 C  
HETATM   19  N   UNL     1      -7.023  11.657  68.963  1.00  0.00    -0.106 NA 
HETATM   20  C   UNL     1      -9.109   9.302  67.504  1.00  0.00    -0.133 C  
HETATM   21  C   UNL     1      -8.058  11.245  68.633  1.00  0.00    -0.145 C  
HETATM   22  C   UNL     1     -10.337   8.508  67.029  1.00  0.00    -0.379 C  
HETATM   23  C   UNL     1      -8.279   8.324  68.363  1.00  0.00    -0.132 C  
BRANCH  18  24
HETATM   24  C   UNL     1     -10.203  11.684  67.382  1.00  0.00    -0.226 A  
HETATM   25  C   UNL     1     -10.503  12.981  67.835  1.00  0.00    -0.234 A  
HETATM   26  C   UNL     1     -11.389  13.818  67.149  1.00  0.00    -0.324 A  
HETATM   27  C   UNL     1     -10.791  11.268  66.174  1.00  0.00    -0.281 A  
HETATM   28  C   UNL     1     -11.971  13.366  65.953  1.00  0.00    -0.409 A  
HETATM   29  C   UNL     1     -11.645  12.105  65.465  1.00  0.00    -0.398 A  
BRANCH  26  30
HETATM   30  O   UNL     1     -11.758  15.064  67.589  1.00  0.00    -0.342 OA 
HETATM   31  C   UNL     1     -11.806  15.269  68.997  1.00  0.00    -0.318 C  
ENDBRANCH  26  30
BRANCH  28  32
HETATM   32  O   UNL     1     -12.871  14.209  65.348  1.00  0.00    -0.637 OA 
HETATM   33  C   UNL     1     -12.367  15.045  64.312  1.00  0.00    -0.226 C  
ENDBRANCH  28  32
ENDBRANCH  18  24
ENDBRANCH  17  18
ENDBRANCH  16  17
ENDBRANCH  15  16
ENDBRANCH  13  15
ENDBRANCH  12  13
ENDBRANCH  11  12
ENDBRANCH   7  11
ENDBRANCH   2   3
TORSDOF 12
ENDMDL
MODEL      163
REMARK 921   NORMALIZED FREE ENERGY PREDICTED BY IDOCK:   -4.39 KCAL/MOL
REMARK 922        TOTAL FREE ENERGY PREDICTED BY IDOCK:   -9.70 KCAL/MOL
REMARK 923 INTER-LIGAND FREE ENERGY PREDICTED BY IDOCK:   -7.91 KCAL/MOL
REMARK 924 INTRA-LIGAND FREE ENERGY PREDICTED BY IDOCK:   -1.79 KCAL/MOL
REMARK 927      BINDING AFFINITY PREDICTED BY RF-SCORE:    0.00 PKD
ROOT
HETATM    1  C   UNL     1      -7.616  19.397  68.948  1.00  0.00    -0.363 C  
HETATM    2  O   UNL     1      -7.448  19.173  67.552  1.00  0.00    -0.229 OA 
ENDROOT
BRANCH   2   3
HETATM    3  C   UNL     1      -8.311  18.274  66.972  1.00  0.00    -0.248 A  
HETATM    4  C   UNL     1      -8.058  16.923  66.685  1.00  0.00    -0.263 A  
HETATM    5  C   UNL     1     -10.505  18.078  65.934  1.00  0.00    -0.268 A  
HETATM    6  C   UNL     1      -9.046  16.165  66.032  1.00  0.00    -0.354 A  
HETATM    7  C   UNL     1     -10.275  16.725  65.656  1.00  0.00    -0.258 A  
HETATM    8  C   UNL     1      -9.528  18.843  66.579  1.00  0.00    -0.361 A  
BRANCH   4   9
HETATM    9  O   UNL     1      -6.826  16.419  67.010  1.00  0.00    -0.184 OA 
HETATM   10  C   UNL     1      -6.780  15.274  67.850  1.00  0.00    -0.151 C  
ENDBRANCH   4   9
BRANCH   7  11
HETATM   11  C   UNL     1     -11.246  15.910  64.802  1.00  0.00    -0.364 C  
BRANCH  11  12
HETATM   12  C   UNL     1     -10.774  14.451  64.850  1.00  0.00    -0.426 C  
BRANCH  12  13
HETATM   13  N   UNL     1     -11.478  13.357  64.173  1.00  0.00    -0.389 NA 
HETATM   14  C   UNL     1     -10.567  12.405  63.540  1.00  0.00    -0.413 C  
BRANCH  13  15
HETATM   15  C   UNL     1     -12.420  12.654  65.084  1.00  0.00    -0.463 C  
BRANCH  15  16
HETATM   16  C   UNL     1     -12.157  12.616  66.622  1.00  0.00    -0.267 C  
BRANCH  16  17
HETATM   17  C   UNL     1     -11.277  11.441  67.106  1.00  0.00    -0.363 C  
BRANCH  17  18
HETATM   18  C   UNL     1     -10.249  11.670  68.249  1.00  0.00    -0.206 C  
HETATM   19  N   UNL     1     -10.359  14.275  68.810  1.00  0.00    -0.241 NA 
HETATM   20  C   UNL     1     -10.699  10.913  69.589  1.00  0.00    -0.232 C  
HETATM   21  C   UNL     1     -10.297  13.139  68.572  1.00  0.00    -0.238 C  
HETATM   22  C   UNL     1     -10.774   9.379  69.515  1.00  0.00    -0.238 C  
HETATM   23  C   UNL     1     -12.073  11.378  70.120  1.00  0.00    -0.439 C  
BRANCH  18  24
HETATM   24  C   UNL     1      -8.874  11.233  67.731  1.00  0.00    -0.141 A  
HETATM   25  C   UNL     1      -8.722  10.603  66.484  1.00  0.00    -0.151 A  
HETATM   26  C   UNL     1      -7.509  10.032  66.086  1.00  0.00    -0.109 A  
HETATM   27  C   UNL     1      -7.740  11.317  68.558  1.00  0.00    -0.131 A  
HETATM   28  C   UNL     1      -6.398  10.119  66.943  1.00  0.00    -0.069 A  
HETATM   29  C   UNL     1      -6.520  10.785  68.158  1.00  0.00    -0.058 A  
BRANCH  26  30
HETATM   30  O   UNL     1      -7.334   9.353  64.908  1.00  0.00    -0.100 OA 
HETATM   31  C   UNL     1      -6.812  10.087  63.805  1.00  0.00    -0.126 C  
ENDBRANCH  26  30
BRANCH  28  32
HETATM   32  O   UNL     1      -5.246   9.498  66.525  1.00  0.00    -0.042 OA 
HETATM   33  C   UNL     1      -5.182   8.087  66.700  1.00  0.00    -0.028 C  
ENDBRANCH  28  32
ENDBRANCH  18  24
ENDBRANCH  17  18
ENDBRANCH  16  17
ENDBRANCH  15  16
ENDBRANCH  13  15
ENDBRANCH  12  13
ENDBRANCH  11  12
ENDBRANCH   7  11
ENDBRANCH   2   3
TORSDOF 12
ENDMDL
MODEL      164
REMARK 921   NORMALIZED FREE ENERGY PREDICTED BY IDOCK:   -4.38 KCAL/MOL
REMARK 922        TOTAL FREE ENERGY PREDICTED BY IDOCK:   -9.67 KCAL/MOL
REMARK 923 INTER-LIGAND FREE ENERGY PREDICTED BY IDOCK:   -7.97 KCAL/MOL
REMARK 924 INTRA-LIGAND FREE ENERGY PREDICTED BY IDOCK:   -1.70 KCAL/MOL
REMARK 927      BINDING AFFINITY PREDICTED BY RF-SCORE:    0.00 PKD
ROOT
HETATM    1  C   UNL     1     -11.984  15.484  69.522  1.00  0.00    -0.350 C  
HETATM    2  O   UNL     1     -11.648  15.770  68.168  1.00  0.00    -0.344 OA 
ENDROOT
BRANCH   2   3
HETATM    3  C   UNL     1     -11.188  14.713  67.419  1.00  0.00    -0.342 A  
HETATM    4  C   UNL     1      -9.851  14.420  67.103  1.00  0.00    -0.254 A  
HETATM    5  C   UNL     1     -11.917  12.832  66.057  1.00  0.00    -0.491 A  
HETATM    6  C   UNL     1      -9.570  13.322  66.271  1.00  0.00    -0.244 A  
HETATM    7  C   UNL     1     -10.590  12.516  65.746  1.00  0.00    -0.299 A  
HETATM    8  C   UNL     1     -12.210  13.924  66.880  1.00  0.00    -0.415 A  
BRANCH   4   9
HETATM    9  O   UNL     1      -8.881  15.261  67.581  1.00  0.00    -0.169 OA 
HETATM   10  C   UNL     1      -8.164  16.046  66.640  1.00  0.00    -0.289 C  
ENDBRANCH   4   9
BRANCH   7  11
HETATM   11  C   UNL     1     -10.245  11.441  64.715  1.00  0.00    -0.338 C  
BRANCH  11  12
HETATM   12  C   UNL     1      -8.961  10.752  65.193  1.00  0.00    -0.198 C  
BRANCH  12  13
HETATM   13  N   UNL     1      -8.160   9.868  64.340  1.00  0.00    -0.149 NA 
HETATM   14  C   UNL     1      -6.772  10.309  64.215  1.00  0.00    -0.062 C  
BRANCH  13  15
HETATM   15  C   UNL     1      -8.220   8.452  64.794  1.00  0.00    -0.160 C  
BRANCH  15  16
HETATM   16  C   UNL     1      -9.173   8.032  65.957  1.00  0.00    -0.179 C  
BRANCH  16  17
HETATM   17  C   UNL     1      -8.477   7.786  67.315  1.00  0.00    -0.118 C  
BRANCH  17  18
HETATM   18  C   UNL     1      -8.978   6.640  68.238  1.00  0.00    -0.122 C  
HETATM   19  N   UNL     1     -10.416   5.027  66.675  1.00  0.00    -0.269 NA 
HETATM   20  C   UNL     1      -7.754   5.755  68.775  1.00  0.00    -0.090 C  
HETATM   21  C   UNL     1      -9.797   5.724  67.369  1.00  0.00    -0.138 C  
HETATM   22  C   UNL     1      -6.730   6.474  69.668  1.00  0.00    -0.050 C  
HETATM   23  C   UNL     1      -6.937   5.094  67.643  1.00  0.00    -0.065 C  
BRANCH  18  24
HETATM   24  C   UNL     1      -9.811   7.277  69.356  1.00  0.00    -0.163 A  
HETATM   25  C   UNL     1     -10.589   6.500  70.232  1.00  0.00    -0.278 A  
HETATM   26  C   UNL     1     -11.495   7.077  71.127  1.00  0.00    -0.294 A  
HETATM   27  C   UNL     1      -9.937   8.675  69.444  1.00  0.00    -0.197 A  
HETATM   28  C   UNL     1     -11.609   8.476  71.179  1.00  0.00    -0.281 A  
HETATM   29  C   UNL     1     -10.809   9.261  70.355  1.00  0.00    -0.302 A  
BRANCH  26  30
HETATM   30  O   UNL     1     -12.318   6.354  71.952  1.00  0.00    -0.345 OA 
HETATM   31  C   UNL     1     -11.698   5.461  72.871  1.00  0.00    -0.162 C  
ENDBRANCH  26  30
BRANCH  28  32
HETATM   32  O   UNL     1     -12.550   8.987  72.040  1.00  0.00    -0.345 OA 
HETATM   33  C   UNL     1     -13.041  10.291  71.749  1.00  0.00    -0.465 C  
ENDBRANCH  28  32
ENDBRANCH  18  24
ENDBRANCH  17  18
ENDBRANCH  16  17
ENDBRANCH  15  16
ENDBRANCH  13  15
ENDBRANCH  12  13
ENDBRANCH  11  12
ENDBRANCH   7  11
ENDBRANCH   2   3
TORSDOF 12
ENDMDL
MODEL      165
REMARK 921   NORMALIZED FREE ENERGY PREDICTED BY IDOCK:   -4.38 KCAL/MOL
REMARK 922        TOTAL FREE ENERGY PREDICTED BY IDOCK:   -9.67 KCAL/MOL
REMARK 923 INTER-LIGAND FREE ENERGY PREDICTED BY IDOCK:   -7.85 KCAL/MOL
REMARK 924 INTRA-LIGAND FREE ENERGY PREDICTED BY IDOCK:   -1.82 KCAL/MOL
REMARK 927      BINDING AFFINITY PREDICTED BY RF-SCORE:    0.00 PKD
ROOT
HETATM    1  C   UNL     1      -9.044   4.833  65.711  1.00  0.00    -0.142 C  
HETATM    2  O   UNL     1      -8.051   4.472  66.665  1.00  0.00    -0.102 OA 
ENDROOT
BRANCH   2   3
HETATM    3  C   UNL     1      -8.025   5.208  67.825  1.00  0.00    -0.095 A  
HETATM    4  C   UNL     1      -8.631   4.880  69.049  1.00  0.00    -0.084 A  
HETATM    5  C   UNL     1      -7.296   7.335  68.761  1.00  0.00    -0.096 A  
HETATM    6  C   UNL     1      -8.547   5.789  70.119  1.00  0.00    -0.128 A  
HETATM    7  C   UNL     1      -7.880   7.015  69.993  1.00  0.00    -0.113 A  
HETATM    8  C   UNL     1      -7.376   6.441  67.688  1.00  0.00    -0.088 A  
BRANCH   4   9
HETATM    9  O   UNL     1      -9.327   3.703  69.124  1.00  0.00    -0.151 OA 
HETATM   10  C   UNL     1      -8.637   2.555  69.598  1.00  0.00    -0.064 C  
ENDBRANCH   4   9
BRANCH   7  11
HETATM   11  C   UNL     1      -7.961   8.037  71.127  1.00  0.00    -0.095 C  
BRANCH  11  12
HETATM   12  C   UNL     1      -9.030   9.064  70.733  1.00  0.00    -0.236 C  
BRANCH  12  13
HETATM   13  N   UNL     1     -10.431   8.709  70.485  1.00  0.00    -0.200 NA 
HETATM   14  C   UNL     1     -11.365   9.492  71.292  1.00  0.00    -0.376 C  
BRANCH  13  15
HETATM   15  C   UNL     1     -10.781   8.800  69.042  1.00  0.00    -0.112 C  
BRANCH  15  16
HETATM   16  C   UNL     1     -10.048   9.817  68.112  1.00  0.00    -0.193 C  
BRANCH  16  17
HETATM   17  C   UNL     1     -10.975  10.791  67.349  1.00  0.00    -0.361 C  
BRANCH  17  18
HETATM   18  C   UNL     1     -10.484  12.231  67.034  1.00  0.00    -0.237 C  
HETATM   19  N   UNL     1      -7.832  12.168  67.305  1.00  0.00    -0.169 NA 
HETATM   20  C   UNL     1     -10.760  12.613  65.501  1.00  0.00    -0.303 C  
HETATM   21  C   UNL     1      -8.987  12.212  67.190  1.00  0.00    -0.189 C  
HETATM   22  C   UNL     1     -12.233  12.663  65.064  1.00  0.00    -0.535 C  
HETATM   23  C   UNL     1     -10.054  11.669  64.503  1.00  0.00    -0.321 C  
BRANCH  18  24
HETATM   24  C   UNL     1     -11.159  13.179  68.032  1.00  0.00    -0.290 A  
HETATM   25  C   UNL     1     -11.042  14.575  67.919  1.00  0.00    -0.290 A  
HETATM   26  C   UNL     1     -11.489  15.439  68.924  1.00  0.00    -0.342 A  
HETATM   27  C   UNL     1     -11.793  12.673  69.181  1.00  0.00    -0.349 A  
HETATM   28  C   UNL     1     -12.104  14.900  70.066  1.00  0.00    -0.338 A  
HETATM   29  C   UNL     1     -12.274  13.524  70.169  1.00  0.00    -0.400 A  
BRANCH  26  30
HETATM   30  O   UNL     1     -11.337  16.802  68.883  1.00  0.00    -0.203 OA 
HETATM   31  C   UNL     1     -10.040  17.304  68.579  1.00  0.00    -0.341 C  
ENDBRANCH  26  30
BRANCH  28  32
HETATM   32  O   UNL     1     -12.479  15.791  71.044  1.00  0.00    -0.428 OA 
HETATM   33  C   UNL     1     -11.668  15.834  72.212  1.00  0.00    -0.478 C  
ENDBRANCH  28  32
ENDBRANCH  18  24
ENDBRANCH  17  18
ENDBRANCH  16  17
ENDBRANCH  15  16
ENDBRANCH  13  15
ENDBRANCH  12  13
ENDBRANCH  11  12
ENDBRANCH   7  11
ENDBRANCH   2   3
TORSDOF 12
ENDMDL
MODEL      166
REMARK 921   NORMALIZED FREE ENERGY PREDICTED BY IDOCK:   -4.37 KCAL/MOL
REMARK 922        TOTAL FREE ENERGY PREDICTED BY IDOCK:   -9.66 KCAL/MOL
REMARK 923 INTER-LIGAND FREE ENERGY PREDICTED BY IDOCK:   -7.66 KCAL/MOL
REMARK 924 INTRA-LIGAND FREE ENERGY PREDICTED BY IDOCK:   -2.00 KCAL/MOL
REMARK 927      BINDING AFFINITY PREDICTED BY RF-SCORE:    0.00 PKD
ROOT
HETATM    1  C   UNL     1     -11.619   7.112  70.607  1.00  0.00    -0.314 C  
HETATM    2  O   UNL     1     -11.226   5.931  69.915  1.00  0.00    -0.378 OA 
ENDROOT
BRANCH   2   3
HETATM    3  C   UNL     1     -10.485   6.114  68.772  1.00  0.00    -0.243 A  
HETATM    4  C   UNL     1      -9.356   5.382  68.370  1.00  0.00    -0.114 A  
HETATM    5  C   UNL     1     -10.232   7.563  66.832  1.00  0.00    -0.359 A  
HETATM    6  C   UNL     1      -8.687   5.751  67.189  1.00  0.00    -0.108 A  
HETATM    7  C   UNL     1      -9.115   6.833  66.407  1.00  0.00    -0.175 A  
HETATM    8  C   UNL     1     -10.904   7.208  68.006  1.00  0.00    -0.193 A  
BRANCH   4   9
HETATM    9  O   UNL     1      -8.926   4.369  69.185  1.00  0.00    -0.091 OA 
HETATM   10  C   UNL     1      -7.585   4.420  69.652  1.00  0.00    -0.054 C  
ENDBRANCH   4   9
BRANCH   7  11
HETATM   11  C   UNL     1      -8.259   7.297  65.230  1.00  0.00    -0.126 C  
BRANCH  11  12
HETATM   12  C   UNL     1      -8.057   8.810  65.386  1.00  0.00    -0.125 C  
BRANCH  12  13
HETATM   13  N   UNL     1      -8.341   9.772  64.316  1.00  0.00    -0.153 NA 
HETATM   14  C   UNL     1      -7.867   9.321  63.010  1.00  0.00    -0.134 C  
BRANCH  13  15
HETATM   15  C   UNL     1      -9.784  10.127  64.256  1.00  0.00    -0.258 C  
BRANCH  15  16
HETATM   16  C   UNL     1     -10.411  11.080  65.321  1.00  0.00    -0.316 C  
BRANCH  16  17
HETATM   17  C   UNL     1      -9.392  11.889  66.156  1.00  0.00    -0.228 C  
BRANCH  17  18
HETATM   18  C   UNL     1      -9.719  12.245  67.633  1.00  0.00    -0.194 C  
HETATM   19  N   UNL     1     -11.921  10.868  68.240  1.00  0.00    -0.542 NA 
HETATM   20  C   UNL     1      -8.577  11.706  68.622  1.00  0.00    -0.086 C  
HETATM   21  C   UNL     1     -10.965  11.478  67.987  1.00  0.00    -0.231 C  
HETATM   22  C   UNL     1      -7.175  12.309  68.440  1.00  0.00    -0.102 C  
HETATM   23  C   UNL     1      -8.391  10.174  68.559  1.00  0.00    -0.116 C  
BRANCH  18  24
HETATM   24  C   UNL     1      -9.929  13.761  67.709  1.00  0.00    -0.242 A  
HETATM   25  C   UNL     1     -10.703  14.349  68.725  1.00  0.00    -0.258 A  
HETATM   26  C   UNL     1     -11.058  15.701  68.696  1.00  0.00    -0.317 A  
HETATM   27  C   UNL     1      -9.476  14.597  66.673  1.00  0.00    -0.297 A  
HETATM   28  C   UNL     1     -10.602  16.506  67.638  1.00  0.00    -0.321 A  
HETATM   29  C   UNL     1      -9.793  15.951  66.653  1.00  0.00    -0.267 A  
BRANCH  26  30
HETATM   30  O   UNL     1     -11.862  16.300  69.631  1.00  0.00    -0.197 OA 
HETATM   31  C   UNL     1     -12.378  15.475  70.670  1.00  0.00    -0.416 C  
ENDBRANCH  26  30
BRANCH  28  32
HETATM   32  O   UNL     1     -11.022  17.815  67.633  1.00  0.00    -0.301 OA 
HETATM   33  C   UNL     1     -10.305  18.712  66.794  1.00  0.00    -0.407 C  
ENDBRANCH  28  32
ENDBRANCH  18  24
ENDBRANCH  17  18
ENDBRANCH  16  17
ENDBRANCH  15  16
ENDBRANCH  13  15
ENDBRANCH  12  13
ENDBRANCH  11  12
ENDBRANCH   7  11
ENDBRANCH   2   3
TORSDOF 12
ENDMDL
MODEL      167
REMARK 921   NORMALIZED FREE ENERGY PREDICTED BY IDOCK:   -4.37 KCAL/MOL
REMARK 922        TOTAL FREE ENERGY PREDICTED BY IDOCK:   -9.66 KCAL/MOL
REMARK 923 INTER-LIGAND FREE ENERGY PREDICTED BY IDOCK:   -7.19 KCAL/MOL
REMARK 924 INTRA-LIGAND FREE ENERGY PREDICTED BY IDOCK:   -2.46 KCAL/MOL
REMARK 927      BINDING AFFINITY PREDICTED BY RF-SCORE:    0.00 PKD
ROOT
HETATM    1  C   UNL     1     -11.633   2.324  73.420  1.00  0.00    -0.102 C  
HETATM    2  O   UNL     1     -10.268   2.487  73.790  1.00  0.00    -0.102 OA 
ENDROOT
BRANCH   2   3
HETATM    3  C   UNL     1      -9.774   3.769  73.745  1.00  0.00    -0.107 A  
HETATM    4  C   UNL     1      -8.444   4.155  73.515  1.00  0.00    -0.093 A  
HETATM    5  C   UNL     1     -10.387   6.101  74.085  1.00  0.00    -0.308 A  
HETATM    6  C   UNL     1      -8.109   5.520  73.563  1.00  0.00    -0.113 A  
HETATM    7  C   UNL     1      -9.069   6.504  73.841  1.00  0.00    -0.165 A  
HETATM    8  C   UNL     1     -10.731   4.745  74.043  1.00  0.00    -0.358 A  
BRANCH   4   9
HETATM    9  O   UNL     1      -7.518   3.168  73.307  1.00  0.00    -0.049 OA 
HETATM   10  C   UNL     1      -6.365   3.156  74.138  1.00  0.00    -0.024 C  
ENDBRANCH   4   9
BRANCH   7  11
HETATM   11  C   UNL     1      -8.626   7.952  74.048  1.00  0.00    -0.322 C  
BRANCH  11  12
HETATM   12  C   UNL     1      -7.111   7.999  73.810  1.00  0.00    -0.134 C  
BRANCH  12  13
HETATM   13  N   UNL     1      -6.482   8.867  72.810  1.00  0.00    -0.295 NA 
HETATM   14  C   UNL     1      -5.246   9.482  73.291  1.00  0.00    -0.056 C  
BRANCH  13  15
HETATM   15  C   UNL     1      -6.247   8.156  71.525  1.00  0.00    -0.038 C  
BRANCH  15  16
HETATM   16  C   UNL     1      -7.240   8.325  70.332  1.00  0.00    -0.044 C  
BRANCH  16  17
HETATM   17  C   UNL     1      -8.609   7.632  70.519  1.00  0.00    -0.137 C  
BRANCH  17  18
HETATM   18  C   UNL     1      -9.493   7.330  69.277  1.00  0.00    -0.153 C  
HETATM   19  N   UNL     1      -7.882   6.152  67.509  1.00  0.00    -0.101 NA 
HETATM   20  C   UNL     1     -10.628   6.251  69.625  1.00  0.00    -0.323 C  
HETATM   21  C   UNL     1      -8.594   6.669  68.267  1.00  0.00    -0.119 C  
HETATM   22  C   UNL     1     -11.668   6.669  70.677  1.00  0.00    -0.452 C  
HETATM   23  C   UNL     1     -10.056   4.900  70.107  1.00  0.00    -0.332 C  
BRANCH  18  24
HETATM   24  C   UNL     1     -10.052   8.665  68.770  1.00  0.00    -0.210 A  
HETATM   25  C   UNL     1     -10.773   9.530  69.611  1.00  0.00    -0.257 A  
HETATM   26  C   UNL     1     -11.448  10.651  69.117  1.00  0.00    -0.280 A  
HETATM   27  C   UNL     1      -9.986   8.994  67.405  1.00  0.00    -0.266 A  
HETATM   28  C   UNL     1     -11.375  10.943  67.745  1.00  0.00    -0.292 A  
HETATM   29  C   UNL     1     -10.623  10.126  66.908  1.00  0.00    -0.267 A  
BRANCH  26  30
HETATM   30  O   UNL     1     -12.214  11.484  69.892  1.00  0.00    -0.290 OA 
HETATM   31  C   UNL     1     -12.652  10.983  71.150  1.00  0.00    -0.418 C  
ENDBRANCH  26  30
BRANCH  28  32
HETATM   32  O   UNL     1     -12.096  12.028  67.306  1.00  0.00    -0.572 OA 
HETATM   33  C   UNL     1     -11.746  12.554  66.031  1.00  0.00    -0.417 C  
ENDBRANCH  28  32
ENDBRANCH  18  24
ENDBRANCH  17  18
ENDBRANCH  16  17
ENDBRANCH  15  16
ENDBRANCH  13  15
ENDBRANCH  12  13
ENDBRANCH  11  12
ENDBRANCH   7  11
ENDBRANCH   2   3
TORSDOF 12
ENDMDL
MODEL      168
REMARK 921   NORMALIZED FREE ENERGY PREDICTED BY IDOCK:   -4.37 KCAL/MOL
REMARK 922        TOTAL FREE ENERGY PREDICTED BY IDOCK:   -9.65 KCAL/MOL
REMARK 923 INTER-LIGAND FREE ENERGY PREDICTED BY IDOCK:   -6.87 KCAL/MOL
REMARK 924 INTRA-LIGAND FREE ENERGY PREDICTED BY IDOCK:   -2.78 KCAL/MOL
REMARK 927      BINDING AFFINITY PREDICTED BY RF-SCORE:    0.00 PKD
ROOT
HETATM    1  C   UNL     1      -9.625   7.757  66.665  1.00  0.00    -0.220 C  
HETATM    2  O   UNL     1      -8.271   7.797  66.228  1.00  0.00    -0.111 OA 
ENDROOT
BRANCH   2   3
HETATM    3  C   UNL     1      -7.498   8.815  66.732  1.00  0.00    -0.086 A  
HETATM    4  C   UNL     1      -6.659   8.763  67.857  1.00  0.00    -0.061 A  
HETATM    5  C   UNL     1      -6.987  11.181  66.467  1.00  0.00    -0.126 A  
HETATM    6  C   UNL     1      -5.985   9.928  68.263  1.00  0.00    -0.042 A  
HETATM    7  C   UNL     1      -6.133  11.141  67.576  1.00  0.00    -0.052 A  
HETATM    8  C   UNL     1      -7.666  10.029  66.056  1.00  0.00    -0.110 A  
BRANCH   4   9
HETATM    9  O   UNL     1      -6.582   7.580  68.543  1.00  0.00    -0.046 OA 
HETATM   10  C   UNL     1      -5.509   6.702  68.229  1.00  0.00    -0.012 C  
ENDBRANCH   4   9
BRANCH   7  11
HETATM   11  C   UNL     1      -5.515  12.414  68.153  1.00  0.00    -0.064 C  
BRANCH  11  12
HETATM   12  C   UNL     1      -6.339  13.596  67.625  1.00  0.00    -0.138 C  
BRANCH  12  13
HETATM   13  N   UNL     1      -6.537  14.837  68.381  1.00  0.00    -0.094 NA 
HETATM   14  C   UNL     1      -5.482  15.820  68.142  1.00  0.00    -0.117 C  
BRANCH  13  15
HETATM   15  C   UNL     1      -7.876  15.434  68.129  1.00  0.00    -0.124 C  
BRANCH  15  16
HETATM   16  C   UNL     1      -9.163  14.772  68.715  1.00  0.00    -0.196 C  
BRANCH  16  17
HETATM   17  C   UNL     1      -9.684  13.547  67.929  1.00  0.00    -0.225 C  
BRANCH  17  18
HETATM   18  C   UNL     1     -11.106  12.994  68.223  1.00  0.00    -0.293 C  
HETATM   19  N   UNL     1     -12.379  14.933  69.540  1.00  0.00    -0.217 NA 
HETATM   20  C   UNL     1     -11.930  12.772  66.865  1.00  0.00    -0.380 C  
HETATM   21  C   UNL     1     -11.834  14.077  68.972  1.00  0.00    -0.354 C  
HETATM   22  C   UNL     1     -11.366  11.729  65.887  1.00  0.00    -0.324 C  
HETATM   23  C   UNL     1     -12.112  14.067  66.044  1.00  0.00    -0.461 C  
BRANCH  18  24
HETATM   24  C   UNL     1     -10.945  11.719  69.058  1.00  0.00    -0.276 A  
HETATM   25  C   UNL     1     -11.871  11.367  70.055  1.00  0.00    -0.440 A  
HETATM   26  C   UNL     1     -11.635  10.316  70.947  1.00  0.00    -0.365 A  
HETATM   27  C   UNL     1      -9.780  10.938  68.950  1.00  0.00    -0.198 A  
HETATM   28  C   UNL     1     -10.454   9.565  70.822  1.00  0.00    -0.314 A  
HETATM   29  C   UNL     1      -9.552   9.868  69.808  1.00  0.00    -0.261 A  
BRANCH  26  30
HETATM   30  O   UNL     1     -12.481   9.981  71.973  1.00  0.00    -0.357 OA 
HETATM   31  C   UNL     1     -13.626   9.203  71.645  1.00  0.00    -0.390 C  
ENDBRANCH  26  30
BRANCH  28  32
HETATM   32  O   UNL     1     -10.250   8.577  71.755  1.00  0.00    -0.229 OA 
HETATM   33  C   UNL     1     -10.046   7.260  71.256  1.00  0.00    -0.189 C  
ENDBRANCH  28  32
ENDBRANCH  18  24
ENDBRANCH  17  18
ENDBRANCH  16  17
ENDBRANCH  15  16
ENDBRANCH  13  15
ENDBRANCH  12  13
ENDBRANCH  11  12
ENDBRANCH   7  11
ENDBRANCH   2   3
TORSDOF 12
ENDMDL
MODEL      169
REMARK 921   NORMALIZED FREE ENERGY PREDICTED BY IDOCK:   -4.37 KCAL/MOL
REMARK 922        TOTAL FREE ENERGY PREDICTED BY IDOCK:   -9.65 KCAL/MOL
REMARK 923 INTER-LIGAND FREE ENERGY PREDICTED BY IDOCK:   -7.92 KCAL/MOL
REMARK 924 INTRA-LIGAND FREE ENERGY PREDICTED BY IDOCK:   -1.73 KCAL/MOL
REMARK 927      BINDING AFFINITY PREDICTED BY RF-SCORE:    0.00 PKD
ROOT
HETATM    1  C   UNL     1      -6.950   2.353  73.496  1.00  0.00    -0.027 C  
HETATM    2  O   UNL     1      -8.236   1.939  73.043  1.00  0.00    -0.055 OA 
ENDROOT
BRANCH   2   3
HETATM    3  C   UNL     1      -8.993   2.893  72.407  1.00  0.00    -0.082 A  
HETATM    4  C   UNL     1      -8.964   3.223  71.042  1.00  0.00    -0.097 A  
HETATM    5  C   UNL     1     -10.608   4.672  72.798  1.00  0.00    -0.273 A  
HETATM    6  C   UNL     1      -9.774   4.274  70.575  1.00  0.00    -0.282 A  
HETATM    7  C   UNL     1     -10.604   5.003  71.438  1.00  0.00    -0.161 A  
HETATM    8  C   UNL     1      -9.804   3.632  73.276  1.00  0.00    -0.169 A  
BRANCH   4   9
HETATM    9  O   UNL     1      -8.099   2.534  70.235  1.00  0.00    -0.042 OA 
HETATM   10  C   UNL     1      -6.966   3.230  69.733  1.00  0.00    -0.041 C  
ENDBRANCH   4   9
BRANCH   7  11
HETATM   11  C   UNL     1     -11.335   6.239  70.915  1.00  0.00    -0.389 C  
BRANCH  11  12
HETATM   12  C   UNL     1     -11.789   7.046  72.138  1.00  0.00    -0.275 C  
BRANCH  12  13
HETATM   13  N   UNL     1     -11.177   8.320  72.532  1.00  0.00    -0.380 NA 
HETATM   14  C   UNL     1      -9.723   8.236  72.648  1.00  0.00    -0.287 C  
BRANCH  13  15
HETATM   15  C   UNL     1     -11.567   9.429  71.622  1.00  0.00    -0.396 C  
BRANCH  15  16
HETATM   16  C   UNL     1     -10.565   9.966  70.551  1.00  0.00    -0.359 C  
BRANCH  16  17
HETATM   17  C   UNL     1     -10.872   9.539  69.098  1.00  0.00    -0.194 C  
BRANCH  17  18
HETATM   18  C   UNL     1      -9.755   9.621  68.021  1.00  0.00    -0.167 C  
HETATM   19  N   UNL     1      -7.747  10.955  69.161  1.00  0.00    -0.138 NA 
HETATM   20  C   UNL     1      -9.176   8.164  67.679  1.00  0.00    -0.150 C  
HETATM   21  C   UNL     1      -8.616  10.377  68.650  1.00  0.00    -0.133 C  
HETATM   22  C   UNL     1     -10.164   7.166  67.054  1.00  0.00    -0.339 C  
HETATM   23  C   UNL     1      -8.568   7.447  68.904  1.00  0.00    -0.129 C  
BRANCH  18  24
HETATM   24  C   UNL     1     -10.335  10.351  66.805  1.00  0.00    -0.294 A  
HETATM   25  C   UNL     1      -9.892  10.078  65.499  1.00  0.00    -0.373 A  
HETATM   26  C   UNL     1     -10.272  10.866  64.408  1.00  0.00    -0.358 A  
HETATM   27  C   UNL     1     -11.227  11.425  66.976  1.00  0.00    -0.350 A  
HETATM   28  C   UNL     1     -11.152  11.942  64.615  1.00  0.00    -0.317 A  
HETATM   29  C   UNL     1     -11.641  12.193  65.893  1.00  0.00    -0.425 A  
BRANCH  26  30
HETATM   30  O   UNL     1      -9.813  10.674  63.130  1.00  0.00    -0.324 OA 
HETATM   31  C   UNL     1      -8.636   9.890  62.972  1.00  0.00    -0.197 C  
ENDBRANCH  26  30
BRANCH  28  32
HETATM   32  O   UNL     1     -11.454  12.712  63.518  1.00  0.00    -0.461 OA 
HETATM   33  C   UNL     1     -12.214  13.891  63.755  1.00  0.00    -0.261 C  
ENDBRANCH  28  32
ENDBRANCH  18  24
ENDBRANCH  17  18
ENDBRANCH  16  17
ENDBRANCH  15  16
ENDBRANCH  13  15
ENDBRANCH  12  13
ENDBRANCH  11  12
ENDBRANCH   7  11
ENDBRANCH   2   3
TORSDOF 12
ENDMDL
MODEL      170
REMARK 921   NORMALIZED FREE ENERGY PREDICTED BY IDOCK:   -4.36 KCAL/MOL
REMARK 922        TOTAL FREE ENERGY PREDICTED BY IDOCK:   -9.65 KCAL/MOL
REMARK 923 INTER-LIGAND FREE ENERGY PREDICTED BY IDOCK:   -8.15 KCAL/MOL
REMARK 924 INTRA-LIGAND FREE ENERGY PREDICTED BY IDOCK:   -1.50 KCAL/MOL
REMARK 927      BINDING AFFINITY PREDICTED BY RF-SCORE:    0.00 PKD
ROOT
HETATM    1  C   UNL     1      -8.565   3.558  70.400  1.00  0.00    -0.062 C  
HETATM    2  O   UNL     1      -8.577   4.890  70.903  1.00  0.00    -0.111 OA 
ENDROOT
BRANCH   2   3
HETATM    3  C   UNL     1      -9.036   5.860  70.044  1.00  0.00    -0.141 A  
HETATM    4  C   UNL     1     -10.024   6.823  70.306  1.00  0.00    -0.178 A  
HETATM    5  C   UNL     1      -8.864   6.667  67.753  1.00  0.00    -0.114 A  
HETATM    6  C   UNL     1     -10.409   7.705  69.281  1.00  0.00    -0.218 A  
HETATM    7  C   UNL     1      -9.835   7.644  68.003  1.00  0.00    -0.188 A  
HETATM    8  C   UNL     1      -8.475   5.781  68.764  1.00  0.00    -0.107 A  
BRANCH   4   9
HETATM    9  O   UNL     1     -10.609   6.819  71.544  1.00  0.00    -0.217 OA 
HETATM   10  C   UNL     1     -10.227   7.835  72.460  1.00  0.00    -0.260 C  
ENDBRANCH   4   9
BRANCH   7  11
HETATM   11  C   UNL     1     -10.404   8.509  66.879  1.00  0.00    -0.367 C  
BRANCH  11  12
HETATM   12  C   UNL     1      -9.598   9.814  66.861  1.00  0.00    -0.180 C  
BRANCH  12  13
HETATM   13  N   UNL     1     -10.169  11.116  67.220  1.00  0.00    -0.188 NA 
HETATM   14  C   UNL     1     -11.476  11.001  67.865  1.00  0.00    -0.282 C  
BRANCH  13  15
HETATM   15  C   UNL     1      -9.240  11.919  68.058  1.00  0.00    -0.190 C  
BRANCH  15  16
HETATM   16  C   UNL     1      -8.976  13.423  67.731  1.00  0.00    -0.205 C  
BRANCH  16  17
HETATM   17  C   UNL     1      -9.421  14.418  68.826  1.00  0.00    -0.161 C  
BRANCH  17  18
HETATM   18  C   UNL     1     -10.489  15.498  68.494  1.00  0.00    -0.238 C  
HETATM   19  N   UNL     1     -11.571  14.757  66.172  1.00  0.00    -0.332 NA 
HETATM   20  C   UNL     1     -11.684  15.474  69.563  1.00  0.00    -0.380 C  
HETATM   21  C   UNL     1     -11.104  15.095  67.181  1.00  0.00    -0.335 C  
HETATM   22  C   UNL     1     -11.310  15.815  71.015  1.00  0.00    -0.437 C  
HETATM   23  C   UNL     1     -12.421  14.118  69.623  1.00  0.00    -0.207 C  
BRANCH  18  24
HETATM   24  C   UNL     1      -9.771  16.849  68.408  1.00  0.00    -0.263 A  
HETATM   25  C   UNL     1     -10.380  17.974  67.825  1.00  0.00    -0.403 A  
HETATM   26  C   UNL     1      -9.670  19.151  67.570  1.00  0.00    -0.316 A  
HETATM   27  C   UNL     1      -8.418  16.963  68.778  1.00  0.00    -0.244 A  
HETATM   28  C   UNL     1      -8.316  19.227  67.937  1.00  0.00    -0.303 A  
HETATM   29  C   UNL     1      -7.712  18.141  68.562  1.00  0.00    -0.307 A  
BRANCH  26  30
HETATM   30  O   UNL     1     -10.209  20.247  66.946  1.00  0.00    -0.443 OA 
HETATM   31  C   UNL     1     -10.714  20.064  65.628  1.00  0.00    -0.216 C  
ENDBRANCH  26  30
BRANCH  28  32
HETATM   32  O   UNL     1      -7.655  20.389  67.618  1.00  0.00    -0.301 OA 
HETATM   33  C   UNL     1      -6.264  20.433  67.913  1.00  0.00    -0.257 C  
ENDBRANCH  28  32
ENDBRANCH  18  24
ENDBRANCH  17  18
ENDBRANCH  16  17
ENDBRANCH  15  16
ENDBRANCH  13  15
ENDBRANCH  12  13
ENDBRANCH  11  12
ENDBRANCH   7  11
ENDBRANCH   2   3
TORSDOF 12
ENDMDL
MODEL      171
REMARK 921   NORMALIZED FREE ENERGY PREDICTED BY IDOCK:   -4.36 KCAL/MOL
REMARK 922        TOTAL FREE ENERGY PREDICTED BY IDOCK:   -9.63 KCAL/MOL
REMARK 923 INTER-LIGAND FREE ENERGY PREDICTED BY IDOCK:   -7.49 KCAL/MOL
REMARK 924 INTRA-LIGAND FREE ENERGY PREDICTED BY IDOCK:   -2.14 KCAL/MOL
REMARK 927      BINDING AFFINITY PREDICTED BY RF-SCORE:    0.00 PKD
ROOT
HETATM    1  C   UNL     1     -14.310  14.740  71.867  1.00  0.00    -0.570 C  
HETATM    2  O   UNL     1     -12.939  14.371  71.974  1.00  0.00    -0.321 OA 
ENDROOT
BRANCH   2   3
HETATM    3  C   UNL     1     -12.202  14.425  70.815  1.00  0.00    -0.343 A  
HETATM    4  C   UNL     1     -12.013  13.392  69.884  1.00  0.00    -0.338 A  
HETATM    5  C   UNL     1     -10.701  15.850  69.532  1.00  0.00    -0.288 A  
HETATM    6  C   UNL     1     -11.174  13.612  68.778  1.00  0.00    -0.314 A  
HETATM    7  C   UNL     1     -10.516  14.835  68.585  1.00  0.00    -0.250 A  
HETATM    8  C   UNL     1     -11.532  15.641  70.638  1.00  0.00    -0.400 A  
BRANCH   4   9
HETATM    9  O   UNL     1     -12.620  12.189  70.131  1.00  0.00    -0.067 OA 
HETATM   10  C   UNL     1     -11.787  11.052  70.306  1.00  0.00    -0.367 C  
ENDBRANCH   4   9
BRANCH   7  11
HETATM   11  C   UNL     1      -9.486  14.969  67.464  1.00  0.00    -0.203 C  
BRANCH  11  12
HETATM   12  C   UNL     1      -8.835  13.592  67.282  1.00  0.00    -0.224 C  
BRANCH  12  13
HETATM   13  N   UNL     1      -7.389  13.367  67.386  1.00  0.00    -0.148 NA 
HETATM   14  C   UNL     1      -6.684  14.499  67.984  1.00  0.00    -0.145 C  
BRANCH  13  15
HETATM   15  C   UNL     1      -7.073  12.109  68.112  1.00  0.00    -0.088 C  
BRANCH  15  16
HETATM   16  C   UNL     1      -8.210  11.265  68.771  1.00  0.00    -0.122 C  
BRANCH  16  17
HETATM   17  C   UNL     1      -7.885   9.766  68.959  1.00  0.00    -0.087 C  
BRANCH  17  18
HETATM   18  C   UNL     1      -8.919   8.695  68.512  1.00  0.00    -0.139 C  
HETATM   19  N   UNL     1     -10.593   9.949  66.858  1.00  0.00    -0.209 NA 
HETATM   20  C   UNL     1      -8.219   7.546  67.639  1.00  0.00    -0.118 C  
HETATM   21  C   UNL     1      -9.875   9.392  67.581  1.00  0.00    -0.174 C  
HETATM   22  C   UNL     1      -7.154   6.699  68.355  1.00  0.00    -0.083 C  
HETATM   23  C   UNL     1      -7.543   8.081  66.358  1.00  0.00    -0.091 C  
BRANCH  18  24
HETATM   24  C   UNL     1      -9.616   8.169  69.772  1.00  0.00    -0.171 A  
HETATM   25  C   UNL     1      -9.169   8.511  71.060  1.00  0.00    -0.227 A  
HETATM   26  C   UNL     1      -9.672   7.890  72.207  1.00  0.00    -0.209 A  
HETATM   27  C   UNL     1     -10.635   7.204  69.674  1.00  0.00    -0.249 A  
HETATM   28  C   UNL     1     -10.679   6.919  72.074  1.00  0.00    -0.216 A  
HETATM   29  C   UNL     1     -11.168   6.606  70.810  1.00  0.00    -0.366 A  
BRANCH  26  30
HETATM   30  O   UNL     1      -9.220   8.148  73.476  1.00  0.00    -0.264 OA 
HETATM   31  C   UNL     1      -7.944   7.626  73.831  1.00  0.00    -0.159 C  
ENDBRANCH  26  30
BRANCH  28  32
HETATM   32  O   UNL     1     -11.101   6.305  73.229  1.00  0.00    -0.227 OA 
HETATM   33  C   UNL     1     -11.337   4.904  73.158  1.00  0.00    -0.315 C  
ENDBRANCH  28  32
ENDBRANCH  18  24
ENDBRANCH  17  18
ENDBRANCH  16  17
ENDBRANCH  15  16
ENDBRANCH  13  15
ENDBRANCH  12  13
ENDBRANCH  11  12
ENDBRANCH   7  11
ENDBRANCH   2   3
TORSDOF 12
ENDMDL
MODEL      172
REMARK 921   NORMALIZED FREE ENERGY PREDICTED BY IDOCK:   -4.35 KCAL/MOL
REMARK 922        TOTAL FREE ENERGY PREDICTED BY IDOCK:   -9.63 KCAL/MOL
REMARK 923 INTER-LIGAND FREE ENERGY PREDICTED BY IDOCK:   -7.74 KCAL/MOL
REMARK 924 INTRA-LIGAND FREE ENERGY PREDICTED BY IDOCK:   -1.90 KCAL/MOL
REMARK 927      BINDING AFFINITY PREDICTED BY RF-SCORE:    0.00 PKD
ROOT
HETATM    1  C   UNL     1     -12.643  12.760  63.216  1.00  0.00    -0.117 C  
HETATM    2  O   UNL     1     -11.864  13.771  63.848  1.00  0.00    -0.398 OA 
ENDROOT
BRANCH   2   3
HETATM    3  C   UNL     1     -11.064  13.363  64.888  1.00  0.00    -0.335 A  
HETATM    4  C   UNL     1     -10.153  14.148  65.613  1.00  0.00    -0.328 A  
HETATM    5  C   UNL     1     -10.375  11.401  66.156  1.00  0.00    -0.294 A  
HETATM    6  C   UNL     1      -9.372  13.542  66.613  1.00  0.00    -0.254 A  
HETATM    7  C   UNL     1      -9.475  12.174  66.899  1.00  0.00    -0.210 A  
HETATM    8  C   UNL     1     -11.155  11.992  65.156  1.00  0.00    -0.369 A  
BRANCH   4   9
HETATM    9  O   UNL     1     -10.031  15.468  65.269  1.00  0.00    -0.320 OA 
HETATM   10  C   UNL     1      -9.316  16.319  66.155  1.00  0.00    -0.339 C  
ENDBRANCH   4   9
BRANCH   7  11
HETATM   11  C   UNL     1      -8.488  11.531  67.874  1.00  0.00    -0.142 C  
BRANCH  11  12
HETATM   12  C   UNL     1      -7.178  11.307  67.108  1.00  0.00    -0.126 C  
BRANCH  12  13
HETATM   13  N   UNL     1      -6.873  10.068  66.384  1.00  0.00    -0.089 NA 
HETATM   14  C   UNL     1      -5.729  10.206  65.485  1.00  0.00    -0.081 C  
BRANCH  13  15
HETATM   15  C   UNL     1      -6.679   8.918  67.307  1.00  0.00    -0.066 C  
BRANCH  15  16
HETATM   16  C   UNL     1      -7.811   7.862  67.506  1.00  0.00    -0.122 C  
BRANCH  16  17
HETATM   17  C   UNL     1      -8.318   7.714  68.959  1.00  0.00    -0.128 C  
BRANCH  17  18
HETATM   18  C   UNL     1      -9.733   7.127  69.223  1.00  0.00    -0.159 C  
HETATM   19  N   UNL     1     -10.822   6.754  66.818  1.00  0.00    -0.295 NA 
HETATM   20  C   UNL     1      -9.637   5.672  69.892  1.00  0.00    -0.208 C  
HETATM   21  C   UNL     1     -10.362   6.916  67.872  1.00  0.00    -0.195 C  
HETATM   22  C   UNL     1      -8.986   5.602  71.283  1.00  0.00    -0.149 C  
HETATM   23  C   UNL     1      -8.881   4.648  69.018  1.00  0.00    -0.122 C  
BRANCH  18  24
HETATM   24  C   UNL     1     -10.506   8.142  70.072  1.00  0.00    -0.231 A  
HETATM   25  C   UNL     1     -11.655   7.778  70.794  1.00  0.00    -0.270 A  
HETATM   26  C   UNL     1     -12.473   8.728  71.413  1.00  0.00    -0.303 A  
HETATM   27  C   UNL     1     -10.171   9.508  70.032  1.00  0.00    -0.281 A  
HETATM   28  C   UNL     1     -12.119  10.086  71.342  1.00  0.00    -0.407 A  
HETATM   29  C   UNL     1     -10.957  10.458  70.674  1.00  0.00    -0.191 A  
BRANCH  26  30
HETATM   30  O   UNL     1     -13.635   8.422  72.073  1.00  0.00    -0.348 OA 
HETATM   31  C   UNL     1     -14.363   7.287  71.618  1.00  0.00    -0.421 C  
ENDBRANCH  26  30
BRANCH  28  32
HETATM   32  O   UNL     1     -12.984  10.981  71.925  1.00  0.00    -0.457 OA 
HETATM   33  C   UNL     1     -13.173  12.218  71.249  1.00  0.00     0.019 C  
ENDBRANCH  28  32
ENDBRANCH  18  24
ENDBRANCH  17  18
ENDBRANCH  16  17
ENDBRANCH  15  16
ENDBRANCH  13  15
ENDBRANCH  12  13
ENDBRANCH  11  12
ENDBRANCH   7  11
ENDBRANCH   2   3
TORSDOF 12
ENDMDL
MODEL      173
REMARK 921   NORMALIZED FREE ENERGY PREDICTED BY IDOCK:   -4.35 KCAL/MOL
REMARK 922        TOTAL FREE ENERGY PREDICTED BY IDOCK:   -9.62 KCAL/MOL
REMARK 923 INTER-LIGAND FREE ENERGY PREDICTED BY IDOCK:   -7.78 KCAL/MOL
REMARK 924 INTRA-LIGAND FREE ENERGY PREDICTED BY IDOCK:   -1.84 KCAL/MOL
REMARK 927      BINDING AFFINITY PREDICTED BY RF-SCORE:    0.00 PKD
ROOT
HETATM    1  C   UNL     1     -12.020  15.710  72.541  1.00  0.00    -0.464 C  
HETATM    2  O   UNL     1     -11.925  16.169  71.196  1.00  0.00    -0.412 OA 
ENDROOT
BRANCH   2   3
HETATM    3  C   UNL     1     -11.785  15.200  70.232  1.00  0.00    -0.300 A  
HETATM    4  C   UNL     1     -11.495  15.397  68.872  1.00  0.00    -0.342 A  
HETATM    5  C   UNL     1     -11.989  12.806  69.836  1.00  0.00    -0.368 A  
HETATM    6  C   UNL     1     -11.445  14.284  68.014  1.00  0.00    -0.342 A  
HETATM    7  C   UNL     1     -11.684  12.983  68.482  1.00  0.00    -0.377 A  
HETATM    8  C   UNL     1     -12.044  13.907  70.699  1.00  0.00    -0.417 A  
BRANCH   4   9
HETATM    9  O   UNL     1     -11.326  16.683  68.433  1.00  0.00    -0.321 OA 
HETATM   10  C   UNL     1     -10.056  17.042  67.907  1.00  0.00    -0.306 C  
ENDBRANCH   4   9
BRANCH   7  11
HETATM   11  C   UNL     1     -11.785  11.830  67.484  1.00  0.00    -0.312 C  
BRANCH  11  12
HETATM   12  C   UNL     1     -11.122  12.300  66.182  1.00  0.00    -0.311 C  
BRANCH  12  13
HETATM   13  N   UNL     1     -10.906  11.420  65.029  1.00  0.00    -0.275 NA 
HETATM   14  C   UNL     1     -11.604  11.879  63.830  1.00  0.00    -0.462 C  
BRANCH  13  15
HETATM   15  C   UNL     1      -9.460  11.216  64.748  1.00  0.00    -0.218 C  
BRANCH  15  16
HETATM   16  C   UNL     1      -8.693  10.008  65.373  1.00  0.00    -0.176 C  
BRANCH  16  17
HETATM   17  C   UNL     1      -9.536   9.114  66.310  1.00  0.00    -0.299 C  
BRANCH  17  18
HETATM   18  C   UNL     1      -8.844   8.366  67.485  1.00  0.00    -0.139 C  
HETATM   19  N   UNL     1      -6.239   8.879  67.236  1.00  0.00    -0.058 NA 
HETATM   20  C   UNL     1      -9.281   8.985  68.898  1.00  0.00    -0.140 C  
HETATM   21  C   UNL     1      -7.371   8.643  67.353  1.00  0.00    -0.089 C  
HETATM   22  C   UNL     1     -10.770   8.870  69.264  1.00  0.00    -0.177 C  
HETATM   23  C   UNL     1      -8.924  10.480  69.045  1.00  0.00    -0.183 C  
BRANCH  18  24
HETATM   24  C   UNL     1      -9.171   6.875  67.341  1.00  0.00    -0.130 A  
HETATM   25  C   UNL     1      -9.021   5.980  68.414  1.00  0.00    -0.114 A  
HETATM   26  C   UNL     1      -9.130   4.597  68.245  1.00  0.00    -0.120 A  
HETATM   27  C   UNL     1      -9.489   6.332  66.083  1.00  0.00    -0.092 A  
HETATM   28  C   UNL     1      -9.434   4.085  66.972  1.00  0.00    -0.199 A  
HETATM   29  C   UNL     1      -9.636   4.960  65.911  1.00  0.00    -0.185 A  
BRANCH  26  30
HETATM   30  O   UNL     1      -8.929   3.686  69.251  1.00  0.00    -0.092 OA 
HETATM   31  C   UNL     1      -9.725   3.823  70.423  1.00  0.00    -0.154 C  
ENDBRANCH  26  30
BRANCH  28  32
HETATM   32  O   UNL     1      -9.480   2.717  66.852  1.00  0.00    -0.081 OA 
HETATM   33  C   UNL     1      -8.807   2.151  65.734  1.00  0.00    -0.121 C  
ENDBRANCH  28  32
ENDBRANCH  18  24
ENDBRANCH  17  18
ENDBRANCH  16  17
ENDBRANCH  15  16
ENDBRANCH  13  15
ENDBRANCH  12  13
ENDBRANCH  11  12
ENDBRANCH   7  11
ENDBRANCH   2   3
TORSDOF 12
ENDMDL
MODEL      174
REMARK 921   NORMALIZED FREE ENERGY PREDICTED BY IDOCK:   -4.35 KCAL/MOL
REMARK 922        TOTAL FREE ENERGY PREDICTED BY IDOCK:   -9.62 KCAL/MOL
REMARK 923 INTER-LIGAND FREE ENERGY PREDICTED BY IDOCK:   -7.87 KCAL/MOL
REMARK 924 INTRA-LIGAND FREE ENERGY PREDICTED BY IDOCK:   -1.75 KCAL/MOL
REMARK 927      BINDING AFFINITY PREDICTED BY RF-SCORE:    0.00 PKD
ROOT
HETATM    1  C   UNL     1     -10.178  15.255  65.750  1.00  0.00    -0.349 C  
HETATM    2  O   UNL     1     -11.504  14.865  66.095  1.00  0.00    -0.341 OA 
ENDROOT
BRANCH   2   3
HETATM    3  C   UNL     1     -11.651  14.197  67.287  1.00  0.00    -0.373 A  
HETATM    4  C   UNL     1     -11.845  12.817  67.465  1.00  0.00    -0.343 A  
HETATM    5  C   UNL     1     -11.864  14.532  69.689  1.00  0.00    -0.367 A  
HETATM    6  C   UNL     1     -12.035  12.315  68.764  1.00  0.00    -0.281 A  
HETATM    7  C   UNL     1     -12.041  13.157  69.885  1.00  0.00    -0.357 A  
HETATM    8  C   UNL     1     -11.677  15.044  68.401  1.00  0.00    -0.341 A  
BRANCH   4   9
HETATM    9  O   UNL     1     -11.894  12.029  66.346  1.00  0.00    -0.578 OA 
HETATM   10  C   UNL     1     -10.704  11.357  65.958  1.00  0.00    -0.263 C  
ENDBRANCH   4   9
BRANCH   7  11
HETATM   11  C   UNL     1     -12.418  12.588  71.253  1.00  0.00    -0.273 C  
BRANCH  11  12
HETATM   12  C   UNL     1     -12.872  11.140  71.030  1.00  0.00    -0.329 C  
BRANCH  12  13
HETATM   13  N   UNL     1     -12.640  10.067  72.003  1.00  0.00    -0.347 NA 
HETATM   14  C   UNL     1     -13.788   9.173  72.143  1.00  0.00    -0.446 C  
BRANCH  13  15
HETATM   15  C   UNL     1     -11.408   9.293  71.695  1.00  0.00    -0.397 C  
BRANCH  15  16
HETATM   16  C   UNL     1     -10.743   9.389  70.285  1.00  0.00    -0.299 C  
BRANCH  16  17
HETATM   17  C   UNL     1      -9.957   8.132  69.848  1.00  0.00    -0.190 C  
BRANCH  17  18
HETATM   18  C   UNL     1      -8.614   8.295  69.082  1.00  0.00    -0.138 C  
HETATM   19  N   UNL     1      -8.298  10.919  68.724  1.00  0.00    -0.147 NA 
HETATM   20  C   UNL     1      -7.375   7.822  69.984  1.00  0.00    -0.075 C  
HETATM   21  C   UNL     1      -8.426   9.773  68.868  1.00  0.00    -0.129 C  
HETATM   22  C   UNL     1      -7.349   6.338  70.385  1.00  0.00    -0.089 C  
HETATM   23  C   UNL     1      -7.241   8.619  71.300  1.00  0.00    -0.093 C  
BRANCH  18  24
HETATM   24  C   UNL     1      -8.738   7.528  67.760  1.00  0.00    -0.123 A  
HETATM   25  C   UNL     1      -9.411   6.297  67.682  1.00  0.00    -0.116 A  
HETATM   26  C   UNL     1      -9.366   5.500  66.534  1.00  0.00    -0.147 A  
HETATM   27  C   UNL     1      -8.050   7.965  66.614  1.00  0.00    -0.107 A  
HETATM   28  C   UNL     1      -8.657   5.958  65.411  1.00  0.00    -0.137 A  
HETATM   29  C   UNL     1      -8.029   7.198  65.455  1.00  0.00    -0.125 A  
BRANCH  26  30
HETATM   30  O   UNL     1      -9.955   4.265  66.437  1.00  0.00    -0.221 OA 
HETATM   31  C   UNL     1      -9.438   3.231  67.268  1.00  0.00    -0.148 C  
ENDBRANCH  26  30
BRANCH  28  32
HETATM   32  O   UNL     1      -8.604   5.114  64.327  1.00  0.00    -0.140 OA 
HETATM   33  C   UNL     1      -7.318   4.631  63.956  1.00  0.00    -0.058 C  
ENDBRANCH  28  32
ENDBRANCH  18  24
ENDBRANCH  17  18
ENDBRANCH  16  17
ENDBRANCH  15  16
ENDBRANCH  13  15
ENDBRANCH  12  13
ENDBRANCH  11  12
ENDBRANCH   7  11
ENDBRANCH   2   3
TORSDOF 12
ENDMDL
MODEL      175
REMARK 921   NORMALIZED FREE ENERGY PREDICTED BY IDOCK:   -4.34 KCAL/MOL
REMARK 922        TOTAL FREE ENERGY PREDICTED BY IDOCK:   -9.60 KCAL/MOL
REMARK 923 INTER-LIGAND FREE ENERGY PREDICTED BY IDOCK:   -6.86 KCAL/MOL
REMARK 924 INTRA-LIGAND FREE ENERGY PREDICTED BY IDOCK:   -2.74 KCAL/MOL
REMARK 927      BINDING AFFINITY PREDICTED BY RF-SCORE:    0.00 PKD
ROOT
HETATM    1  C   UNL     1     -10.577   4.688  66.006  1.00  0.00    -0.200 C  
HETATM    2  O   UNL     1      -9.182   4.951  66.121  1.00  0.00    -0.134 OA 
ENDROOT
BRANCH   2   3
HETATM    3  C   UNL     1      -8.780   5.617  67.254  1.00  0.00    -0.107 A  
HETATM    4  C   UNL     1      -8.433   6.973  67.360  1.00  0.00    -0.122 A  
HETATM    5  C   UNL     1      -8.207   5.292  69.598  1.00  0.00    -0.095 A  
HETATM    6  C   UNL     1      -7.986   7.471  68.597  1.00  0.00    -0.123 A  
HETATM    7  C   UNL     1      -7.873   6.646  69.725  1.00  0.00    -0.115 A  
HETATM    8  C   UNL     1      -8.649   4.785  68.372  1.00  0.00    -0.104 A  
BRANCH   4   9
HETATM    9  O   UNL     1      -8.495   7.740  66.227  1.00  0.00    -0.126 OA 
HETATM   10  C   UNL     1      -9.659   8.531  66.027  1.00  0.00    -0.165 C  
ENDBRANCH   4   9
BRANCH   7  11
HETATM   11  C   UNL     1      -7.226   7.192  70.997  1.00  0.00    -0.074 C  
BRANCH  11  12
HETATM   12  C   UNL     1      -7.458   6.155  72.103  1.00  0.00    -0.095 C  
BRANCH  12  13
HETATM   13  N   UNL     1      -8.112   6.473  73.377  1.00  0.00    -0.108 NA 
HETATM   14  C   UNL     1      -7.207   6.368  74.519  1.00  0.00    -0.100 C  
BRANCH  13  15
HETATM   15  C   UNL     1      -8.766   7.809  73.348  1.00  0.00    -0.227 C  
BRANCH  15  16
HETATM   16  C   UNL     1     -10.177   7.988  72.704  1.00  0.00    -0.385 C  
BRANCH  16  17
HETATM   17  C   UNL     1     -10.299   9.169  71.715  1.00  0.00    -0.330 C  
BRANCH  17  18
HETATM   18  C   UNL     1     -11.368   9.119  70.587  1.00  0.00    -0.323 C  
HETATM   19  N   UNL     1     -11.581   6.550  69.904  1.00  0.00    -0.408 NA 
HETATM   20  C   UNL     1     -12.810   9.547  71.141  1.00  0.00    -0.361 C  
HETATM   21  C   UNL     1     -11.494   7.673  70.188  1.00  0.00    -0.066 C  
HETATM   22  C   UNL     1     -12.943  10.988  71.659  1.00  0.00    -0.561 C  
HETATM   23  C   UNL     1     -13.318   8.639  72.283  1.00  0.00    -0.412 C  
BRANCH  18  24
HETATM   24  C   UNL     1     -10.868   9.998  69.435  1.00  0.00    -0.270 A  
HETATM   25  C   UNL     1      -9.538  10.449  69.374  1.00  0.00    -0.213 A  
HETATM   26  C   UNL     1      -9.122  11.402  68.439  1.00  0.00    -0.179 A  
HETATM   27  C   UNL     1     -11.768  10.504  68.481  1.00  0.00    -0.125 A  
HETATM   28  C   UNL     1     -10.050  11.899  67.509  1.00  0.00    -0.193 A  
HETATM   29  C   UNL     1     -11.357  11.424  67.523  1.00  0.00    -0.362 A  
BRANCH  26  30
HETATM   30  O   UNL     1      -7.851  11.916  68.386  1.00  0.00    -0.129 OA 
HETATM   31  C   UNL     1      -6.876  11.331  69.243  1.00  0.00    -0.116 C  
ENDBRANCH  26  30
BRANCH  28  32
HETATM   32  O   UNL     1      -9.600  12.869  66.645  1.00  0.00    -0.245 OA 
HETATM   33  C   UNL     1     -10.190  12.895  65.351  1.00  0.00    -0.287 C  
ENDBRANCH  28  32
ENDBRANCH  18  24
ENDBRANCH  17  18
ENDBRANCH  16  17
ENDBRANCH  15  16
ENDBRANCH  13  15
ENDBRANCH  12  13
ENDBRANCH  11  12
ENDBRANCH   7  11
ENDBRANCH   2   3
TORSDOF 12
ENDMDL
MODEL      176
REMARK 921   NORMALIZED FREE ENERGY PREDICTED BY IDOCK:   -4.33 KCAL/MOL
REMARK 922        TOTAL FREE ENERGY PREDICTED BY IDOCK:   -9.59 KCAL/MOL
REMARK 923 INTER-LIGAND FREE ENERGY PREDICTED BY IDOCK:   -8.51 KCAL/MOL
REMARK 924 INTRA-LIGAND FREE ENERGY PREDICTED BY IDOCK:   -1.08 KCAL/MOL
REMARK 927      BINDING AFFINITY PREDICTED BY RF-SCORE:    0.00 PKD
ROOT
HETATM    1  C   UNL     1      -6.462  19.934  69.788  1.00  0.00    -0.356 C  
HETATM    2  O   UNL     1      -6.062  19.006  68.784  1.00  0.00    -0.213 OA 
ENDROOT
BRANCH   2   3
HETATM    3  C   UNL     1      -7.073  18.420  68.061  1.00  0.00    -0.231 A  
HETATM    4  C   UNL     1      -7.080  17.127  67.511  1.00  0.00    -0.154 A  
HETATM    5  C   UNL     1      -9.249  18.852  67.057  1.00  0.00    -0.325 A  
HETATM    6  C   UNL     1      -8.185  16.714  66.747  1.00  0.00    -0.274 A  
HETATM    7  C   UNL     1      -9.279  17.561  66.516  1.00  0.00    -0.286 A  
HETATM    8  C   UNL     1      -8.153  19.276  67.816  1.00  0.00    -0.321 A  
BRANCH   4   9
HETATM    9  O   UNL     1      -5.972  16.345  67.703  1.00  0.00    -0.120 OA 
HETATM   10  C   UNL     1      -6.172  14.952  67.898  1.00  0.00    -0.160 C  
ENDBRANCH   4   9
BRANCH   7  11
HETATM   11  C   UNL     1     -10.375  17.129  65.544  1.00  0.00    -0.132 C  
BRANCH  11  12
HETATM   12  C   UNL     1     -10.237  15.613  65.352  1.00  0.00    -0.370 C  
BRANCH  12  13
HETATM   13  N   UNL     1     -11.377  14.731  65.083  1.00  0.00    -0.364 NA 
HETATM   14  C   UNL     1     -11.012  13.565  64.280  1.00  0.00    -0.336 C  
BRANCH  13  15
HETATM   15  C   UNL     1     -12.064  14.311  66.334  1.00  0.00    -0.419 C  
BRANCH  15  16
HETATM   16  C   UNL     1     -12.014  15.215  67.606  1.00  0.00    -0.018 C  
BRANCH  16  17
HETATM   17  C   UNL     1     -12.634  14.588  68.876  1.00  0.00     0.279 C  
BRANCH  17  18
HETATM   18  C   UNL     1     -11.704  14.091  70.019  1.00  0.00    -0.349 C  
HETATM   19  N   UNL     1      -9.399  15.392  69.695  1.00  0.00    -0.253 NA 
HETATM   20  C   UNL     1     -12.264  14.540  71.453  1.00  0.00    -0.425 C  
HETATM   21  C   UNL     1     -10.396  14.814  69.844  1.00  0.00     0.043 C  
HETATM   22  C   UNL     1     -13.629  13.966  71.865  1.00  0.00    -0.516 C  
HETATM   23  C   UNL     1     -12.386  16.072  71.607  1.00  0.00    -0.472 C  
BRANCH  18  24
HETATM   24  C   UNL     1     -11.554  12.573  69.868  1.00  0.00    -0.242 A  
HETATM   25  C   UNL     1     -12.205  11.677  70.733  1.00  0.00    -0.443 A  
HETATM   26  C   UNL     1     -11.926  10.307  70.726  1.00  0.00    -0.360 A  
HETATM   27  C   UNL     1     -10.637  12.035  68.947  1.00  0.00    -0.192 A  
HETATM   28  C   UNL     1     -10.994   9.803  69.804  1.00  0.00    -0.256 A  
HETATM   29  C   UNL     1     -10.379  10.669  68.906  1.00  0.00    -0.225 A  
BRANCH  26  30
HETATM   30  O   UNL     1     -12.490   9.408  71.595  1.00  0.00    -0.330 OA 
HETATM   31  C   UNL     1     -13.908   9.426  71.721  1.00  0.00    -0.286 C  
ENDBRANCH  26  30
BRANCH  28  32
HETATM   32  O   UNL     1     -10.721   8.458  69.874  1.00  0.00    -0.232 OA 
HETATM   33  C   UNL     1      -9.875   7.924  68.863  1.00  0.00    -0.173 C  
ENDBRANCH  28  32
ENDBRANCH  18  24
ENDBRANCH  17  18
ENDBRANCH  16  17
ENDBRANCH  15  16
ENDBRANCH  13  15
ENDBRANCH  12  13
ENDBRANCH  11  12
ENDBRANCH   7  11
ENDBRANCH   2   3
TORSDOF 12
ENDMDL
MODEL      177
REMARK 921   NORMALIZED FREE ENERGY PREDICTED BY IDOCK:   -4.31 KCAL/MOL
REMARK 922        TOTAL FREE ENERGY PREDICTED BY IDOCK:   -9.55 KCAL/MOL
REMARK 923 INTER-LIGAND FREE ENERGY PREDICTED BY IDOCK:   -7.44 KCAL/MOL
REMARK 924 INTRA-LIGAND FREE ENERGY PREDICTED BY IDOCK:   -2.12 KCAL/MOL
REMARK 927      BINDING AFFINITY PREDICTED BY RF-SCORE:    0.00 PKD
ROOT
HETATM    1  C   UNL     1      -6.616   6.754  69.066  1.00  0.00    -0.041 C  
HETATM    2  O   UNL     1      -7.602   5.741  68.889  1.00  0.00    -0.086 OA 
ENDROOT
BRANCH   2   3
HETATM    3  C   UNL     1      -8.811   5.956  69.505  1.00  0.00    -0.123 A  
HETATM    4  C   UNL     1     -10.084   5.630  69.007  1.00  0.00    -0.195 A  
HETATM    5  C   UNL     1      -9.844   6.984  71.456  1.00  0.00    -0.176 A  
HETATM    6  C   UNL     1     -11.221   5.980  69.755  1.00  0.00    -0.440 A  
HETATM    7  C   UNL     1     -11.119   6.651  70.982  1.00  0.00    -0.330 A  
HETATM    8  C   UNL     1      -8.705   6.645  70.719  1.00  0.00    -0.143 A  
BRANCH   4   9
HETATM    9  O   UNL     1     -10.155   5.029  67.778  1.00  0.00    -0.159 OA 
HETATM   10  C   UNL     1     -10.810   5.735  66.734  1.00  0.00    -0.248 C  
ENDBRANCH   4   9
BRANCH   7  11
HETATM   11  C   UNL     1     -12.384   7.157  71.673  1.00  0.00    -0.398 C  
BRANCH  11  12
HETATM   12  C   UNL     1     -12.170   8.646  71.973  1.00  0.00    -0.373 C  
BRANCH  12  13
HETATM   13  N   UNL     1     -12.723   9.720  71.142  1.00  0.00    -0.334 NA 
HETATM   14  C   UNL     1     -13.148  10.879  71.925  1.00  0.00    -0.432 C  
BRANCH  13  15
HETATM   15  C   UNL     1     -11.781  10.132  70.066  1.00  0.00    -0.223 C  
BRANCH  15  16
HETATM   16  C   UNL     1     -12.131  11.322  69.119  1.00  0.00    -0.348 C  
BRANCH  16  17
HETATM   17  C   UNL     1     -11.105  12.478  69.116  1.00  0.00    -0.254 C  
BRANCH  17  18
HETATM   18  C   UNL     1     -10.501  12.967  67.770  1.00  0.00    -0.225 C  
HETATM   19  N   UNL     1     -12.507  12.910  66.014  1.00  0.00    -0.491 NA 
HETATM   20  C   UNL     1     -10.044  14.501  67.866  1.00  0.00    -0.227 C  
HETATM   21  C   UNL     1     -11.623  12.934  66.767  1.00  0.00    -0.360 C  
HETATM   22  C   UNL     1      -8.921  14.818  68.866  1.00  0.00    -0.167 C  
HETATM   23  C   UNL     1     -11.203  15.461  68.213  1.00  0.00    -0.325 C  
BRANCH  18  24
HETATM   24  C   UNL     1      -9.362  12.010  67.399  1.00  0.00    -0.178 A  
HETATM   25  C   UNL     1      -9.058  11.710  66.060  1.00  0.00    -0.188 A  
HETATM   26  C   UNL     1      -8.154  10.700  65.715  1.00  0.00    -0.158 A  
HETATM   27  C   UNL     1      -8.684  11.287  68.396  1.00  0.00    -0.159 A  
HETATM   28  C   UNL     1      -7.505   9.985  66.735  1.00  0.00    -0.096 A  
HETATM   29  C   UNL     1      -7.757  10.305  68.065  1.00  0.00    -0.089 A  
BRANCH  26  30
HETATM   30  O   UNL     1      -7.876  10.332  64.423  1.00  0.00    -0.154 OA 
HETATM   31  C   UNL     1      -8.859   9.563  63.739  1.00  0.00    -0.210 C  
ENDBRANCH  26  30
BRANCH  28  32
HETATM   32  O   UNL     1      -6.666   8.971  66.340  1.00  0.00    -0.072 OA 
HETATM   33  C   UNL     1      -5.274   9.174  66.553  1.00  0.00    -0.037 C  
ENDBRANCH  28  32
ENDBRANCH  18  24
ENDBRANCH  17  18
ENDBRANCH  16  17
ENDBRANCH  15  16
ENDBRANCH  13  15
ENDBRANCH  12  13
ENDBRANCH  11  12
ENDBRANCH   7  11
ENDBRANCH   2   3
TORSDOF 12
ENDMDL
MODEL      178
REMARK 921   NORMALIZED FREE ENERGY PREDICTED BY IDOCK:   -4.30 KCAL/MOL
REMARK 922        TOTAL FREE ENERGY PREDICTED BY IDOCK:   -9.54 KCAL/MOL
REMARK 923 INTER-LIGAND FREE ENERGY PREDICTED BY IDOCK:   -7.49 KCAL/MOL
REMARK 924 INTRA-LIGAND FREE ENERGY PREDICTED BY IDOCK:   -2.04 KCAL/MOL
REMARK 927      BINDING AFFINITY PREDICTED BY RF-SCORE:    0.00 PKD
ROOT
HETATM    1  C   UNL     1     -11.904  11.302  69.351  1.00  0.00    -0.355 C  
HETATM    2  O   UNL     1     -12.077  11.747  68.010  1.00  0.00    -0.572 OA 
ENDROOT
BRANCH   2   3
HETATM    3  C   UNL     1     -11.197  11.241  67.083  1.00  0.00    -0.275 A  
HETATM    4  C   UNL     1     -10.784  11.852  65.887  1.00  0.00    -0.284 A  
HETATM    5  C   UNL     1      -9.891   9.265  66.518  1.00  0.00    -0.331 A  
HETATM    6  C   UNL     1      -9.916  11.156  65.028  1.00  0.00    -0.325 A  
HETATM    7  C   UNL     1      -9.457   9.867  65.331  1.00  0.00    -0.319 A  
HETATM    8  C   UNL     1     -10.758   9.946  67.380  1.00  0.00    -0.323 A  
BRANCH   4   9
HETATM    9  O   UNL     1     -11.297  13.086  65.589  1.00  0.00    -0.291 OA 
HETATM   10  C   UNL     1     -12.450  13.141  64.760  1.00  0.00    -0.402 C  
ENDBRANCH   4   9
BRANCH   7  11
HETATM   11  C   UNL     1      -8.654   9.088  64.290  1.00  0.00    -0.171 C  
BRANCH  11  12
HETATM   12  C   UNL     1      -7.696   8.166  65.055  1.00  0.00    -0.113 C  
BRANCH  12  13
HETATM   13  N   UNL     1      -7.452   6.770  64.677  1.00  0.00    -0.090 NA 
HETATM   14  C   UNL     1      -6.133   6.294  65.090  1.00  0.00    -0.030 C  
BRANCH  13  15
HETATM   15  C   UNL     1      -8.518   5.863  65.182  1.00  0.00    -0.130 C  
BRANCH  15  16
HETATM   16  C   UNL     1      -8.321   5.072  66.514  1.00  0.00    -0.107 C  
BRANCH  16  17
HETATM   17  C   UNL     1      -8.629   5.871  67.800  1.00  0.00    -0.105 C  
BRANCH  17  18
HETATM   18  C   UNL     1      -8.702   5.131  69.165  1.00  0.00    -0.103 C  
HETATM   19  N   UNL     1      -9.486   2.646  68.601  1.00  0.00    -0.175 NA 
HETATM   20  C   UNL     1      -7.246   4.994  69.824  1.00  0.00    -0.055 C  
HETATM   21  C   UNL     1      -9.150   3.727  68.861  1.00  0.00    -0.142 C  
HETATM   22  C   UNL     1      -6.538   6.306  70.197  1.00  0.00    -0.045 C  
HETATM   23  C   UNL     1      -6.250   4.211  68.941  1.00  0.00    -0.032 C  
BRANCH  18  24
HETATM   24  C   UNL     1      -9.705   5.883  70.047  1.00  0.00    -0.209 A  
HETATM   25  C   UNL     1     -10.215   5.320  71.230  1.00  0.00    -0.291 A  
HETATM   26  C   UNL     1     -11.267   5.910  71.937  1.00  0.00    -0.264 A  
HETATM   27  C   UNL     1     -10.261   7.101  69.617  1.00  0.00    -0.215 A  
HETATM   28  C   UNL     1     -11.810   7.120  71.472  1.00  0.00    -0.313 A  
HETATM   29  C   UNL     1     -11.283   7.716  70.332  1.00  0.00    -0.258 A  
BRANCH  26  30
HETATM   30  O   UNL     1     -11.835   5.362  73.058  1.00  0.00    -0.236 OA 
HETATM   31  C   UNL     1     -11.151   4.275  73.671  1.00  0.00    -0.267 C  
ENDBRANCH  26  30
BRANCH  28  32
HETATM   32  O   UNL     1     -12.874   7.629  72.177  1.00  0.00    -0.241 OA 
HETATM   33  C   UNL     1     -14.142   7.598  71.531  1.00  0.00    -0.421 C  
ENDBRANCH  28  32
ENDBRANCH  18  24
ENDBRANCH  17  18
ENDBRANCH  16  17
ENDBRANCH  15  16
ENDBRANCH  13  15
ENDBRANCH  12  13
ENDBRANCH  11  12
ENDBRANCH   7  11
ENDBRANCH   2   3
TORSDOF 12
ENDMDL
MODEL      179
REMARK 921   NORMALIZED FREE ENERGY PREDICTED BY IDOCK:   -4.29 KCAL/MOL
REMARK 922        TOTAL FREE ENERGY PREDICTED BY IDOCK:   -9.52 KCAL/MOL
REMARK 923 INTER-LIGAND FREE ENERGY PREDICTED BY IDOCK:   -7.69 KCAL/MOL
REMARK 924 INTRA-LIGAND FREE ENERGY PREDICTED BY IDOCK:   -1.83 KCAL/MOL
REMARK 927      BINDING AFFINITY PREDICTED BY RF-SCORE:    0.00 PKD
ROOT
HETATM    1  C   UNL     1      -9.001   4.736  71.277  1.00  0.00    -0.129 C  
HETATM    2  O   UNL     1      -7.679   5.156  70.955  1.00  0.00    -0.083 OA 
ENDROOT
BRANCH   2   3
HETATM    3  C   UNL     1      -7.557   6.404  70.393  1.00  0.00    -0.096 A  
HETATM    4  C   UNL     1      -7.518   6.716  69.024  1.00  0.00    -0.095 A  
HETATM    5  C   UNL     1      -7.198   8.751  70.932  1.00  0.00    -0.083 A  
HETATM    6  C   UNL     1      -7.329   8.052  68.632  1.00  0.00    -0.089 A  
HETATM    7  C   UNL     1      -7.173   9.081  69.572  1.00  0.00    -0.060 A  
HETATM    8  C   UNL     1      -7.381   7.424  71.335  1.00  0.00    -0.079 A  
BRANCH   4   9
HETATM    9  O   UNL     1      -7.612   5.682  68.130  1.00  0.00    -0.080 OA 
HETATM   10  C   UNL     1      -8.714   5.681  67.234  1.00  0.00    -0.107 C  
ENDBRANCH   4   9
BRANCH   7  11
HETATM   11  C   UNL     1      -6.804  10.486  69.098  1.00  0.00    -0.074 C  
BRANCH  11  12
HETATM   12  C   UNL     1      -6.137  10.338  67.724  1.00  0.00    -0.056 C  
BRANCH  12  13
HETATM   13  N   UNL     1      -6.518  11.140  66.556  1.00  0.00    -0.132 NA 
HETATM   14  C   UNL     1      -5.765  10.782  65.355  1.00  0.00    -0.103 C  
BRANCH  13  15
HETATM   15  C   UNL     1      -7.980  11.081  66.295  1.00  0.00    -0.148 C  
BRANCH  15  16
HETATM   16  C   UNL     1      -8.895  12.302  66.626  1.00  0.00    -0.167 C  
BRANCH  16  17
HETATM   17  C   UNL     1      -9.470  12.317  68.061  1.00  0.00    -0.206 C  
BRANCH  17  18
HETATM   18  C   UNL     1     -10.989  12.075  68.282  1.00  0.00    -0.275 C  
HETATM   19  N   UNL     1     -12.108  12.239  65.868  1.00  0.00    -0.620 NA 
HETATM   20  C   UNL     1     -11.265  10.580  68.793  1.00  0.00    -0.317 C  
HETATM   21  C   UNL     1     -11.635  12.171  66.926  1.00  0.00    -0.341 C  
HETATM   22  C   UNL     1     -10.668  10.203  70.159  1.00  0.00    -0.355 C  
HETATM   23  C   UNL     1     -10.777   9.498  67.805  1.00  0.00    -0.302 C  
BRANCH  18  24
HETATM   24  C   UNL     1     -11.496  13.155  69.245  1.00  0.00    -0.348 A  
HETATM   25  C   UNL     1     -11.115  14.501  69.110  1.00  0.00    -0.284 A  
HETATM   26  C   UNL     1     -11.413  15.456  70.087  1.00  0.00    -0.317 A  
HETATM   27  C   UNL     1     -12.240  12.803  70.385  1.00  0.00    -0.371 A  
HETATM   28  C   UNL     1     -12.146  15.069  71.221  1.00  0.00    -0.328 A  
HETATM   29  C   UNL     1     -12.574  13.751  71.345  1.00  0.00    -0.433 A  
BRANCH  26  30
HETATM   30  O   UNL     1     -11.007  16.764  70.025  1.00  0.00    -0.275 OA 
HETATM   31  C   UNL     1     -10.471  17.222  68.788  1.00  0.00    -0.340 C  
ENDBRANCH  26  30
BRANCH  28  32
HETATM   32  O   UNL     1     -12.368  16.036  72.172  1.00  0.00    -0.445 OA 
HETATM   33  C   UNL     1     -12.705  15.582  73.478  1.00  0.00    -0.553 C  
ENDBRANCH  28  32
ENDBRANCH  18  24
ENDBRANCH  17  18
ENDBRANCH  16  17
ENDBRANCH  15  16
ENDBRANCH  13  15
ENDBRANCH  12  13
ENDBRANCH  11  12
ENDBRANCH   7  11
ENDBRANCH   2   3
TORSDOF 12
ENDMDL
MODEL      180
REMARK 921   NORMALIZED FREE ENERGY PREDICTED BY IDOCK:   -4.29 KCAL/MOL
REMARK 922        TOTAL FREE ENERGY PREDICTED BY IDOCK:   -9.52 KCAL/MOL
REMARK 923 INTER-LIGAND FREE ENERGY PREDICTED BY IDOCK:   -7.41 KCAL/MOL
REMARK 924 INTRA-LIGAND FREE ENERGY PREDICTED BY IDOCK:   -2.11 KCAL/MOL
REMARK 927      BINDING AFFINITY PREDICTED BY RF-SCORE:    0.00 PKD
ROOT
HETATM    1  C   UNL     1     -14.282  12.591  72.232  1.00  0.00     0.382 C  
HETATM    2  O   UNL     1     -12.902  12.919  72.355  1.00  0.00    -0.190 OA 
ENDROOT
BRANCH   2   3
HETATM    3  C   UNL     1     -12.417  13.854  71.472  1.00  0.00    -0.297 A  
HETATM    4  C   UNL     1     -12.108  13.657  70.116  1.00  0.00    -0.361 A  
HETATM    5  C   UNL     1     -11.614  16.147  71.316  1.00  0.00    -0.470 A  
HETATM    6  C   UNL     1     -11.564  14.721  69.377  1.00  0.00    -0.342 A  
HETATM    7  C   UNL     1     -11.317  15.972  69.959  1.00  0.00    -0.353 A  
HETATM    8  C   UNL     1     -12.153  15.094  72.064  1.00  0.00    -0.453 A  
BRANCH   4   9
HETATM    9  O   UNL     1     -12.304  12.407  69.591  1.00  0.00    -0.135 OA 
HETATM   10  C   UNL     1     -11.319  11.417  69.854  1.00  0.00    -0.219 C  
ENDBRANCH   4   9
BRANCH   7  11
HETATM   11  C   UNL     1     -10.571  17.041  69.162  1.00  0.00    -0.303 C  
BRANCH  11  12
HETATM   12  C   UNL     1     -10.442  16.524  67.723  1.00  0.00    -0.308 C  
BRANCH  12  13
HETATM   13  N   UNL     1      -9.160  16.151  67.116  1.00  0.00    -0.199 NA 
HETATM   14  C   UNL     1      -8.086  16.019  68.100  1.00  0.00    -0.147 C  
BRANCH  13  15
HETATM   15  C   UNL     1      -9.272  14.916  66.295  1.00  0.00    -0.265 C  
BRANCH  15  16
HETATM   16  C   UNL     1      -9.362  13.515  66.977  1.00  0.00    -0.247 C  
BRANCH  16  17
HETATM   17  C   UNL     1      -8.879  12.332  66.107  1.00  0.00     0.062 C  
BRANCH  17  18
HETATM   18  C   UNL     1      -9.858  11.170  65.779  1.00  0.00    -0.279 C  
HETATM   19  N   UNL     1     -12.299  12.242  65.833  1.00  0.00    -0.519 NA 
HETATM   20  C   UNL     1      -9.643  10.642  64.280  1.00  0.00    -0.350 C  
HETATM   21  C   UNL     1     -11.241  11.761  65.812  1.00  0.00    -0.281 C  
HETATM   22  C   UNL     1      -8.273  10.019  63.964  1.00  0.00    -0.156 C  
HETATM   23  C   UNL     1      -9.868  11.733  63.211  1.00  0.00    -0.402 C  
BRANCH  18  24
HETATM   24  C   UNL     1      -9.663  10.086  66.845  1.00  0.00    -0.237 A  
HETATM   25  C   UNL     1      -8.492  10.012  67.617  1.00  0.00    -0.114 A  
HETATM   26  C   UNL     1      -8.223   8.922  68.452  1.00  0.00    -0.117 A  
HETATM   27  C   UNL     1     -10.594   9.039  66.976  1.00  0.00    -0.270 A  
HETATM   28  C   UNL     1      -9.166   7.885  68.549  1.00  0.00    -0.138 A  
HETATM   29  C   UNL     1     -10.354   7.969  67.830  1.00  0.00    -0.294 A  
BRANCH  26  30
HETATM   30  O   UNL     1      -7.065   8.780  69.174  1.00  0.00    -0.061 OA 
HETATM   31  C   UNL     1      -5.868   8.539  68.443  1.00  0.00    -0.041 C  
ENDBRANCH  26  30
BRANCH  28  32
HETATM   32  O   UNL     1      -8.829   6.817  69.344  1.00  0.00    -0.135 OA 
HETATM   33  C   UNL     1      -9.781   6.426  70.327  1.00  0.00    -0.167 C  
ENDBRANCH  28  32
ENDBRANCH  18  24
ENDBRANCH  17  18
ENDBRANCH  16  17
ENDBRANCH  15  16
ENDBRANCH  13  15
ENDBRANCH  12  13
ENDBRANCH  11  12
ENDBRANCH   7  11
ENDBRANCH   2   3
TORSDOF 12
ENDMDL
MODEL      181
REMARK 921   NORMALIZED FREE ENERGY PREDICTED BY IDOCK:   -4.29 KCAL/MOL
REMARK 922        TOTAL FREE ENERGY PREDICTED BY IDOCK:   -9.51 KCAL/MOL
REMARK 923 INTER-LIGAND FREE ENERGY PREDICTED BY IDOCK:   -8.26 KCAL/MOL
REMARK 924 INTRA-LIGAND FREE ENERGY PREDICTED BY IDOCK:   -1.25 KCAL/MOL
REMARK 927      BINDING AFFINITY PREDICTED BY RF-SCORE:    0.00 PKD
ROOT
HETATM    1  C   UNL     1     -13.876  15.907  72.792  1.00  0.00    -0.459 C  
HETATM    2  O   UNL     1     -13.466  15.731  71.440  1.00  0.00    -0.511 OA 
ENDROOT
BRANCH   2   3
HETATM    3  C   UNL     1     -13.031  14.474  71.094  1.00  0.00    -0.346 A  
HETATM    4  C   UNL     1     -12.305  14.116  69.947  1.00  0.00    -0.327 A  
HETATM    5  C   UNL     1     -13.134  12.133  71.754  1.00  0.00    -0.457 A  
HETATM    6  C   UNL     1     -11.995  12.763  69.728  1.00  0.00    -0.362 A  
HETATM    7  C   UNL     1     -12.396  11.761  70.624  1.00  0.00    -0.421 A  
HETATM    8  C   UNL     1     -13.452  13.476  71.980  1.00  0.00    -0.584 A  
BRANCH   4   9
HETATM    9  O   UNL     1     -11.980  15.108  69.060  1.00  0.00    -0.309 OA 
HETATM   10  C   UNL     1     -11.703  14.732  67.718  1.00  0.00    -0.343 C  
ENDBRANCH   4   9
BRANCH   7  11
HETATM   11  C   UNL     1     -12.182  10.293  70.258  1.00  0.00    -0.298 C  
BRANCH  11  12
HETATM   12  C   UNL     1     -11.955   9.529  71.569  1.00  0.00    -0.399 C  
BRANCH  12  13
HETATM   13  N   UNL     1     -11.290   8.224  71.633  1.00  0.00    -0.258 NA 
HETATM   14  C   UNL     1     -11.184   7.710  72.997  1.00  0.00    -0.333 C  
BRANCH  13  15
HETATM   15  C   UNL     1     -11.942   7.223  70.746  1.00  0.00    -0.272 C  
BRANCH  15  16
HETATM   16  C   UNL     1     -11.157   6.591  69.553  1.00  0.00    -0.425 C  
BRANCH  16  17
HETATM   17  C   UNL     1     -10.503   5.223  69.853  1.00  0.00    -0.351 C  
BRANCH  17  18
HETATM   18  C   UNL     1      -8.958   5.076  69.771  1.00  0.00    -0.141 C  
HETATM   19  N   UNL     1      -7.979   6.615  71.717  1.00  0.00    -0.102 NA 
HETATM   20  C   UNL     1      -8.502   3.579  70.124  1.00  0.00    -0.096 C  
HETATM   21  C   UNL     1      -8.392   5.945  70.861  1.00  0.00    -0.126 C  
HETATM   22  C   UNL     1      -8.990   2.474  69.173  1.00  0.00    -0.169 C  
HETATM   23  C   UNL     1      -8.921   3.133  71.541  1.00  0.00    -0.151 C  
BRANCH  18  24
HETATM   24  C   UNL     1      -8.522   5.537  68.376  1.00  0.00    -0.101 A  
HETATM   25  C   UNL     1      -7.754   6.699  68.189  1.00  0.00    -0.105 A  
HETATM   26  C   UNL     1      -7.514   7.231  66.918  1.00  0.00    -0.097 A  
HETATM   27  C   UNL     1      -9.007   4.888  67.226  1.00  0.00    -0.113 A  
HETATM   28  C   UNL     1      -8.026   6.567  65.790  1.00  0.00    -0.115 A  
HETATM   29  C   UNL     1      -8.744   5.388  65.956  1.00  0.00    -0.137 A  
BRANCH  26  30
HETATM   30  O   UNL     1      -6.825   8.396  66.695  1.00  0.00    -0.066 OA 
HETATM   31  C   UNL     1      -7.244   9.548  67.418  1.00  0.00    -0.087 C  
ENDBRANCH  26  30
BRANCH  28  32
HETATM   32  O   UNL     1      -7.803   7.161  64.571  1.00  0.00    -0.114 OA 
HETATM   33  C   UNL     1      -7.576   6.289  63.469  1.00  0.00    -0.087 C  
ENDBRANCH  28  32
ENDBRANCH  18  24
ENDBRANCH  17  18
ENDBRANCH  16  17
ENDBRANCH  15  16
ENDBRANCH  13  15
ENDBRANCH  12  13
ENDBRANCH  11  12
ENDBRANCH   7  11
ENDBRANCH   2   3
TORSDOF 12
ENDMDL
MODEL      182
REMARK 921   NORMALIZED FREE ENERGY PREDICTED BY IDOCK:   -4.28 KCAL/MOL
REMARK 922        TOTAL FREE ENERGY PREDICTED BY IDOCK:   -9.51 KCAL/MOL
REMARK 923 INTER-LIGAND FREE ENERGY PREDICTED BY IDOCK:   -8.33 KCAL/MOL
REMARK 924 INTRA-LIGAND FREE ENERGY PREDICTED BY IDOCK:   -1.18 KCAL/MOL
REMARK 927      BINDING AFFINITY PREDICTED BY RF-SCORE:    0.00 PKD
ROOT
HETATM    1  C   UNL     1      -9.912  18.786  66.743  1.00  0.00    -0.358 C  
HETATM    2  O   UNL     1     -10.581  18.019  65.746  1.00  0.00    -0.528 OA 
ENDROOT
BRANCH   2   3
HETATM    3  C   UNL     1     -10.739  16.680  66.012  1.00  0.00    -0.151 A  
HETATM    4  C   UNL     1     -10.931  16.085  67.270  1.00  0.00    -0.207 A  
HETATM    5  C   UNL     1     -10.697  14.475  64.980  1.00  0.00    -0.444 A  
HETATM    6  C   UNL     1     -11.016  14.684  67.358  1.00  0.00    -0.309 A  
HETATM    7  C   UNL     1     -10.906  13.867  66.224  1.00  0.00    -0.290 A  
HETATM    8  C   UNL     1     -10.608  15.868  64.880  1.00  0.00    -0.281 A  
BRANCH   4   9
HETATM    9  O   UNL     1     -10.973  16.904  68.366  1.00  0.00    -0.356 OA 
HETATM   10  C   UNL     1     -10.788  16.311  69.643  1.00  0.00    -0.345 C  
ENDBRANCH   4   9
BRANCH   7  11
HETATM   11  C   UNL     1     -10.835  12.350  66.392  1.00  0.00    -0.291 C  
BRANCH  11  12
HETATM   12  C   UNL     1      -9.442  11.908  65.926  1.00  0.00    -0.214 C  
BRANCH  12  13
HETATM   13  N   UNL     1      -9.124  10.529  65.542  1.00  0.00    -0.177 NA 
HETATM   14  C   UNL     1      -7.781  10.123  65.954  1.00  0.00    -0.127 C  
BRANCH  13  15
HETATM   15  C   UNL     1     -10.139   9.564  66.041  1.00  0.00    -0.249 C  
BRANCH  15  16
HETATM   16  C   UNL     1      -9.891   8.762  67.357  1.00  0.00    -0.250 C  
BRANCH  16  17
HETATM   17  C   UNL     1     -10.887   9.057  68.501  1.00  0.00    -0.061 C  
BRANCH  17  18
HETATM   18  C   UNL     1     -10.361   9.610  69.855  1.00  0.00    -0.282 C  
HETATM   19  N   UNL     1      -8.245  11.115  69.249  1.00  0.00     0.006 NA 
HETATM   20  C   UNL     1     -11.428  10.602  70.526  1.00  0.00    -0.407 C  
HETATM   21  C   UNL     1      -9.161  10.458  69.528  1.00  0.00    -0.120 C  
HETATM   22  C   UNL     1     -12.778   9.985  70.924  1.00  0.00    -0.414 C  
HETATM   23  C   UNL     1     -11.764  11.823  69.642  1.00  0.00    -0.413 C  
BRANCH  18  24
HETATM   24  C   UNL     1     -10.001   8.409  70.737  1.00  0.00    -0.222 A  
HETATM   25  C   UNL     1     -10.180   7.088  70.294  1.00  0.00    -0.206 A  
HETATM   26  C   UNL     1     -10.037   5.993  71.153  1.00  0.00    -0.194 A  
HETATM   27  C   UNL     1      -9.619   8.598  72.077  1.00  0.00    -0.385 A  
HETATM   28  C   UNL     1      -9.670   6.217  72.491  1.00  0.00    -0.156 A  
HETATM   29  C   UNL     1      -9.439   7.516  72.931  1.00  0.00    -0.239 A  
BRANCH  26  30
HETATM   30  O   UNL     1     -10.265   4.694  70.779  1.00  0.00    -0.215 OA 
HETATM   31  C   UNL     1      -9.705   4.265  69.542  1.00  0.00    -0.201 C  
ENDBRANCH  26  30
BRANCH  28  32
HETATM   32  O   UNL     1      -9.592   5.110  73.302  1.00  0.00    -0.140 OA 
HETATM   33  C   UNL     1      -8.293   4.726  73.735  1.00  0.00    -0.105 C  
ENDBRANCH  28  32
ENDBRANCH  18  24
ENDBRANCH  17  18
ENDBRANCH  16  17
ENDBRANCH  15  16
ENDBRANCH  13  15
ENDBRANCH  12  13
ENDBRANCH  11  12
ENDBRANCH   7  11
ENDBRANCH   2   3
TORSDOF 12
ENDMDL
MODEL      183
REMARK 921   NORMALIZED FREE ENERGY PREDICTED BY IDOCK:   -4.28 KCAL/MOL
REMARK 922        TOTAL FREE ENERGY PREDICTED BY IDOCK:   -9.50 KCAL/MOL
REMARK 923 INTER-LIGAND FREE ENERGY PREDICTED BY IDOCK:   -8.62 KCAL/MOL
REMARK 924 INTRA-LIGAND FREE ENERGY PREDICTED BY IDOCK:   -0.88 KCAL/MOL
REMARK 927      BINDING AFFINITY PREDICTED BY RF-SCORE:    0.00 PKD
ROOT
HETATM    1  C   UNL     1     -14.409  13.863  72.424  1.00  0.00    -0.302 C  
HETATM    2  O   UNL     1     -13.328  13.135  71.852  1.00  0.00    -0.435 OA 
ENDROOT
BRANCH   2   3
HETATM    3  C   UNL     1     -12.465  13.850  71.057  1.00  0.00    -0.377 A  
HETATM    4  C   UNL     1     -11.769  13.384  69.930  1.00  0.00    -0.267 A  
HETATM    5  C   UNL     1     -11.351  16.006  70.846  1.00  0.00    -0.421 A  
HETATM    6  C   UNL     1     -10.878  14.248  69.270  1.00  0.00    -0.241 A  
HETATM    7  C   UNL     1     -10.663  15.561  69.711  1.00  0.00    -0.301 A  
HETATM    8  C   UNL     1     -12.238  15.154  71.514  1.00  0.00    -0.404 A  
BRANCH   4   9
HETATM    9  O   UNL     1     -11.953  12.078  69.559  1.00  0.00    -0.303 OA 
HETATM   10  C   UNL     1     -11.543  11.068  70.469  1.00  0.00    -0.245 C  
ENDBRANCH   4   9
BRANCH   7  11
HETATM   11  C   UNL     1      -9.564  16.404  69.065  1.00  0.00    -0.264 C  
BRANCH  11  12
HETATM   12  C   UNL     1     -10.244  17.336  68.054  1.00  0.00    -0.332 C  
BRANCH  12  13
HETATM   13  N   UNL     1      -9.714  17.585  66.709  1.00  0.00    -0.282 NA 
HETATM   14  C   UNL     1      -8.262  17.750  66.696  1.00  0.00    -0.259 C  
BRANCH  13  15
HETATM   15  C   UNL     1     -10.131  16.534  65.743  1.00  0.00    -0.303 C  
BRANCH  15  16
HETATM   16  C   UNL     1      -9.418  15.145  65.725  1.00  0.00    -0.285 C  
BRANCH  16  17
HETATM   17  C   UNL     1     -10.065  14.091  64.799  1.00  0.00    -0.224 C  
BRANCH  17  18
HETATM   18  C   UNL     1     -10.734  12.831  65.418  1.00  0.00    -0.309 C  
HETATM   19  N   UNL     1     -12.899  13.716  66.698  1.00  0.00     0.104 NA 
HETATM   20  C   UNL     1     -11.272  11.844  64.274  1.00  0.00    -0.424 C  
HETATM   21  C   UNL     1     -11.956  13.318  66.149  1.00  0.00    -0.418 C  
HETATM   22  C   UNL     1     -10.211  11.232  63.345  1.00  0.00    -0.454 C  
HETATM   23  C   UNL     1     -12.319  12.499  63.348  1.00  0.00    -0.577 C  
BRANCH  18  24
HETATM   24  C   UNL     1      -9.714  12.181  66.359  1.00  0.00    -0.243 A  
HETATM   25  C   UNL     1      -8.684  12.925  66.960  1.00  0.00    -0.195 A  
HETATM   26  C   UNL     1      -7.641  12.312  67.662  1.00  0.00    -0.144 A  
HETATM   27  C   UNL     1      -9.691  10.785  66.531  1.00  0.00    -0.236 A  
HETATM   28  C   UNL     1      -7.639  10.915  67.803  1.00  0.00    -0.095 A  
HETATM   29  C   UNL     1      -8.679  10.168  67.258  1.00  0.00    -0.130 A  
BRANCH  26  30
HETATM   30  O   UNL     1      -6.584  12.995  68.209  1.00  0.00    -0.076 OA 
HETATM   31  C   UNL     1      -6.237  14.241  67.615  1.00  0.00    -0.081 C  
ENDBRANCH  26  30
BRANCH  28  32
HETATM   32  O   UNL     1      -6.565  10.362  68.459  1.00  0.00    -0.052 OA 
HETATM   33  C   UNL     1      -6.851   9.320  69.385  1.00  0.00    -0.049 C  
ENDBRANCH  28  32
ENDBRANCH  18  24
ENDBRANCH  17  18
ENDBRANCH  16  17
ENDBRANCH  15  16
ENDBRANCH  13  15
ENDBRANCH  12  13
ENDBRANCH  11  12
ENDBRANCH   7  11
ENDBRANCH   2   3
TORSDOF 12
ENDMDL
MODEL      184
REMARK 921   NORMALIZED FREE ENERGY PREDICTED BY IDOCK:   -4.27 KCAL/MOL
REMARK 922        TOTAL FREE ENERGY PREDICTED BY IDOCK:   -9.49 KCAL/MOL
REMARK 923 INTER-LIGAND FREE ENERGY PREDICTED BY IDOCK:   -7.88 KCAL/MOL
REMARK 924 INTRA-LIGAND FREE ENERGY PREDICTED BY IDOCK:   -1.61 KCAL/MOL
REMARK 927      BINDING AFFINITY PREDICTED BY RF-SCORE:    0.00 PKD
ROOT
HETATM    1  C   UNL     1     -10.367  16.792  66.126  1.00  0.00    -0.330 C  
HETATM    2  O   UNL     1     -10.708  15.711  65.264  1.00  0.00    -0.376 OA 
ENDROOT
BRANCH   2   3
HETATM    3  C   UNL     1     -10.862  14.482  65.861  1.00  0.00    -0.308 A  
HETATM    4  C   UNL     1     -11.305  13.296  65.252  1.00  0.00    -0.295 A  
HETATM    5  C   UNL     1     -10.762  13.337  68.008  1.00  0.00    -0.254 A  
HETATM    6  C   UNL     1     -11.458  12.140  66.038  1.00  0.00    -0.427 A  
HETATM    7  C   UNL     1     -11.185  12.143  67.413  1.00  0.00    -0.362 A  
HETATM    8  C   UNL     1     -10.610  14.495  67.237  1.00  0.00    -0.280 A  
BRANCH   4   9
HETATM    9  O   UNL     1     -11.621  13.340  63.920  1.00  0.00    -0.405 OA 
HETATM   10  C   UNL     1     -12.444  12.304  63.402  1.00  0.00    -0.481 C  
ENDBRANCH   4   9
BRANCH   7  11
HETATM   11  C   UNL     1     -11.527  10.912  68.252  1.00  0.00    -0.376 C  
BRANCH  11  12
HETATM   12  C   UNL     1     -12.016  11.415  69.616  1.00  0.00    -0.348 C  
BRANCH  12  13
HETATM   13  N   UNL     1     -11.930  10.618  70.844  1.00  0.00    -0.356 NA 
HETATM   14  C   UNL     1     -13.042  10.868  71.758  1.00  0.00    -0.459 C  
BRANCH  13  15
HETATM   15  C   UNL     1     -11.804   9.164  70.555  1.00  0.00    -0.095 C  
BRANCH  15  16
HETATM   16  C   UNL     1     -10.402   8.480  70.525  1.00  0.00    -0.226 C  
BRANCH  16  17
HETATM   17  C   UNL     1      -9.202   9.443  70.673  1.00  0.00    -0.303 C  
BRANCH  17  18
HETATM   18  C   UNL     1      -7.866   9.123  69.945  1.00  0.00    -0.091 C  
HETATM   19  N   UNL     1      -6.068  10.813  70.956  1.00  0.00    -0.353 NA 
HETATM   20  C   UNL     1      -7.345   7.653  70.316  1.00  0.00    -0.071 C  
HETATM   21  C   UNL     1      -6.842  10.075  70.502  1.00  0.00    -0.104 C  
HETATM   22  C   UNL     1      -8.243   6.481  69.888  1.00  0.00    -0.126 C  
HETATM   23  C   UNL     1      -7.090   7.461  71.827  1.00  0.00    -0.063 C  
BRANCH  18  24
HETATM   24  C   UNL     1      -8.095   9.331  68.444  1.00  0.00    -0.106 A  
HETATM   25  C   UNL     1      -8.399   8.259  67.588  1.00  0.00    -0.127 A  
HETATM   26  C   UNL     1      -8.421   8.405  66.197  1.00  0.00    -0.131 A  
HETATM   27  C   UNL     1      -7.860  10.586  67.853  1.00  0.00    -0.105 A  
HETATM   28  C   UNL     1      -8.166   9.668  65.637  1.00  0.00    -0.120 A  
HETATM   29  C   UNL     1      -7.915  10.751  66.473  1.00  0.00    -0.144 A  
BRANCH  26  30
HETATM   30  O   UNL     1      -8.649   7.372  65.324  1.00  0.00    -0.104 OA 
HETATM   31  C   UNL     1      -8.596   6.051  65.851  1.00  0.00    -0.150 C  
ENDBRANCH  26  30
BRANCH  28  32
HETATM   32  O   UNL     1      -8.151   9.744  64.265  1.00  0.00    -0.134 OA 
HETATM   33  C   UNL     1      -9.195  10.494  63.656  1.00  0.00    -0.270 C  
ENDBRANCH  28  32
ENDBRANCH  18  24
ENDBRANCH  17  18
ENDBRANCH  16  17
ENDBRANCH  15  16
ENDBRANCH  13  15
ENDBRANCH  12  13
ENDBRANCH  11  12
ENDBRANCH   7  11
ENDBRANCH   2   3
TORSDOF 12
ENDMDL
MODEL      185
REMARK 921   NORMALIZED FREE ENERGY PREDICTED BY IDOCK:   -4.26 KCAL/MOL
REMARK 922        TOTAL FREE ENERGY PREDICTED BY IDOCK:   -9.48 KCAL/MOL
REMARK 923 INTER-LIGAND FREE ENERGY PREDICTED BY IDOCK:   -7.76 KCAL/MOL
REMARK 924 INTRA-LIGAND FREE ENERGY PREDICTED BY IDOCK:   -1.72 KCAL/MOL
REMARK 927      BINDING AFFINITY PREDICTED BY RF-SCORE:    0.00 PKD
ROOT
HETATM    1  C   UNL     1     -10.095  19.048  68.484  1.00  0.00    -0.400 C  
HETATM    2  O   UNL     1     -10.897  18.375  67.519  1.00  0.00    -0.408 OA 
ENDROOT
BRANCH   2   3
HETATM    3  C   UNL     1     -10.665  17.029  67.369  1.00  0.00    -0.240 A  
HETATM    4  C   UNL     1     -11.095  15.997  68.220  1.00  0.00    -0.351 A  
HETATM    5  C   UNL     1      -9.475  15.401  66.004  1.00  0.00    -0.381 A  
HETATM    6  C   UNL     1     -10.712  14.674  67.937  1.00  0.00    -0.250 A  
HETATM    7  C   UNL     1      -9.909  14.359  66.832  1.00  0.00    -0.263 A  
HETATM    8  C   UNL     1      -9.846  16.722  66.277  1.00  0.00    -0.327 A  
BRANCH   4   9
HETATM    9  O   UNL     1     -11.827  16.341  69.324  1.00  0.00    -0.231 OA 
HETATM   10  C   UNL     1     -12.183  15.307  70.231  1.00  0.00    -0.363 C  
ENDBRANCH   4   9
BRANCH   7  11
HETATM   11  C   UNL     1      -9.383  12.934  66.664  1.00  0.00    -0.240 C  
BRANCH  11  12
HETATM   12  C   UNL     1      -8.416  12.670  67.825  1.00  0.00    -0.172 C  
BRANCH  12  13
HETATM   13  N   UNL     1      -7.083  12.086  67.643  1.00  0.00    -0.107 NA 
HETATM   14  C   UNL     1      -6.025  13.093  67.608  1.00  0.00    -0.134 C  
BRANCH  13  15
HETATM   15  C   UNL     1      -6.785  11.049  68.667  1.00  0.00    -0.061 C  
BRANCH  15  16
HETATM   16  C   UNL     1      -7.941  10.369  69.467  1.00  0.00    -0.152 C  
BRANCH  16  17
HETATM   17  C   UNL     1      -8.510   9.082  68.827  1.00  0.00    -0.131 C  
BRANCH  17  18
HETATM   18  C   UNL     1     -10.029   8.774  68.943  1.00  0.00    -0.200 C  
HETATM   19  N   UNL     1     -11.200  11.103  69.505  1.00  0.00    -0.262 NA 
HETATM   20  C   UNL     1     -10.632   8.308  67.532  1.00  0.00    -0.291 C  
HETATM   21  C   UNL     1     -10.702  10.080  69.266  1.00  0.00    -0.224 C  
HETATM   22  C   UNL     1     -10.073   7.000  66.949  1.00  0.00    -0.296 C  
HETATM   23  C   UNL     1     -10.473   9.369  66.421  1.00  0.00    -0.165 C  
BRANCH  18  24
HETATM   24  C   UNL     1     -10.207   7.737  70.058  1.00  0.00    -0.210 A  
HETATM   25  C   UNL     1      -9.145   6.922  70.485  1.00  0.00    -0.156 A  
HETATM   26  C   UNL     1      -9.340   5.849  71.361  1.00  0.00    -0.149 A  
HETATM   27  C   UNL     1     -11.483   7.468  70.585  1.00  0.00    -0.291 A  
HETATM   28  C   UNL     1     -10.630   5.597  71.857  1.00  0.00    -0.232 A  
HETATM   29  C   UNL     1     -11.683   6.426  71.484  1.00  0.00    -0.369 A  
BRANCH  26  30
HETATM   30  O   UNL     1      -8.344   4.992  71.752  1.00  0.00    -0.112 OA 
HETATM   31  C   UNL     1      -7.259   5.546  72.488  1.00  0.00    -0.093 C  
ENDBRANCH  26  30
BRANCH  28  32
HETATM   32  O   UNL     1     -10.774   4.501  72.673  1.00  0.00    -0.200 OA 
HETATM   33  C   UNL     1     -10.713   4.737  74.075  1.00  0.00    -0.296 C  
ENDBRANCH  28  32
ENDBRANCH  18  24
ENDBRANCH  17  18
ENDBRANCH  16  17
ENDBRANCH  15  16
ENDBRANCH  13  15
ENDBRANCH  12  13
ENDBRANCH  11  12
ENDBRANCH   7  11
ENDBRANCH   2   3
TORSDOF 12
ENDMDL
MODEL      186
REMARK 921   NORMALIZED FREE ENERGY PREDICTED BY IDOCK:   -4.25 KCAL/MOL
REMARK 922        TOTAL FREE ENERGY PREDICTED BY IDOCK:   -9.45 KCAL/MOL
REMARK 923 INTER-LIGAND FREE ENERGY PREDICTED BY IDOCK:   -8.50 KCAL/MOL
REMARK 924 INTRA-LIGAND FREE ENERGY PREDICTED BY IDOCK:   -0.95 KCAL/MOL
REMARK 927      BINDING AFFINITY PREDICTED BY RF-SCORE:    0.00 PKD
ROOT
HETATM    1  C   UNL     1     -10.145  19.608  68.720  1.00  0.00    -0.437 C  
HETATM    2  O   UNL     1      -9.494  18.343  68.780  1.00  0.00    -0.329 OA 
ENDROOT
BRANCH   2   3
HETATM    3  C   UNL     1      -9.854  17.428  67.819  1.00  0.00    -0.283 A  
HETATM    4  C   UNL     1      -9.324  17.310  66.524  1.00  0.00    -0.264 A  
HETATM    5  C   UNL     1     -11.437  15.644  67.330  1.00  0.00    -0.037 A  
HETATM    6  C   UNL     1      -9.858  16.344  65.652  1.00  0.00    -0.222 A  
HETATM    7  C   UNL     1     -10.909  15.502  66.041  1.00  0.00    -0.301 A  
HETATM    8  C   UNL     1     -10.917  16.603  68.205  1.00  0.00    -0.341 A  
BRANCH   4   9
HETATM    9  O   UNL     1      -8.340  18.187  66.152  1.00  0.00    -0.440 OA 
HETATM   10  C   UNL     1      -7.022  17.679  66.007  1.00  0.00    -0.283 C  
ENDBRANCH   4   9
BRANCH   7  11
HETATM   11  C   UNL     1     -11.565  14.588  65.007  1.00  0.00    -0.382 C  
BRANCH  11  12
HETATM   12  C   UNL     1     -11.690  13.199  65.645  1.00  0.00    -0.364 C  
BRANCH  12  13
HETATM   13  N   UNL     1     -11.851  11.968  64.864  1.00  0.00    -0.285 NA 
HETATM   14  C   UNL     1     -12.406  12.211  63.534  1.00  0.00    -0.574 C  
BRANCH  13  15
HETATM   15  C   UNL     1     -10.581  11.199  64.769  1.00  0.00    -0.303 C  
BRANCH  15  16
HETATM   16  C   UNL     1     -10.171  10.203  65.899  1.00  0.00    -0.281 C  
BRANCH  16  17
HETATM   17  C   UNL     1      -9.042  10.700  66.829  1.00  0.00    -0.167 C  
BRANCH  17  18
HETATM   18  C   UNL     1      -9.209  10.584  68.370  1.00  0.00    -0.154 C  
HETATM   19  N   UNL     1      -6.765  10.893  69.391  1.00  0.00    -0.093 NA 
HETATM   20  C   UNL     1     -10.084  11.798  68.948  1.00  0.00    -0.088 C  
HETATM   21  C   UNL     1      -7.835  10.750  68.959  1.00  0.00    -0.138 C  
HETATM   22  C   UNL     1     -11.540  11.883  68.463  1.00  0.00    -0.375 C  
HETATM   23  C   UNL     1      -9.462  13.183  68.668  1.00  0.00    -0.012 C  
BRANCH  18  24
HETATM   24  C   UNL     1      -9.805   9.203  68.669  1.00  0.00    -0.175 A  
HETATM   25  C   UNL     1     -10.637   8.983  69.780  1.00  0.00    -0.236 A  
HETATM   26  C   UNL     1     -11.028   7.698  70.168  1.00  0.00    -0.246 A  
HETATM   27  C   UNL     1      -9.414   8.080  67.919  1.00  0.00    -0.161 A  
HETATM   28  C   UNL     1     -10.607   6.595  69.407  1.00  0.00    -0.240 A  
HETATM   29  C   UNL     1      -9.827   6.801  68.274  1.00  0.00    -0.144 A  
BRANCH  26  30
HETATM   30  O   UNL     1     -11.785   7.433  71.281  1.00  0.00    -0.270 OA 
HETATM   31  C   UNL     1     -11.407   8.075  72.494  1.00  0.00    -0.406 C  
ENDBRANCH  26  30
BRANCH  28  32
HETATM   32  O   UNL     1     -10.979   5.352  69.862  1.00  0.00    -0.250 OA 
HETATM   33  C   UNL     1      -9.946   4.530  70.390  1.00  0.00    -0.213 C  
ENDBRANCH  28  32
ENDBRANCH  18  24
ENDBRANCH  17  18
ENDBRANCH  16  17
ENDBRANCH  15  16
ENDBRANCH  13  15
ENDBRANCH  12  13
ENDBRANCH  11  12
ENDBRANCH   7  11
ENDBRANCH   2   3
TORSDOF 12
ENDMDL
MODEL      187
REMARK 921   NORMALIZED FREE ENERGY PREDICTED BY IDOCK:   -4.20 KCAL/MOL
REMARK 922        TOTAL FREE ENERGY PREDICTED BY IDOCK:   -9.36 KCAL/MOL
REMARK 923 INTER-LIGAND FREE ENERGY PREDICTED BY IDOCK:   -7.52 KCAL/MOL
REMARK 924 INTRA-LIGAND FREE ENERGY PREDICTED BY IDOCK:   -1.85 KCAL/MOL
REMARK 927      BINDING AFFINITY PREDICTED BY RF-SCORE:    0.00 PKD
ROOT
HETATM    1  C   UNL     1     -14.104  13.935  72.220  1.00  0.00    -0.535 C  
HETATM    2  O   UNL     1     -12.728  13.616  72.035  1.00  0.00    -0.278 OA 
ENDROOT
BRANCH   2   3
HETATM    3  C   UNL     1     -12.419  12.879  70.918  1.00  0.00    -0.296 A  
HETATM    4  C   UNL     1     -12.460  11.481  70.788  1.00  0.00    -0.349 A  
HETATM    5  C   UNL     1     -11.547  13.057  68.651  1.00  0.00    -0.354 A  
HETATM    6  C   UNL     1     -12.051  10.893  69.578  1.00  0.00    -0.380 A  
HETATM    7  C   UNL     1     -11.598  11.666  68.500  1.00  0.00    -0.379 A  
HETATM    8  C   UNL     1     -11.948  13.653  69.852  1.00  0.00    -0.415 A  
BRANCH   4   9
HETATM    9  O   UNL     1     -12.849  10.748  71.879  1.00  0.00    -0.436 OA 
HETATM   10  C   UNL     1     -13.446   9.480  71.645  1.00  0.00    -0.385 C  
ENDBRANCH   4   9
BRANCH   7  11
HETATM   11  C   UNL     1     -11.008  10.975  67.272  1.00  0.00    -0.356 C  
BRANCH  11  12
HETATM   12  C   UNL     1     -10.609   9.557  67.700  1.00  0.00    -0.269 C  
BRANCH  12  13
HETATM   13  N   UNL     1      -9.219   9.090  67.735  1.00  0.00    -0.140 NA 
HETATM   14  C   UNL     1      -8.349   9.837  66.829  1.00  0.00    -0.124 C  
BRANCH  13  15
HETATM   15  C   UNL     1      -8.665   9.093  69.115  1.00  0.00    -0.138 C  
BRANCH  15  16
HETATM   16  C   UNL     1      -8.202   7.762  69.787  1.00  0.00    -0.129 C  
BRANCH  16  17
HETATM   17  C   UNL     1      -8.329   6.503  68.900  1.00  0.00    -0.122 C  
BRANCH  17  18
HETATM   18  C   UNL     1      -9.459   5.474  69.184  1.00  0.00    -0.169 C  
HETATM   19  N   UNL     1     -11.490   6.884  70.182  1.00  0.00    -0.315 NA 
HETATM   20  C   UNL     1     -10.002   4.824  67.822  1.00  0.00    -0.169 C  
HETATM   21  C   UNL     1     -10.611   6.257  69.754  1.00  0.00    -0.264 C  
HETATM   22  C   UNL     1      -8.994   3.993  67.012  1.00  0.00    -0.143 C  
HETATM   23  C   UNL     1     -10.580   5.865  66.839  1.00  0.00    -0.384 C  
BRANCH  18  24
HETATM   24  C   UNL     1      -8.908   4.444  70.177  1.00  0.00    -0.126 A  
HETATM   25  C   UNL     1      -9.749   3.754  71.066  1.00  0.00    -0.248 A  
HETATM   26  C   UNL     1      -9.242   2.960  72.100  1.00  0.00    -0.096 A  
HETATM   27  C   UNL     1      -7.521   4.270  70.330  1.00  0.00    -0.046 A  
HETATM   28  C   UNL     1      -7.850   2.819  72.234  1.00  0.00    -0.054 A  
HETATM   29  C   UNL     1      -7.006   3.455  71.331  1.00  0.00    -0.032 A  
BRANCH  26  30
HETATM   30  O   UNL     1     -10.025   2.321  73.027  1.00  0.00    -0.100 OA 
HETATM   31  C   UNL     1     -11.102   3.060  73.590  1.00  0.00    -0.226 C  
ENDBRANCH  26  30
BRANCH  28  32
HETATM   32  O   UNL     1      -7.406   2.069  73.296  1.00  0.00    -0.031 OA 
HETATM   33  C   UNL     1      -6.737   2.770  74.338  1.00  0.00    -0.030 C  
ENDBRANCH  28  32
ENDBRANCH  18  24
ENDBRANCH  17  18
ENDBRANCH  16  17
ENDBRANCH  15  16
ENDBRANCH  13  15
ENDBRANCH  12  13
ENDBRANCH  11  12
ENDBRANCH   7  11
ENDBRANCH   2   3
TORSDOF 12
ENDMDL
MODEL      188
REMARK 921   NORMALIZED FREE ENERGY PREDICTED BY IDOCK:   -4.20 KCAL/MOL
REMARK 922        TOTAL FREE ENERGY PREDICTED BY IDOCK:   -9.36 KCAL/MOL
REMARK 923 INTER-LIGAND FREE ENERGY PREDICTED BY IDOCK:   -7.54 KCAL/MOL
REMARK 924 INTRA-LIGAND FREE ENERGY PREDICTED BY IDOCK:   -1.82 KCAL/MOL
REMARK 927      BINDING AFFINITY PREDICTED BY RF-SCORE:    0.00 PKD
ROOT
HETATM    1  C   UNL     1      -5.254  16.607  69.310  1.00  0.00    -0.130 C  
HETATM    2  O   UNL     1      -6.080  17.519  68.593  1.00  0.00    -0.165 OA 
ENDROOT
BRANCH   2   3
HETATM    3  C   UNL     1      -7.277  17.024  68.134  1.00  0.00    -0.186 A  
HETATM    4  C   UNL     1      -8.513  17.690  68.106  1.00  0.00    -0.260 A  
HETATM    5  C   UNL     1      -8.349  15.011  67.281  1.00  0.00    -0.228 A  
HETATM    6  C   UNL     1      -9.651  17.002  67.652  1.00  0.00    -0.249 A  
HETATM    7  C   UNL     1      -9.585  15.666  67.231  1.00  0.00    -0.220 A  
HETATM    8  C   UNL     1      -7.210  15.684  67.735  1.00  0.00    -0.175 A  
BRANCH   4   9
HETATM    9  O   UNL     1      -8.558  18.974  68.581  1.00  0.00    -0.347 OA 
HETATM   10  C   UNL     1      -8.462  20.032  67.637  1.00  0.00    -0.326 C  
ENDBRANCH   4   9
BRANCH   7  11
HETATM   11  C   UNL     1     -10.875  14.913  66.907  1.00  0.00    -0.319 C  
BRANCH  11  12
HETATM   12  C   UNL     1     -11.839  15.144  68.078  1.00  0.00    -0.202 C  
BRANCH  12  13
HETATM   13  N   UNL     1     -11.643  14.555  69.407  1.00  0.00    -0.285 NA 
HETATM   14  C   UNL     1     -12.261  15.344  70.471  1.00  0.00    -0.394 C  
BRANCH  13  15
HETATM   15  C   UNL     1     -12.110  13.144  69.464  1.00  0.00    -0.238 C  
BRANCH  15  16
HETATM   16  C   UNL     1     -11.624  12.105  68.404  1.00  0.00    -0.381 C  
BRANCH  16  17
HETATM   17  C   UNL     1     -10.145  11.678  68.538  1.00  0.00    -0.210 C  
BRANCH  17  18
HETATM   18  C   UNL     1      -9.657  10.374  67.846  1.00  0.00    -0.157 C  
HETATM   19  N   UNL     1     -10.601  10.479  65.354  1.00  0.00    -0.148 NA 
HETATM   20  C   UNL     1      -8.059  10.358  67.710  1.00  0.00    -0.103 C  
HETATM   21  C   UNL     1     -10.188  10.418  66.439  1.00  0.00    -0.230 C  
HETATM   22  C   UNL     1      -7.261  10.353  69.024  1.00  0.00    -0.088 C  
HETATM   23  C   UNL     1      -7.506  11.539  66.883  1.00  0.00    -0.145 C  
BRANCH  18  24
HETATM   24  C   UNL     1     -10.216   9.189  68.641  1.00  0.00    -0.225 A  
HETATM   25  C   UNL     1     -10.297   9.215  70.044  1.00  0.00    -0.231 A  
HETATM   26  C   UNL     1     -10.624   8.076  70.788  1.00  0.00    -0.214 A  
HETATM   27  C   UNL     1     -10.527   7.979  67.996  1.00  0.00    -0.243 A  
HETATM   28  C   UNL     1     -10.914   6.878  70.113  1.00  0.00    -0.281 A  
HETATM   29  C   UNL     1     -10.888   6.850  68.723  1.00  0.00    -0.238 A  
BRANCH  26  30
HETATM   30  O   UNL     1     -10.652   8.041  72.158  1.00  0.00    -0.233 OA 
HETATM   31  C   UNL     1      -9.402   8.089  72.837  1.00  0.00    -0.271 C  
ENDBRANCH  26  30
BRANCH  28  32
HETATM   32  O   UNL     1     -11.179   5.779  70.894  1.00  0.00    -0.245 OA 
HETATM   33  C   UNL     1     -10.217   4.731  70.869  1.00  0.00    -0.177 C  
ENDBRANCH  28  32
ENDBRANCH  18  24
ENDBRANCH  17  18
ENDBRANCH  16  17
ENDBRANCH  15  16
ENDBRANCH  13  15
ENDBRANCH  12  13
ENDBRANCH  11  12
ENDBRANCH   7  11
ENDBRANCH   2   3
TORSDOF 12
ENDMDL
MODEL      189
REMARK 921   NORMALIZED FREE ENERGY PREDICTED BY IDOCK:   -4.16 KCAL/MOL
REMARK 922        TOTAL FREE ENERGY PREDICTED BY IDOCK:   -9.30 KCAL/MOL
REMARK 923 INTER-LIGAND FREE ENERGY PREDICTED BY IDOCK:   -7.97 KCAL/MOL
REMARK 924 INTRA-LIGAND FREE ENERGY PREDICTED BY IDOCK:   -1.33 KCAL/MOL
REMARK 927      BINDING AFFINITY PREDICTED BY RF-SCORE:    0.00 PKD
ROOT
HETATM    1  C   UNL     1     -12.267  15.067  64.405  1.00  0.00    -0.337 C  
HETATM    2  O   UNL     1     -12.914  13.865  64.811  1.00  0.00    -0.686 OA 
ENDROOT
BRANCH   2   3
HETATM    3  C   UNL     1     -12.096  12.795  65.081  1.00  0.00    -0.450 A  
HETATM    4  C   UNL     1     -11.775  12.272  66.344  1.00  0.00    -0.365 A  
HETATM    5  C   UNL     1     -10.590  11.189  64.040  1.00  0.00    -0.436 A  
HETATM    6  C   UNL     1     -10.868  11.201  66.432  1.00  0.00    -0.284 A  
HETATM    7  C   UNL     1     -10.273  10.645  65.291  1.00  0.00    -0.351 A  
HETATM    8  C   UNL     1     -11.488  12.257  63.940  1.00  0.00    -0.512 A  
BRANCH   4   9
HETATM    9  O   UNL     1     -12.325  12.875  67.444  1.00  0.00    -0.286 OA 
HETATM   10  C   UNL     1     -11.520  13.799  68.164  1.00  0.00    -0.313 C  
ENDBRANCH   4   9
BRANCH   7  11
HETATM   11  C   UNL     1      -9.171   9.599  65.449  1.00  0.00    -0.295 C  
BRANCH  11  12
HETATM   12  C   UNL     1      -9.629   8.622  66.540  1.00  0.00    -0.237 C  
BRANCH  12  13
HETATM   13  N   UNL     1      -9.814   7.186  66.305  1.00  0.00    -0.031 NA 
HETATM   14  C   UNL     1      -8.587   6.417  66.506  1.00  0.00    -0.125 C  
BRANCH  13  15
HETATM   15  C   UNL     1     -10.923   6.627  67.124  1.00  0.00    -0.408 C  
BRANCH  15  16
HETATM   16  C   UNL     1     -10.620   5.676  68.325  1.00  0.00    -0.253 C  
BRANCH  16  17
HETATM   17  C   UNL     1     -11.134   6.172  69.696  1.00  0.00    -0.489 C  
BRANCH  17  18
HETATM   18  C   UNL     1     -10.126   6.739  70.734  1.00  0.00    -0.208 C  
HETATM   19  N   UNL     1      -9.663   9.259  69.993  1.00  0.00    -0.193 NA 
HETATM   20  C   UNL     1     -10.788   6.825  72.192  1.00  0.00    -0.257 C  
HETATM   21  C   UNL     1      -9.851   8.161  70.324  1.00  0.00    -0.184 C  
HETATM   22  C   UNL     1     -11.206   5.491  72.833  1.00  0.00    -0.358 C  
HETATM   23  C   UNL     1     -12.039   7.729  72.241  1.00  0.00    -0.332 C  
BRANCH  18  24
HETATM   24  C   UNL     1      -8.867   5.866  70.683  1.00  0.00    -0.144 A  
HETATM   25  C   UNL     1      -7.622   6.389  70.294  1.00  0.00    -0.096 A  
HETATM   26  C   UNL     1      -6.514   5.567  70.061  1.00  0.00    -0.034 A  
HETATM   27  C   UNL     1      -8.954   4.477  70.881  1.00  0.00    -0.165 A  
HETATM   28  C   UNL     1      -6.638   4.181  70.252  1.00  0.00    -0.032 A  
HETATM   29  C   UNL     1      -7.850   3.654  70.686  1.00  0.00    -0.053 A  
BRANCH  26  30
HETATM   30  O   UNL     1      -5.300   6.029  69.620  1.00  0.00    -0.011 OA 
HETATM   31  C   UNL     1      -5.242   6.545  68.295  1.00  0.00    -0.008 C  
ENDBRANCH  26  30
BRANCH  28  32
HETATM   32  O   UNL     1      -5.534   3.416  69.960  1.00  0.00    -0.014 OA 
HETATM   33  C   UNL     1      -5.637   2.550  68.836  1.00  0.00    -0.021 C  
ENDBRANCH  28  32
ENDBRANCH  18  24
ENDBRANCH  17  18
ENDBRANCH  16  17
ENDBRANCH  15  16
ENDBRANCH  13  15
ENDBRANCH  12  13
ENDBRANCH  11  12
ENDBRANCH   7  11
ENDBRANCH   2   3
TORSDOF 12
ENDMDL
MODEL      190
REMARK 921   NORMALIZED FREE ENERGY PREDICTED BY IDOCK:   -4.15 KCAL/MOL
REMARK 922        TOTAL FREE ENERGY PREDICTED BY IDOCK:   -9.28 KCAL/MOL
REMARK 923 INTER-LIGAND FREE ENERGY PREDICTED BY IDOCK:   -7.51 KCAL/MOL
REMARK 924 INTRA-LIGAND FREE ENERGY PREDICTED BY IDOCK:   -1.77 KCAL/MOL
REMARK 927      BINDING AFFINITY PREDICTED BY RF-SCORE:    0.00 PKD
ROOT
HETATM    1  C   UNL     1      -5.714  13.047  68.624  1.00  0.00    -0.069 C  
HETATM    2  O   UNL     1      -6.616  13.164  67.528  1.00  0.00    -0.159 OA 
ENDROOT
BRANCH   2   3
HETATM    3  C   UNL     1      -7.939  12.908  67.800  1.00  0.00    -0.162 A  
HETATM    4  C   UNL     1      -8.973  13.850  67.927  1.00  0.00    -0.191 A  
HETATM    5  C   UNL     1      -9.497  11.128  68.375  1.00  0.00    -0.189 A  
HETATM    6  C   UNL     1     -10.264  13.408  68.267  1.00  0.00    -0.250 A  
HETATM    7  C   UNL     1     -10.543  12.051  68.488  1.00  0.00    -0.252 A  
HETATM    8  C   UNL     1      -8.208  11.556  68.041  1.00  0.00    -0.143 A  
BRANCH   4   9
HETATM    9  O   UNL     1      -8.658  15.173  67.765  1.00  0.00    -0.146 OA 
HETATM   10  C   UNL     1      -8.832  16.036  68.880  1.00  0.00    -0.233 C  
ENDBRANCH   4   9
BRANCH   7  11
HETATM   11  C   UNL     1     -11.916  11.641  69.019  1.00  0.00    -0.368 C  
BRANCH  11  12
HETATM   12  C   UNL     1     -11.681  10.609  70.129  1.00  0.00    -0.332 C  
BRANCH  12  13
HETATM   13  N   UNL     1     -12.218  10.753  71.486  1.00  0.00    -0.267 NA 
HETATM   14  C   UNL     1     -12.989  11.983  71.661  1.00  0.00    -0.334 C  
BRANCH  13  15
HETATM   15  C   UNL     1     -13.020   9.570  71.897  1.00  0.00    -0.425 C  
BRANCH  15  16
HETATM   16  C   UNL     1     -12.331   8.337  72.562  1.00  0.00    -0.335 C  
BRANCH  16  17
HETATM   17  C   UNL     1     -11.869   7.237  71.579  1.00  0.00    -0.335 C  
BRANCH  17  18
HETATM   18  C   UNL     1     -10.361   6.871  71.491  1.00  0.00    -0.220 C  
HETATM   19  N   UNL     1      -9.036   9.084  72.169  1.00  0.00    -0.322 NA 
HETATM   20  C   UNL     1      -9.969   5.770  72.590  1.00  0.00    -0.198 C  
HETATM   21  C   UNL     1      -9.600   8.114  71.866  1.00  0.00    -0.201 C  
HETATM   22  C   UNL     1     -10.651   4.399  72.456  1.00  0.00    -0.203 C  
HETATM   23  C   UNL     1     -10.234   6.235  74.038  1.00  0.00    -0.327 C  
BRANCH  18  24
HETATM   24  C   UNL     1     -10.075   6.428  70.051  1.00  0.00    -0.208 A  
HETATM   25  C   UNL     1      -8.763   6.262  69.577  1.00  0.00    -0.132 A  
HETATM   26  C   UNL     1      -8.487   6.046  68.223  1.00  0.00    -0.112 A  
HETATM   27  C   UNL     1     -11.121   6.320  69.117  1.00  0.00    -0.457 A  
HETATM   28  C   UNL     1      -9.553   5.959  67.313  1.00  0.00    -0.116 A  
HETATM   29  C   UNL     1     -10.860   6.070  67.774  1.00  0.00    -0.380 A  
BRANCH  26  30
HETATM   30  O   UNL     1      -7.219   5.942  67.709  1.00  0.00    -0.072 OA 
HETATM   31  C   UNL     1      -6.266   5.208  68.470  1.00  0.00    -0.031 C  
ENDBRANCH  26  30
BRANCH  28  32
HETATM   32  O   UNL     1      -9.223   5.796  65.989  1.00  0.00    -0.161 OA 
HETATM   33  C   UNL     1      -9.538   4.539  65.402  1.00  0.00    -0.179 C  
ENDBRANCH  28  32
ENDBRANCH  18  24
ENDBRANCH  17  18
ENDBRANCH  16  17
ENDBRANCH  15  16
ENDBRANCH  13  15
ENDBRANCH  12  13
ENDBRANCH  11  12
ENDBRANCH   7  11
ENDBRANCH   2   3
TORSDOF 12
ENDMDL
MODEL      191
REMARK 921   NORMALIZED FREE ENERGY PREDICTED BY IDOCK:   -4.14 KCAL/MOL
REMARK 922        TOTAL FREE ENERGY PREDICTED BY IDOCK:   -9.27 KCAL/MOL
REMARK 923 INTER-LIGAND FREE ENERGY PREDICTED BY IDOCK:   -8.07 KCAL/MOL
REMARK 924 INTRA-LIGAND FREE ENERGY PREDICTED BY IDOCK:   -1.19 KCAL/MOL
REMARK 927      BINDING AFFINITY PREDICTED BY RF-SCORE:    0.00 PKD
ROOT
HETATM    1  C   UNL     1     -10.243  19.294  68.313  1.00  0.00    -0.418 C  
HETATM    2  O   UNL     1      -9.593  18.048  68.543  1.00  0.00    -0.310 OA 
ENDROOT
BRANCH   2   3
HETATM    3  C   UNL     1     -10.141  16.953  67.919  1.00  0.00    -0.288 A  
HETATM    4  C   UNL     1      -9.915  16.530  66.599  1.00  0.00    -0.276 A  
HETATM    5  C   UNL     1     -11.757  15.155  68.212  1.00  0.00    -0.336 A  
HETATM    6  C   UNL     1     -10.611  15.411  66.109  1.00  0.00    -0.321 A  
HETATM    7  C   UNL     1     -11.530  14.711  66.904  1.00  0.00    -0.372 A  
HETATM    8  C   UNL     1     -11.073  16.269  68.709  1.00  0.00    -0.355 A  
BRANCH   4   9
HETATM    9  O   UNL     1      -9.058  17.270  65.828  1.00  0.00    -0.523 OA 
HETATM   10  C   UNL     1      -7.670  17.190  66.119  1.00  0.00    -0.267 C  
ENDBRANCH   4   9
BRANCH   7  11
HETATM   11  C   UNL     1     -12.383  13.609  66.276  1.00  0.00    -0.464 C  
BRANCH  11  12
HETATM   12  C   UNL     1     -11.469  12.396  66.061  1.00  0.00    -0.382 C  
BRANCH  12  13
HETATM   13  N   UNL     1     -11.512  11.562  64.855  1.00  0.00    -0.127 NA 
HETATM   14  C   UNL     1     -12.059  12.269  63.699  1.00  0.00    -0.554 C  
BRANCH  13  15
HETATM   15  C   UNL     1     -10.182  10.981  64.533  1.00  0.00    -0.344 C  
BRANCH  15  16
HETATM   16  C   UNL     1      -9.161  10.658  65.669  1.00  0.00    -0.227 C  
BRANCH  16  17
HETATM   17  C   UNL     1      -9.508   9.418  66.525  1.00  0.00    -0.246 C  
BRANCH  17  18
HETATM   18  C   UNL     1      -8.412   8.767  67.414  1.00  0.00    -0.116 C  
HETATM   19  N   UNL     1      -6.087   9.692  66.490  1.00  0.00    -0.059 NA 
HETATM   20  C   UNL     1      -8.518   9.281  68.929  1.00  0.00    -0.129 C  
HETATM   21  C   UNL     1      -7.093   9.277  66.899  1.00  0.00    -0.082 C  
HETATM   22  C   UNL     1      -9.809   8.923  69.683  1.00  0.00    -0.182 C  
HETATM   23  C   UNL     1      -8.358  10.811  69.066  1.00  0.00    -0.138 C  
BRANCH  18  24
HETATM   24  C   UNL     1      -8.542   7.247  67.271  1.00  0.00    -0.121 A  
HETATM   25  C   UNL     1      -9.560   6.662  66.497  1.00  0.00    -0.187 A  
HETATM   26  C   UNL     1      -9.804   5.285  66.514  1.00  0.00    -0.185 A  
HETATM   27  C   UNL     1      -7.734   6.386  68.036  1.00  0.00    -0.104 A  
HETATM   28  C   UNL     1      -8.989   4.455  67.301  1.00  0.00    -0.120 A  
HETATM   29  C   UNL     1      -7.945   5.012  68.033  1.00  0.00    -0.090 A  
BRANCH  26  30
HETATM   30  O   UNL     1     -10.825   4.683  65.825  1.00  0.00    -0.293 OA 
HETATM   31  C   UNL     1     -10.556   4.273  64.489  1.00  0.00    -0.083 C  
ENDBRANCH  26  30
BRANCH  28  32
HETATM   32  O   UNL     1      -9.305   3.118  67.319  1.00  0.00    -0.191 OA 
HETATM   33  C   UNL     1      -9.177   2.449  68.569  1.00  0.00    -0.186 C  
ENDBRANCH  28  32
ENDBRANCH  18  24
ENDBRANCH  17  18
ENDBRANCH  16  17
ENDBRANCH  15  16
ENDBRANCH  13  15
ENDBRANCH  12  13
ENDBRANCH  11  12
ENDBRANCH   7  11
ENDBRANCH   2   3
TORSDOF 12
ENDMDL
MODEL      192
REMARK 921   NORMALIZED FREE ENERGY PREDICTED BY IDOCK:   -4.13 KCAL/MOL
REMARK 922        TOTAL FREE ENERGY PREDICTED BY IDOCK:   -9.24 KCAL/MOL
REMARK 923 INTER-LIGAND FREE ENERGY PREDICTED BY IDOCK:   -7.14 KCAL/MOL
REMARK 924 INTRA-LIGAND FREE ENERGY PREDICTED BY IDOCK:   -2.10 KCAL/MOL
REMARK 927      BINDING AFFINITY PREDICTED BY RF-SCORE:    0.00 PKD
ROOT
HETATM    1  C   UNL     1      -8.913   8.305  72.633  1.00  0.00    -0.246 C  
HETATM    2  O   UNL     1      -9.340   8.754  71.351  1.00  0.00    -0.210 OA 
ENDROOT
BRANCH   2   3
HETATM    3  C   UNL     1      -9.570   7.779  70.411  1.00  0.00    -0.175 A  
HETATM    4  C   UNL     1     -10.791   7.141  70.137  1.00  0.00    -0.257 A  
HETATM    5  C   UNL     1      -8.462   6.351  68.780  1.00  0.00    -0.121 A  
HETATM    6  C   UNL     1     -10.826   6.118  69.172  1.00  0.00    -0.418 A  
HETATM    7  C   UNL     1      -9.674   5.716  68.482  1.00  0.00    -0.172 A  
HETATM    8  C   UNL     1      -8.413   7.367  69.740  1.00  0.00    -0.136 A  
BRANCH   4   9
HETATM    9  O   UNL     1     -11.886   7.513  70.869  1.00  0.00    -0.292 OA 
HETATM   10  C   UNL     1     -12.263   6.686  71.962  1.00  0.00    -0.293 C  
ENDBRANCH   4   9
BRANCH   7  11
HETATM   11  C   UNL     1      -9.730   4.491  67.570  1.00  0.00    -0.213 C  
BRANCH  11  12
HETATM   12  C   UNL     1      -9.587   4.995  66.128  1.00  0.00    -0.168 C  
BRANCH  12  13
HETATM   13  N   UNL     1      -8.477   4.610  65.250  1.00  0.00    -0.123 NA 
HETATM   14  C   UNL     1      -8.926   3.937  64.033  1.00  0.00    -0.125 C  
BRANCH  13  15
HETATM   15  C   UNL     1      -7.604   5.767  64.917  1.00  0.00    -0.088 C  
BRANCH  15  16
HETATM   16  C   UNL     1      -8.197   7.209  64.832  1.00  0.00    -0.073 C  
BRANCH  16  17
HETATM   17  C   UNL     1      -7.293   8.322  65.410  1.00  0.00    -0.083 C  
BRANCH  17  18
HETATM   18  C   UNL     1      -7.627   9.812  65.116  1.00  0.00    -0.125 C  
HETATM   19  N   UNL     1      -5.551  11.213  66.031  1.00  0.00    -0.144 NA 
HETATM   20  C   UNL     1      -7.683  10.089  63.537  1.00  0.00    -0.146 C  
HETATM   21  C   UNL     1      -6.465  10.615  65.633  1.00  0.00    -0.090 C  
HETATM   22  C   UNL     1      -8.774   9.345  62.751  1.00  0.00    -0.231 C  
HETATM   23  C   UNL     1      -6.353   9.776  62.817  1.00  0.00    -0.107 C  
BRANCH  18  24
HETATM   24  C   UNL     1      -8.934  10.146  65.843  1.00  0.00    -0.182 A  
HETATM   25  C   UNL     1      -9.491  11.436  65.804  1.00  0.00    -0.256 A  
HETATM   26  C   UNL     1     -10.571  11.801  66.614  1.00  0.00    -0.240 A  
HETATM   27  C   UNL     1      -9.536   9.205  66.698  1.00  0.00    -0.263 A  
HETATM   28  C   UNL     1     -11.141  10.841  67.468  1.00  0.00    -0.308 A  
HETATM   29  C   UNL     1     -10.634   9.546  67.480  1.00  0.00    -0.338 A  
BRANCH  26  30
HETATM   30  O   UNL     1     -11.104  13.064  66.654  1.00  0.00    -0.278 OA 
HETATM   31  C   UNL     1     -11.020  13.843  65.466  1.00  0.00    -0.302 C  
ENDBRANCH  26  30
BRANCH  28  32
HETATM   32  O   UNL     1     -12.167  11.267  68.277  1.00  0.00    -0.611 OA 
HETATM   33  C   UNL     1     -12.083  10.914  69.653  1.00  0.00    -0.329 C  
ENDBRANCH  28  32
ENDBRANCH  18  24
ENDBRANCH  17  18
ENDBRANCH  16  17
ENDBRANCH  15  16
ENDBRANCH  13  15
ENDBRANCH  12  13
ENDBRANCH  11  12
ENDBRANCH   7  11
ENDBRANCH   2   3
TORSDOF 12
ENDMDL
MODEL      193
REMARK 921   NORMALIZED FREE ENERGY PREDICTED BY IDOCK:   -4.12 KCAL/MOL
REMARK 922        TOTAL FREE ENERGY PREDICTED BY IDOCK:   -9.24 KCAL/MOL
REMARK 923 INTER-LIGAND FREE ENERGY PREDICTED BY IDOCK:   -7.74 KCAL/MOL
REMARK 924 INTRA-LIGAND FREE ENERGY PREDICTED BY IDOCK:   -1.49 KCAL/MOL
REMARK 927      BINDING AFFINITY PREDICTED BY RF-SCORE:    0.00 PKD
ROOT
HETATM    1  C   UNL     1      -9.565  20.795  67.348  1.00  0.00    -0.344 C  
HETATM    2  O   UNL     1      -8.587  20.013  68.026  1.00  0.00    -0.290 OA 
ENDROOT
BRANCH   2   3
HETATM    3  C   UNL     1      -8.806  18.657  68.054  1.00  0.00    -0.306 A  
HETATM    4  C   UNL     1      -7.846  17.642  67.910  1.00  0.00    -0.221 A  
HETATM    5  C   UNL     1     -10.561  16.973  68.166  1.00  0.00    -0.369 A  
HETATM    6  C   UNL     1      -8.264  16.299  67.909  1.00  0.00    -0.156 A  
HETATM    7  C   UNL     1      -9.615  15.949  68.041  1.00  0.00    -0.211 A  
HETATM    8  C   UNL     1     -10.158  18.312  68.166  1.00  0.00    -0.397 A  
BRANCH   4   9
HETATM    9  O   UNL     1      -6.542  18.016  67.722  1.00  0.00    -0.182 OA 
HETATM   10  C   UNL     1      -5.565  17.476  68.600  1.00  0.00    -0.158 C  
ENDBRANCH   4   9
BRANCH   7  11
HETATM   11  C   UNL     1     -10.036  14.490  67.864  1.00  0.00    -0.227 C  
BRANCH  11  12
HETATM   12  C   UNL     1     -11.335  14.491  67.048  1.00  0.00    -0.349 C  
BRANCH  12  13
HETATM   13  N   UNL     1     -11.458  13.851  65.734  1.00  0.00    -0.315 NA 
HETATM   14  C   UNL     1     -10.286  14.068  64.888  1.00  0.00    -0.409 C  
BRANCH  13  15
HETATM   15  C   UNL     1     -11.759  12.399  65.849  1.00  0.00    -0.419 C  
BRANCH  15  16
HETATM   16  C   UNL     1     -10.604  11.349  65.876  1.00  0.00    -0.317 C  
BRANCH  16  17
HETATM   17  C   UNL     1      -9.907  11.180  67.245  1.00  0.00    -0.198 C  
BRANCH  17  18
HETATM   18  C   UNL     1      -8.994   9.947  67.495  1.00  0.00    -0.141 C  
HETATM   19  N   UNL     1      -8.950   8.600  65.194  1.00  0.00    -0.120 NA 
HETATM   20  C   UNL     1      -7.479  10.397  67.770  1.00  0.00    -0.088 C  
HETATM   21  C   UNL     1      -8.965   9.174  66.204  1.00  0.00    -0.173 C  
HETATM   22  C   UNL     1      -7.237  11.248  69.027  1.00  0.00    -0.119 C  
HETATM   23  C   UNL     1      -6.857  11.187  66.598  1.00  0.00    -0.137 C  
BRANCH  18  24
HETATM   24  C   UNL     1      -9.611   9.138  68.642  1.00  0.00    -0.157 A  
HETATM   25  C   UNL     1      -9.448   7.745  68.735  1.00  0.00    -0.149 A  
HETATM   26  C   UNL     1     -10.159   6.977  69.661  1.00  0.00    -0.186 A  
HETATM   27  C   UNL     1     -10.486   9.751  69.557  1.00  0.00    -0.250 A  
HETATM   28  C   UNL     1     -11.037   7.618  70.551  1.00  0.00    -0.255 A  
HETATM   29  C   UNL     1     -11.171   9.001  70.507  1.00  0.00    -0.301 A  
BRANCH  26  30
HETATM   30  O   UNL     1     -10.078   5.610  69.743  1.00  0.00    -0.180 OA 
HETATM   31  C   UNL     1      -9.802   4.902  68.539  1.00  0.00    -0.141 C  
ENDBRANCH  26  30
BRANCH  28  32
HETATM   32  O   UNL     1     -11.747   6.810  71.407  1.00  0.00    -0.290 OA 
HETATM   33  C   UNL     1     -11.349   6.820  72.772  1.00  0.00    -0.190 C  
ENDBRANCH  28  32
ENDBRANCH  18  24
ENDBRANCH  17  18
ENDBRANCH  16  17
ENDBRANCH  15  16
ENDBRANCH  13  15
ENDBRANCH  12  13
ENDBRANCH  11  12
ENDBRANCH   7  11
ENDBRANCH   2   3
TORSDOF 12
ENDMDL
MODEL      194
REMARK 921   NORMALIZED FREE ENERGY PREDICTED BY IDOCK:   -4.11 KCAL/MOL
REMARK 922        TOTAL FREE ENERGY PREDICTED BY IDOCK:   -9.22 KCAL/MOL
REMARK 923 INTER-LIGAND FREE ENERGY PREDICTED BY IDOCK:   -8.47 KCAL/MOL
REMARK 924 INTRA-LIGAND FREE ENERGY PREDICTED BY IDOCK:   -0.75 KCAL/MOL
REMARK 927      BINDING AFFINITY PREDICTED BY RF-SCORE:    0.00 PKD
ROOT
HETATM    1  C   UNL     1      -6.638  17.797  66.119  1.00  0.00    -0.274 C  
HETATM    2  O   UNL     1      -7.221  17.586  67.400  1.00  0.00    -0.164 OA 
ENDROOT
BRANCH   2   3
HETATM    3  C   UNL     1      -8.448  16.966  67.416  1.00  0.00    -0.190 A  
HETATM    4  C   UNL     1      -9.656  17.494  67.897  1.00  0.00    -0.277 A  
HETATM    5  C   UNL     1      -9.563  14.852  66.951  1.00  0.00    -0.256 A  
HETATM    6  C   UNL     1     -10.808  16.688  67.886  1.00  0.00    -0.321 A  
HETATM    7  C   UNL     1     -10.779  15.369  67.412  1.00  0.00    -0.296 A  
HETATM    8  C   UNL     1      -8.409  15.643  66.961  1.00  0.00    -0.261 A  
BRANCH   4   9
HETATM    9  O   UNL     1      -9.640  18.764  68.410  1.00  0.00    -0.328 OA 
HETATM   10  C   UNL     1     -10.299  19.784  67.673  1.00  0.00    -0.441 C  
ENDBRANCH   4   9
BRANCH   7  11
HETATM   11  C   UNL     1     -12.013  14.482  67.576  1.00  0.00    -0.358 C  
BRANCH  11  12
HETATM   12  C   UNL     1     -11.511  13.056  67.838  1.00  0.00    -0.311 C  
BRANCH  12  13
HETATM   13  N   UNL     1     -11.798  11.927  66.946  1.00  0.00    -0.610 NA 
HETATM   14  C   UNL     1     -12.126  12.351  65.587  1.00  0.00    -0.329 C  
BRANCH  13  15
HETATM   15  C   UNL     1     -10.691  10.934  66.933  1.00  0.00    -0.264 C  
BRANCH  15  16
HETATM   16  C   UNL     1     -10.831   9.581  67.699  1.00  0.00    -0.253 C  
BRANCH  16  17
HETATM   17  C   UNL     1     -10.575   8.317  66.847  1.00  0.00    -0.302 C  
BRANCH  17  18
HETATM   18  C   UNL     1      -9.788   7.124  67.458  1.00  0.00    -0.192 C  
HETATM   19  N   UNL     1     -10.576   4.967  66.103  1.00  0.00    -0.319 NA 
HETATM   20  C   UNL     1      -8.215   7.268  67.180  1.00  0.00    -0.118 C  
HETATM   21  C   UNL     1     -10.228   5.897  66.706  1.00  0.00    -0.219 C  
HETATM   22  C   UNL     1      -7.518   8.483  67.813  1.00  0.00    -0.097 C  
HETATM   23  C   UNL     1      -7.864   7.314  65.677  1.00  0.00    -0.112 C  
BRANCH  18  24
HETATM   24  C   UNL     1     -10.143   7.050  68.948  1.00  0.00    -0.174 A  
HETATM   25  C   UNL     1      -9.162   7.172  69.947  1.00  0.00    -0.141 A  
HETATM   26  C   UNL     1      -9.442   6.916  71.293  1.00  0.00    -0.165 A  
HETATM   27  C   UNL     1     -11.445   6.707  69.355  1.00  0.00    -0.288 A  
HETATM   28  C   UNL     1     -10.749   6.560  71.665  1.00  0.00    -0.230 A  
HETATM   29  C   UNL     1     -11.742   6.486  70.695  1.00  0.00    -0.436 A  
BRANCH  26  30
HETATM   30  O   UNL     1      -8.501   6.961  72.290  1.00  0.00    -0.109 OA 
HETATM   31  C   UNL     1      -7.708   8.139  72.385  1.00  0.00    -0.122 C  
ENDBRANCH  26  30
BRANCH  28  32
HETATM   32  O   UNL     1     -10.956   6.272  72.993  1.00  0.00    -0.251 OA 
HETATM   33  C   UNL     1     -11.494   4.990  73.291  1.00  0.00    -0.259 C  
ENDBRANCH  28  32
ENDBRANCH  18  24
ENDBRANCH  17  18
ENDBRANCH  16  17
ENDBRANCH  15  16
ENDBRANCH  13  15
ENDBRANCH  12  13
ENDBRANCH  11  12
ENDBRANCH   7  11
ENDBRANCH   2   3
TORSDOF 12
ENDMDL
MODEL      195
REMARK 921   NORMALIZED FREE ENERGY PREDICTED BY IDOCK:   -4.11 KCAL/MOL
REMARK 922        TOTAL FREE ENERGY PREDICTED BY IDOCK:   -9.21 KCAL/MOL
REMARK 923 INTER-LIGAND FREE ENERGY PREDICTED BY IDOCK:   -7.62 KCAL/MOL
REMARK 924 INTRA-LIGAND FREE ENERGY PREDICTED BY IDOCK:   -1.59 KCAL/MOL
REMARK 927      BINDING AFFINITY PREDICTED BY RF-SCORE:    0.00 PKD
ROOT
HETATM    1  C   UNL     1      -7.966   5.434  66.512  1.00  0.00    -0.105 C  
HETATM    2  O   UNL     1      -9.171   5.109  67.198  1.00  0.00    -0.115 OA 
ENDROOT
BRANCH   2   3
HETATM    3  C   UNL     1      -9.347   5.696  68.428  1.00  0.00    -0.119 A  
HETATM    4  C   UNL     1      -9.688   5.055  69.630  1.00  0.00    -0.196 A  
HETATM    5  C   UNL     1      -9.429   7.850  69.560  1.00  0.00    -0.160 A  
HETATM    6  C   UNL     1      -9.884   5.829  70.787  1.00  0.00    -0.235 A  
HETATM    7  C   UNL     1      -9.752   7.225  70.770  1.00  0.00    -0.171 A  
HETATM    8  C   UNL     1      -9.235   7.091  68.402  1.00  0.00    -0.129 A  
BRANCH   4   9
HETATM    9  O   UNL     1      -9.869   3.698  69.602  1.00  0.00    -0.139 OA 
HETATM   10  C   UNL     1      -8.841   2.882  70.146  1.00  0.00    -0.086 C  
ENDBRANCH   4   9
BRANCH   7  11
HETATM   11  C   UNL     1     -10.139   8.034  72.008  1.00  0.00    -0.280 C  
BRANCH  11  12
HETATM   12  C   UNL     1     -10.683   9.381  71.516  1.00  0.00    -0.297 C  
BRANCH  12  13
HETATM   13  N   UNL     1     -12.064   9.572  71.061  1.00  0.00    -0.310 NA 
HETATM   14  C   UNL     1     -13.034   9.487  72.152  1.00  0.00    -0.412 C  
BRANCH  13  15
HETATM   15  C   UNL     1     -12.232  10.843  70.308  1.00  0.00    -0.348 C  
BRANCH  15  16
HETATM   16  C   UNL     1     -11.295  11.182  69.106  1.00  0.00    -0.340 C  
BRANCH  16  17
HETATM   17  C   UNL     1     -11.866  12.211  68.103  1.00  0.00    -0.362 C  
BRANCH  17  18
HETATM   18  C   UNL     1     -11.001  12.667  66.895  1.00  0.00    -0.297 C  
HETATM   19  N   UNL     1     -12.710  13.060  64.887  1.00  0.00    -0.706 NA 
HETATM   20  C   UNL     1     -10.321  14.092  67.179  1.00  0.00    -0.265 C  
HETATM   21  C   UNL     1     -11.953  12.887  65.752  1.00  0.00    -0.443 C  
HETATM   22  C   UNL     1      -9.319  14.151  68.344  1.00  0.00    -0.208 C  
HETATM   23  C   UNL     1     -11.348  15.214  67.445  1.00  0.00    -0.309 C  
BRANCH  18  24
HETATM   24  C   UNL     1      -9.989  11.553  66.603  1.00  0.00    -0.236 A  
HETATM   25  C   UNL     1      -8.612  11.729  66.824  1.00  0.00    -0.185 A  
HETATM   26  C   UNL     1      -7.667  10.797  66.384  1.00  0.00    -0.145 A  
HETATM   27  C   UNL     1     -10.397  10.370  65.961  1.00  0.00    -0.262 A  
HETATM   28  C   UNL     1      -8.106   9.632  65.732  1.00  0.00    -0.113 A  
HETATM   29  C   UNL     1      -9.468   9.419  65.552  1.00  0.00    -0.328 A  
BRANCH  26  30
HETATM   30  O   UNL     1      -6.312  10.960  66.523  1.00  0.00    -0.102 OA 
HETATM   31  C   UNL     1      -5.754  10.707  67.807  1.00  0.00    -0.043 C  
ENDBRANCH  26  30
BRANCH  28  32
HETATM   32  O   UNL     1      -7.132   8.776  65.278  1.00  0.00    -0.081 OA 
HETATM   33  C   UNL     1      -7.362   8.160  64.016  1.00  0.00    -0.100 C  
ENDBRANCH  28  32
ENDBRANCH  18  24
ENDBRANCH  17  18
ENDBRANCH  16  17
ENDBRANCH  15  16
ENDBRANCH  13  15
ENDBRANCH  12  13
ENDBRANCH  11  12
ENDBRANCH   7  11
ENDBRANCH   2   3
TORSDOF 12
ENDMDL
MODEL      196
REMARK 921   NORMALIZED FREE ENERGY PREDICTED BY IDOCK:   -4.09 KCAL/MOL
REMARK 922        TOTAL FREE ENERGY PREDICTED BY IDOCK:   -9.18 KCAL/MOL
REMARK 923 INTER-LIGAND FREE ENERGY PREDICTED BY IDOCK:   -8.02 KCAL/MOL
REMARK 924 INTRA-LIGAND FREE ENERGY PREDICTED BY IDOCK:   -1.16 KCAL/MOL
REMARK 927      BINDING AFFINITY PREDICTED BY RF-SCORE:    0.00 PKD
ROOT
HETATM    1  C   UNL     1     -14.274  15.509  72.364  1.00  0.00    -0.481 C  
HETATM    2  O   UNL     1     -13.463  15.410  71.198  1.00  0.00    -0.488 OA 
ENDROOT
BRANCH   2   3
HETATM    3  C   UNL     1     -12.962  14.163  70.909  1.00  0.00    -0.305 A  
HETATM    4  C   UNL     1     -12.244  13.785  69.763  1.00  0.00    -0.310 A  
HETATM    5  C   UNL     1     -12.907  11.860  71.698  1.00  0.00    -0.417 A  
HETATM    6  C   UNL     1     -11.858  12.442  69.609  1.00  0.00    -0.380 A  
HETATM    7  C   UNL     1     -12.176  11.470  70.569  1.00  0.00    -0.469 A  
HETATM    8  C   UNL     1     -13.300  13.193  71.859  1.00  0.00    -0.546 A  
BRANCH   4   9
HETATM    9  O   UNL     1     -12.001  14.743  68.815  1.00  0.00    -0.304 OA 
HETATM   10  C   UNL     1     -12.004  14.341  67.452  1.00  0.00    -0.391 C  
ENDBRANCH   4   9
BRANCH   7  11
HETATM   11  C   UNL     1     -11.883   9.999  70.278  1.00  0.00    -0.291 C  
BRANCH  11  12
HETATM   12  C   UNL     1     -11.842   9.271  71.627  1.00  0.00    -0.383 C  
BRANCH  12  13
HETATM   13  N   UNL     1     -11.170   7.982  71.823  1.00  0.00    -0.255 NA 
HETATM   14  C   UNL     1     -10.974   7.656  73.235  1.00  0.00    -0.274 C  
BRANCH  13  15
HETATM   15  C   UNL     1     -11.875   6.875  71.124  1.00  0.00    -0.349 C  
BRANCH  15  16
HETATM   16  C   UNL     1     -11.439   6.439  69.689  1.00  0.00    -0.446 C  
BRANCH  16  17
HETATM   17  C   UNL     1     -10.645   5.115  69.621  1.00  0.00    -0.156 C  
BRANCH  17  18
HETATM   18  C   UNL     1      -9.123   5.115  69.937  1.00  0.00    -0.162 C  
HETATM   19  N   UNL     1      -8.933   4.878  72.587  1.00  0.00    -0.127 NA 
HETATM   20  C   UNL     1      -8.408   3.815  69.328  1.00  0.00    -0.084 C  
HETATM   21  C   UNL     1      -9.001   4.988  71.432  1.00  0.00    -0.135 C  
HETATM   22  C   UNL     1      -8.428   3.680  67.796  1.00  0.00    -0.106 C  
HETATM   23  C   UNL     1      -8.981   2.491  69.878  1.00  0.00    -0.161 C  
BRANCH  18  24
HETATM   24  C   UNL     1      -8.542   6.435  69.418  1.00  0.00    -0.130 A  
HETATM   25  C   UNL     1      -8.464   6.716  68.043  1.00  0.00    -0.116 A  
HETATM   26  C   UNL     1      -7.766   7.824  67.553  1.00  0.00    -0.117 A  
HETATM   27  C   UNL     1      -7.932   7.343  70.301  1.00  0.00    -0.107 A  
HETATM   28  C   UNL     1      -7.154   8.704  68.461  1.00  0.00    -0.073 A  
HETATM   29  C   UNL     1      -7.266   8.468  69.827  1.00  0.00    -0.052 A  
BRANCH  26  30
HETATM   30  O   UNL     1      -7.611   8.100  66.218  1.00  0.00    -0.087 OA 
HETATM   31  C   UNL     1      -8.767   8.518  65.501  1.00  0.00    -0.174 C  
ENDBRANCH  26  30
BRANCH  28  32
HETATM   32  O   UNL     1      -6.440   9.748  67.924  1.00  0.00    -0.059 OA 
HETATM   33  C   UNL     1      -7.136  10.978  67.756  1.00  0.00    -0.086 C  
ENDBRANCH  28  32
ENDBRANCH  18  24
ENDBRANCH  17  18
ENDBRANCH  16  17
ENDBRANCH  15  16
ENDBRANCH  13  15
ENDBRANCH  12  13
ENDBRANCH  11  12
ENDBRANCH   7  11
ENDBRANCH   2   3
TORSDOF 12
ENDMDL
MODEL      197
REMARK 921   NORMALIZED FREE ENERGY PREDICTED BY IDOCK:   -4.09 KCAL/MOL
REMARK 922        TOTAL FREE ENERGY PREDICTED BY IDOCK:   -9.18 KCAL/MOL
REMARK 923 INTER-LIGAND FREE ENERGY PREDICTED BY IDOCK:   -7.99 KCAL/MOL
REMARK 924 INTRA-LIGAND FREE ENERGY PREDICTED BY IDOCK:   -1.19 KCAL/MOL
REMARK 927      BINDING AFFINITY PREDICTED BY RF-SCORE:    0.00 PKD
ROOT
HETATM    1  C   UNL     1     -10.171  16.595  65.906  1.00  0.00    -0.340 C  
HETATM    2  O   UNL     1     -10.508  15.444  65.138  1.00  0.00    -0.392 OA 
ENDROOT
BRANCH   2   3
HETATM    3  C   UNL     1     -10.698  14.279  65.840  1.00  0.00    -0.303 A  
HETATM    4  C   UNL     1     -10.824  12.984  65.311  1.00  0.00    -0.291 A  
HETATM    5  C   UNL     1     -11.093  13.398  68.076  1.00  0.00    -0.281 A  
HETATM    6  C   UNL     1     -11.074  11.910  66.183  1.00  0.00    -0.374 A  
HETATM    7  C   UNL     1     -11.204  12.099  67.566  1.00  0.00    -0.357 A  
HETATM    8  C   UNL     1     -10.849  14.476  67.217  1.00  0.00    -0.297 A  
BRANCH   4   9
HETATM    9  O   UNL     1     -10.752  12.838  63.951  1.00  0.00    -0.406 OA 
HETATM   10  C   UNL     1     -11.953  12.538  63.253  1.00  0.00    -0.426 C  
ENDBRANCH   4   9
BRANCH   7  11
HETATM   11  C   UNL     1     -11.641  10.931  68.449  1.00  0.00    -0.346 C  
BRANCH  11  12
HETATM   12  C   UNL     1     -12.242  11.530  69.727  1.00  0.00    -0.244 C  
BRANCH  12  13
HETATM   13  N   UNL     1     -12.143  10.885  71.040  1.00  0.00    -0.338 NA 
HETATM   14  C   UNL     1     -13.061  11.458  72.023  1.00  0.00    -0.318 C  
BRANCH  13  15
HETATM   15  C   UNL     1     -12.325   9.411  70.951  1.00  0.00    -0.193 C  
BRANCH  15  16
HETATM   16  C   UNL     1     -11.090   8.466  70.815  1.00  0.00    -0.286 C  
BRANCH  16  17
HETATM   17  C   UNL     1      -9.748   9.075  71.280  1.00  0.00    -0.371 C  
BRANCH  17  18
HETATM   18  C   UNL     1      -8.414   8.368  70.909  1.00  0.00    -0.158 C  
HETATM   19  N   UNL     1      -6.557  10.282  70.898  1.00  0.00    -0.343 NA 
HETATM   20  C   UNL     1      -7.973   7.334  72.053  1.00  0.00    -0.093 C  
HETATM   21  C   UNL     1      -7.357   9.439  70.893  1.00  0.00    -0.075 C  
HETATM   22  C   UNL     1      -8.917   6.148  72.304  1.00  0.00    -0.137 C  
HETATM   23  C   UNL     1      -7.759   8.003  73.429  1.00  0.00    -0.209 C  
BRANCH  18  24
HETATM   24  C   UNL     1      -8.602   7.717  69.534  1.00  0.00    -0.132 A  
HETATM   25  C   UNL     1      -9.012   8.461  68.415  1.00  0.00    -0.136 A  
HETATM   26  C   UNL     1      -9.369   7.849  67.209  1.00  0.00    -0.148 A  
HETATM   27  C   UNL     1      -8.513   6.321  69.388  1.00  0.00    -0.125 A  
HETATM   28  C   UNL     1      -9.284   6.451  67.101  1.00  0.00    -0.123 A  
HETATM   29  C   UNL     1      -8.831   5.704  68.183  1.00  0.00    -0.108 A  
BRANCH  26  30
HETATM   30  O   UNL     1      -9.834   8.532  66.115  1.00  0.00    -0.244 OA 
HETATM   31  C   UNL     1      -8.865   9.106  65.245  1.00  0.00    -0.199 C  
ENDBRANCH  26  30
BRANCH  28  32
HETATM   32  O   UNL     1      -9.695   5.898  65.911  1.00  0.00    -0.049 OA 
HETATM   33  C   UNL     1      -8.875   4.870  65.368  1.00  0.00    -0.149 C  
ENDBRANCH  28  32
ENDBRANCH  18  24
ENDBRANCH  17  18
ENDBRANCH  16  17
ENDBRANCH  15  16
ENDBRANCH  13  15
ENDBRANCH  12  13
ENDBRANCH  11  12
ENDBRANCH   7  11
ENDBRANCH   2   3
TORSDOF 12
ENDMDL
MODEL      198
REMARK 921   NORMALIZED FREE ENERGY PREDICTED BY IDOCK:   -4.08 KCAL/MOL
REMARK 922        TOTAL FREE ENERGY PREDICTED BY IDOCK:   -9.16 KCAL/MOL
REMARK 923 INTER-LIGAND FREE ENERGY PREDICTED BY IDOCK:   -6.88 KCAL/MOL
REMARK 924 INTRA-LIGAND FREE ENERGY PREDICTED BY IDOCK:   -2.28 KCAL/MOL
REMARK 927      BINDING AFFINITY PREDICTED BY RF-SCORE:    0.00 PKD
ROOT
HETATM    1  C   UNL     1      -8.961   3.706  68.827  1.00  0.00    -0.127 C  
HETATM    2  O   UNL     1      -8.455   4.465  69.920  1.00  0.00    -0.062 OA 
ENDROOT
BRANCH   2   3
HETATM    3  C   UNL     1      -9.331   5.348  70.505  1.00  0.00    -0.157 A  
HETATM    4  C   UNL     1      -9.261   5.872  71.806  1.00  0.00    -0.148 A  
HETATM    5  C   UNL     1     -11.439   6.515  70.154  1.00  0.00    -0.477 A  
HETATM    6  C   UNL     1     -10.284   6.724  72.257  1.00  0.00    -0.210 A  
HETATM    7  C   UNL     1     -11.375   7.059  71.442  1.00  0.00    -0.298 A  
HETATM    8  C   UNL     1     -10.428   5.663  69.696  1.00  0.00    -0.374 A  
BRANCH   4   9
HETATM    9  O   UNL     1      -8.215   5.479  72.599  1.00  0.00    -0.112 OA 
HETATM   10  C   UNL     1      -8.471   4.494  73.591  1.00  0.00    -0.104 C  
ENDBRANCH   4   9
BRANCH   7  11
HETATM   11  C   UNL     1     -12.542   7.849  72.033  1.00  0.00    -0.327 C  
BRANCH  11  12
HETATM   12  C   UNL     1     -12.115   9.322  72.074  1.00  0.00    -0.336 C  
BRANCH  12  13
HETATM   13  N   UNL     1     -12.753  10.366  71.264  1.00  0.00    -0.395 NA 
HETATM   14  C   UNL     1     -13.346  11.427  72.075  1.00  0.00    -0.283 C  
BRANCH  13  15
HETATM   15  C   UNL     1     -11.819  10.936  70.257  1.00  0.00    -0.361 C  
BRANCH  15  16
HETATM   16  C   UNL     1     -11.193  10.027  69.152  1.00  0.00    -0.197 C  
BRANCH  16  17
HETATM   17  C   UNL     1      -9.729  10.359  68.785  1.00  0.00    -0.184 C  
BRANCH  17  18
HETATM   18  C   UNL     1      -9.392  10.867  67.355  1.00  0.00    -0.166 C  
HETATM   19  N   UNL     1     -11.699  11.720  66.327  1.00  0.00    -0.470 NA 
HETATM   20  C   UNL     1      -8.433  12.152  67.412  1.00  0.00    -0.173 C  
HETATM   21  C   UNL     1     -10.688  11.347  66.760  1.00  0.00    -0.271 C  
HETATM   22  C   UNL     1      -7.039  11.938  68.024  1.00  0.00    -0.084 C  
HETATM   23  C   UNL     1      -9.054  13.341  68.176  1.00  0.00    -0.207 C  
BRANCH  18  24
HETATM   24  C   UNL     1      -8.794   9.691  66.574  1.00  0.00    -0.158 A  
HETATM   25  C   UNL     1      -8.604   9.749  65.183  1.00  0.00    -0.173 A  
HETATM   26  C   UNL     1      -8.242   8.623  64.437  1.00  0.00    -0.162 A  
HETATM   27  C   UNL     1      -8.557   8.459  67.210  1.00  0.00    -0.123 A  
HETATM   28  C   UNL     1      -8.028   7.403  65.101  1.00  0.00    -0.128 A  
HETATM   29  C   UNL     1      -8.162   7.341  66.484  1.00  0.00    -0.117 A  
BRANCH  26  30
HETATM   30  O   UNL     1      -8.108   8.621  63.073  1.00  0.00    -0.158 OA 
HETATM   31  C   UNL     1      -7.185   9.546  62.508  1.00  0.00    -0.099 C  
ENDBRANCH  26  30
BRANCH  28  32
HETATM   32  O   UNL     1      -7.723   6.318  64.314  1.00  0.00    -0.094 OA 
HETATM   33  C   UNL     1      -8.504   5.146  64.513  1.00  0.00    -0.141 C  
ENDBRANCH  28  32
ENDBRANCH  18  24
ENDBRANCH  17  18
ENDBRANCH  16  17
ENDBRANCH  15  16
ENDBRANCH  13  15
ENDBRANCH  12  13
ENDBRANCH  11  12
ENDBRANCH   7  11
ENDBRANCH   2   3
TORSDOF 12
ENDMDL
MODEL      199
REMARK 921   NORMALIZED FREE ENERGY PREDICTED BY IDOCK:   -4.07 KCAL/MOL
REMARK 922        TOTAL FREE ENERGY PREDICTED BY IDOCK:   -9.16 KCAL/MOL
REMARK 923 INTER-LIGAND FREE ENERGY PREDICTED BY IDOCK:   -8.02 KCAL/MOL
REMARK 924 INTRA-LIGAND FREE ENERGY PREDICTED BY IDOCK:   -1.13 KCAL/MOL
REMARK 927      BINDING AFFINITY PREDICTED BY RF-SCORE:    0.00 PKD
ROOT
HETATM    1  C   UNL     1      -8.648   8.769  68.036  1.00  0.00    -0.134 C  
HETATM    2  O   UNL     1     -10.061   8.762  67.861  1.00  0.00    -0.185 OA 
ENDROOT
BRANCH   2   3
HETATM    3  C   UNL     1     -10.757   9.763  68.495  1.00  0.00    -0.215 A  
HETATM    4  C   UNL     1     -11.262  10.939  67.916  1.00  0.00    -0.321 A  
HETATM    5  C   UNL     1     -11.524  10.515  70.680  1.00  0.00    -0.418 A  
HETATM    6  C   UNL     1     -11.903  11.884  68.736  1.00  0.00    -0.371 A  
HETATM    7  C   UNL     1     -12.047  11.684  70.116  1.00  0.00    -0.414 A  
HETATM    8  C   UNL     1     -10.880   9.569  69.875  1.00  0.00    -0.272 A  
BRANCH   4   9
HETATM    9  O   UNL     1     -11.053  11.134  66.577  1.00  0.00    -0.263 OA 
HETATM   10  C   UNL     1     -11.849  12.109  65.918  1.00  0.00    -0.272 C  
ENDBRANCH   4   9
BRANCH   7  11
HETATM   11  C   UNL     1     -12.599  12.812  70.988  1.00  0.00    -0.362 C  
BRANCH  11  12
HETATM   12  C   UNL     1     -12.404  14.120  70.210  1.00  0.00    -0.356 C  
BRANCH  12  13
HETATM   13  N   UNL     1     -12.490  15.445  70.834  1.00  0.00    -0.384 NA 
HETATM   14  C   UNL     1     -13.039  15.398  72.187  1.00  0.00    -0.406 C  
BRANCH  13  15
HETATM   15  C   UNL     1     -11.181  16.151  70.823  1.00  0.00    -0.328 C  
BRANCH  15  16
HETATM   16  C   UNL     1     -10.239  16.058  69.582  1.00  0.00    -0.265 C  
BRANCH  16  17
HETATM   17  C   UNL     1      -9.263  14.860  69.590  1.00  0.00     0.090 C  
BRANCH  17  18
HETATM   18  C   UNL     1      -7.899  14.975  68.853  1.00  0.00    -0.162 C  
HETATM   19  N   UNL     1      -6.034  14.532  70.707  1.00  0.00    -0.183 NA 
HETATM   20  C   UNL     1      -7.729  13.805  67.770  1.00  0.00    -0.172 C  
HETATM   21  C   UNL     1      -6.836  14.733  69.890  1.00  0.00    -0.158 C  
HETATM   22  C   UNL     1      -8.734  13.799  66.607  1.00  0.00    -0.026 C  
HETATM   23  C   UNL     1      -7.787  12.391  68.387  1.00  0.00    -0.142 C  
BRANCH  18  24
HETATM   24  C   UNL     1      -7.815  16.383  68.253  1.00  0.00    -0.168 A  
HETATM   25  C   UNL     1      -7.114  17.419  68.895  1.00  0.00    -0.251 A  
HETATM   26  C   UNL     1      -7.189  18.745  68.459  1.00  0.00    -0.292 A  
HETATM   27  C   UNL     1      -8.565  16.719  67.112  1.00  0.00    -0.217 A  
HETATM   28  C   UNL     1      -7.960  19.049  67.324  1.00  0.00    -0.254 A  
HETATM   29  C   UNL     1      -8.618  18.028  66.647  1.00  0.00    -0.281 A  
BRANCH  26  30
HETATM   30  O   UNL     1      -6.574  19.794  69.093  1.00  0.00    -0.310 OA 
HETATM   31  C   UNL     1      -6.529  19.759  70.515  1.00  0.00    -0.100 C  
ENDBRANCH  26  30
BRANCH  28  32
HETATM   32  O   UNL     1      -8.039  20.375  66.969  1.00  0.00    -0.321 OA 
HETATM   33  C   UNL     1      -9.335  20.962  66.981  1.00  0.00    -0.108 C  
ENDBRANCH  28  32
ENDBRANCH  18  24
ENDBRANCH  17  18
ENDBRANCH  16  17
ENDBRANCH  15  16
ENDBRANCH  13  15
ENDBRANCH  12  13
ENDBRANCH  11  12
ENDBRANCH   7  11
ENDBRANCH   2   3
TORSDOF 12
ENDMDL
MODEL      200
REMARK 921   NORMALIZED FREE ENERGY PREDICTED BY IDOCK:   -4.06 KCAL/MOL
REMARK 922        TOTAL FREE ENERGY PREDICTED BY IDOCK:   -9.13 KCAL/MOL
REMARK 923 INTER-LIGAND FREE ENERGY PREDICTED BY IDOCK:   -7.29 KCAL/MOL
REMARK 924 INTRA-LIGAND FREE ENERGY PREDICTED BY IDOCK:   -1.84 KCAL/MOL
REMARK 927      BINDING AFFINITY PREDICTED BY RF-SCORE:    0.00 PKD
ROOT
HETATM    1  C   UNL     1      -8.621   8.636  62.358  1.00  0.00    -0.162 C  
HETATM    2  O   UNL     1      -8.240   9.997  62.534  1.00  0.00    -0.126 OA 
ENDROOT
BRANCH   2   3
HETATM    3  C   UNL     1      -8.876  10.681  63.542  1.00  0.00    -0.184 A  
HETATM    4  C   UNL     1      -8.624  10.583  64.920  1.00  0.00    -0.172 A  
HETATM    5  C   UNL     1     -10.707  12.222  63.991  1.00  0.00    -0.438 A  
HETATM    6  C   UNL     1      -9.418  11.322  65.815  1.00  0.00    -0.252 A  
HETATM    7  C   UNL     1     -10.458  12.149  65.367  1.00  0.00    -0.305 A  
HETATM    8  C   UNL     1      -9.926  11.489  63.091  1.00  0.00    -0.404 A  
BRANCH   4   9
HETATM    9  O   UNL     1      -7.643   9.722  65.332  1.00  0.00    -0.110 OA 
HETATM   10  C   UNL     1      -8.041   8.548  66.026  1.00  0.00    -0.110 C  
ENDBRANCH   4   9
BRANCH   7  11
HETATM   11  C   UNL     1     -11.397  12.797  66.383  1.00  0.00    -0.369 C  
BRANCH  11  12
HETATM   12  C   UNL     1     -11.708  11.739  67.450  1.00  0.00    -0.230 C  
BRANCH  12  13
HETATM   13  N   UNL     1     -11.177  11.798  68.816  1.00  0.00    -0.230 NA 
HETATM   14  C   UNL     1     -12.154  12.303  69.780  1.00  0.00    -0.229 C  
BRANCH  13  15
HETATM   15  C   UNL     1     -10.635  10.486  69.260  1.00  0.00    -0.236 C  
BRANCH  15  16
HETATM   16  C   UNL     1     -10.925   9.953  70.698  1.00  0.00    -0.405 C  
BRANCH  16  17
HETATM   17  C   UNL     1     -11.176   8.430  70.792  1.00  0.00    -0.290 C  
BRANCH  17  18
HETATM   18  C   UNL     1      -9.986   7.472  71.076  1.00  0.00    -0.189 C  
HETATM   19  N   UNL     1      -7.907   9.046  71.637  1.00  0.00    -0.341 NA 
HETATM   20  C   UNL     1     -10.249   6.604  72.399  1.00  0.00    -0.200 C  
HETATM   21  C   UNL     1      -8.803   8.348  71.389  1.00  0.00    -0.181 C  
HETATM   22  C   UNL     1     -11.446   5.640  72.356  1.00  0.00    -0.309 C  
HETATM   23  C   UNL     1     -10.444   7.466  73.665  1.00  0.00    -0.350 C  
BRANCH  18  24
HETATM   24  C   UNL     1      -9.763   6.623  69.819  1.00  0.00    -0.168 A  
HETATM   25  C   UNL     1      -8.516   6.041  69.533  1.00  0.00    -0.119 A  
HETATM   26  C   UNL     1      -8.250   5.429  68.304  1.00  0.00    -0.095 A  
HETATM   27  C   UNL     1     -10.765   6.526  68.837  1.00  0.00    -0.318 A  
HETATM   28  C   UNL     1      -9.268   5.363  67.338  1.00  0.00    -0.111 A  
HETATM   29  C   UNL     1     -10.522   5.889  67.625  1.00  0.00    -0.301 A  
BRANCH  26  30
HETATM   30  O   UNL     1      -7.030   4.906  67.960  1.00  0.00    -0.058 OA 
HETATM   31  C   UNL     1      -6.052   5.809  67.458  1.00  0.00    -0.022 C  
ENDBRANCH  26  30
BRANCH  28  32
HETATM   32  O   UNL     1      -8.936   4.796  66.131  1.00  0.00    -0.117 OA 
HETATM   33  C   UNL     1      -9.898   3.923  65.550  1.00  0.00    -0.156 C  
ENDBRANCH  28  32
ENDBRANCH  18  24
ENDBRANCH  17  18
ENDBRANCH  16  17
ENDBRANCH  15  16
ENDBRANCH  13  15
ENDBRANCH  12  13
ENDBRANCH  11  12
ENDBRANCH   7  11
ENDBRANCH   2   3
TORSDOF 12
ENDMDL
MODEL      201
REMARK 921   NORMALIZED FREE ENERGY PREDICTED BY IDOCK:   -4.06 KCAL/MOL
REMARK 922        TOTAL FREE ENERGY PREDICTED BY IDOCK:   -9.13 KCAL/MOL
REMARK 923 INTER-LIGAND FREE ENERGY PREDICTED BY IDOCK:   -8.31 KCAL/MOL
REMARK 924 INTRA-LIGAND FREE ENERGY PREDICTED BY IDOCK:   -0.82 KCAL/MOL
REMARK 927      BINDING AFFINITY PREDICTED BY RF-SCORE:    0.00 PKD
ROOT
HETATM    1  C   UNL     1     -10.326   5.426  69.809  1.00  0.00    -0.305 C  
HETATM    2  O   UNL     1     -10.769   5.318  68.460  1.00  0.00    -0.093 OA 
ENDROOT
BRANCH   2   3
HETATM    3  C   UNL     1     -10.215   6.202  67.566  1.00  0.00    -0.178 A  
HETATM    4  C   UNL     1      -9.149   5.957  66.684  1.00  0.00    -0.134 A  
HETATM    5  C   UNL     1     -10.284   8.522  66.829  1.00  0.00    -0.370 A  
HETATM    6  C   UNL     1      -8.674   7.005  65.876  1.00  0.00    -0.140 A  
HETATM    7  C   UNL     1      -9.234   8.289  65.933  1.00  0.00    -0.185 A  
HETATM    8  C   UNL     1     -10.762   7.488  67.640  1.00  0.00    -0.266 A  
BRANCH   4   9
HETATM    9  O   UNL     1      -8.584   4.709  66.695  1.00  0.00    -0.109 OA 
HETATM   10  C   UNL     1      -9.345   3.633  66.165  1.00  0.00    -0.174 C  
ENDBRANCH   4   9
BRANCH   7  11
HETATM   11  C   UNL     1      -8.575   9.433  65.161  1.00  0.00    -0.188 C  
BRANCH  11  12
HETATM   12  C   UNL     1      -9.398  10.697  65.439  1.00  0.00    -0.210 C  
BRANCH  12  13
HETATM   13  N   UNL     1      -9.585  11.766  64.452  1.00  0.00    -0.124 NA 
HETATM   14  C   UNL     1      -9.849  11.254  63.108  1.00  0.00    -0.375 C  
BRANCH  13  15
HETATM   15  C   UNL     1     -10.644  12.725  64.864  1.00  0.00    -0.314 C  
BRANCH  15  16
HETATM   16  C   UNL     1     -10.273  14.181  65.289  1.00  0.00    -0.400 C  
BRANCH  16  17
HETATM   17  C   UNL     1     -10.936  14.668  66.598  1.00  0.00    -0.323 C  
BRANCH  17  18
HETATM   18  C   UNL     1     -10.147  14.589  67.934  1.00  0.00    -0.227 C  
HETATM   19  N   UNL     1      -7.876  13.315  67.361  1.00  0.00    -0.167 NA 
HETATM   20  C   UNL     1      -9.716  16.050  68.437  1.00  0.00    -0.213 C  
HETATM   21  C   UNL     1      -8.864  13.866  67.626  1.00  0.00    -0.191 C  
HETATM   22  C   UNL     1     -10.860  17.017  68.785  1.00  0.00    -0.258 C  
HETATM   23  C   UNL     1      -8.819  16.800  67.429  1.00  0.00    -0.209 C  
BRANCH  18  24
HETATM   24  C   UNL     1     -11.016  13.826  68.941  1.00  0.00    -0.281 A  
HETATM   25  C   UNL     1     -11.706  14.488  69.971  1.00  0.00    -0.359 A  
HETATM   26  C   UNL     1     -12.342  13.791  71.003  1.00  0.00    -0.372 A  
HETATM   27  C   UNL     1     -11.027  12.420  68.953  1.00  0.00    -0.268 A  
HETATM   28  C   UNL     1     -12.321  12.386  70.994  1.00  0.00    -0.210 A  
HETATM   29  C   UNL     1     -11.687  11.716  69.954  1.00  0.00    -0.414 A  
BRANCH  26  30
HETATM   30  O   UNL     1     -12.971  14.397  72.060  1.00  0.00    -0.321 OA 
HETATM   31  C   UNL     1     -12.184  15.248  72.886  1.00  0.00    -0.408 C  
ENDBRANCH  26  30
BRANCH  28  32
HETATM   32  O   UNL     1     -12.919  11.753  72.058  1.00  0.00    -0.408 OA 
HETATM   33  C   UNL     1     -13.603  10.538  71.775  1.00  0.00    -0.116 C  
ENDBRANCH  28  32
ENDBRANCH  18  24
ENDBRANCH  17  18
ENDBRANCH  16  17
ENDBRANCH  15  16
ENDBRANCH  13  15
ENDBRANCH  12  13
ENDBRANCH  11  12
ENDBRANCH   7  11
ENDBRANCH   2   3
TORSDOF 12
ENDMDL
MODEL      202
REMARK 921   NORMALIZED FREE ENERGY PREDICTED BY IDOCK:   -4.05 KCAL/MOL
REMARK 922        TOTAL FREE ENERGY PREDICTED BY IDOCK:   -9.12 KCAL/MOL
REMARK 923 INTER-LIGAND FREE ENERGY PREDICTED BY IDOCK:   -7.33 KCAL/MOL
REMARK 924 INTRA-LIGAND FREE ENERGY PREDICTED BY IDOCK:   -1.79 KCAL/MOL
REMARK 927      BINDING AFFINITY PREDICTED BY RF-SCORE:    0.00 PKD
ROOT
HETATM    1  C   UNL     1     -13.509   7.147  71.546  1.00  0.00    -0.332 C  
HETATM    2  O   UNL     1     -12.511   6.361  72.188  1.00  0.00    -0.291 OA 
ENDROOT
BRANCH   2   3
HETATM    3  C   UNL     1     -11.435   5.995  71.415  1.00  0.00    -0.199 A  
HETATM    4  C   UNL     1     -10.213   5.466  71.863  1.00  0.00    -0.203 A  
HETATM    5  C   UNL     1     -10.589   6.002  69.132  1.00  0.00    -0.362 A  
HETATM    6  C   UNL     1      -9.197   5.203  70.927  1.00  0.00    -0.188 A  
HETATM    7  C   UNL     1      -9.372   5.459  69.559  1.00  0.00    -0.166 A  
HETATM    8  C   UNL     1     -11.606   6.272  70.054  1.00  0.00    -0.378 A  
BRANCH   4   9
HETATM    9  O   UNL     1     -10.050   5.284  73.210  1.00  0.00    -0.164 OA 
HETATM   10  C   UNL     1      -8.757   4.925  73.678  1.00  0.00    -0.103 C  
ENDBRANCH   4   9
BRANCH   7  11
HETATM   11  C   UNL     1      -8.185   5.315  68.608  1.00  0.00    -0.093 C  
BRANCH  11  12
HETATM   12  C   UNL     1      -8.637   4.410  67.455  1.00  0.00    -0.104 C  
BRANCH  12  13
HETATM   13  N   UNL     1      -8.290   4.664  66.052  1.00  0.00    -0.113 NA 
HETATM   14  C   UNL     1      -8.617   3.539  65.177  1.00  0.00    -0.111 C  
BRANCH  13  15
HETATM   15  C   UNL     1      -8.907   5.918  65.545  1.00  0.00    -0.092 C  
BRANCH  15  16
HETATM   16  C   UNL     1      -8.349   7.309  65.982  1.00  0.00    -0.140 C  
BRANCH  16  17
HETATM   17  C   UNL     1      -9.422   8.341  66.400  1.00  0.00    -0.287 C  
BRANCH  17  18
HETATM   18  C   UNL     1      -8.992   9.789  66.770  1.00  0.00    -0.156 C  
HETATM   19  N   UNL     1      -6.435   9.619  67.507  1.00  0.00    -0.068 NA 
HETATM   20  C   UNL     1      -9.015  10.744  65.481  1.00  0.00    -0.210 C  
HETATM   21  C   UNL     1      -7.550   9.706  67.194  1.00  0.00    -0.091 C  
HETATM   22  C   UNL     1     -10.385  10.965  64.819  1.00  0.00    -0.391 C  
HETATM   23  C   UNL     1      -8.072  10.269  64.354  1.00  0.00    -0.149 C  
BRANCH  18  24
HETATM   24  C   UNL     1      -9.905  10.268  67.904  1.00  0.00    -0.181 A  
HETATM   25  C   UNL     1      -9.835   9.711  69.193  1.00  0.00    -0.189 A  
HETATM   26  C   UNL     1     -10.784  10.002  70.177  1.00  0.00    -0.307 A  
HETATM   27  C   UNL     1     -10.945  11.178  67.647  1.00  0.00    -0.323 A  
HETATM   28  C   UNL     1     -11.820  10.904  69.883  1.00  0.00    -0.349 A  
HETATM   29  C   UNL     1     -11.874  11.503  68.629  1.00  0.00    -0.382 A  
BRANCH  26  30
HETATM   30  O   UNL     1     -10.790   9.433  71.425  1.00  0.00    -0.336 OA 
HETATM   31  C   UNL     1      -9.545   8.964  71.932  1.00  0.00    -0.256 C  
ENDBRANCH  26  30
BRANCH  28  32
HETATM   32  O   UNL     1     -12.753  11.116  70.870  1.00  0.00    -0.357 OA 
HETATM   33  C   UNL     1     -12.860  12.442  71.374  1.00  0.00    -0.260 C  
ENDBRANCH  28  32
ENDBRANCH  18  24
ENDBRANCH  17  18
ENDBRANCH  16  17
ENDBRANCH  15  16
ENDBRANCH  13  15
ENDBRANCH  12  13
ENDBRANCH  11  12
ENDBRANCH   7  11
ENDBRANCH   2   3
TORSDOF 12
ENDMDL
MODEL      203
REMARK 921   NORMALIZED FREE ENERGY PREDICTED BY IDOCK:   -4.03 KCAL/MOL
REMARK 922        TOTAL FREE ENERGY PREDICTED BY IDOCK:   -9.09 KCAL/MOL
REMARK 923 INTER-LIGAND FREE ENERGY PREDICTED BY IDOCK:   -7.01 KCAL/MOL
REMARK 924 INTRA-LIGAND FREE ENERGY PREDICTED BY IDOCK:   -2.08 KCAL/MOL
REMARK 927      BINDING AFFINITY PREDICTED BY RF-SCORE:    0.00 PKD
ROOT
HETATM    1  C   UNL     1     -11.156   1.761  73.068  1.00  0.00    -0.129 C  
HETATM    2  O   UNL     1     -10.019   2.310  73.726  1.00  0.00    -0.089 OA 
ENDROOT
BRANCH   2   3
HETATM    3  C   UNL     1      -9.763   3.639  73.491  1.00  0.00    -0.107 A  
HETATM    4  C   UNL     1      -8.591   4.191  72.948  1.00  0.00    -0.100 A  
HETATM    5  C   UNL     1     -10.666   5.879  73.805  1.00  0.00    -0.219 A  
HETATM    6  C   UNL     1      -8.483   5.589  72.832  1.00  0.00    -0.119 A  
HETATM    7  C   UNL     1      -9.512   6.444  73.250  1.00  0.00    -0.148 A  
HETATM    8  C   UNL     1     -10.784   4.490  73.929  1.00  0.00    -0.349 A  
BRANCH   4   9
HETATM    9  O   UNL     1      -7.579   3.334  72.605  1.00  0.00    -0.049 OA 
HETATM   10  C   UNL     1      -6.606   3.031  73.595  1.00  0.00    -0.029 C  
ENDBRANCH   4   9
BRANCH   7  11
HETATM   11  C   UNL     1      -9.279   7.954  73.260  1.00  0.00    -0.346 C  
BRANCH  11  12
HETATM   12  C   UNL     1      -7.771   8.178  73.432  1.00  0.00    -0.160 C  
BRANCH  12  13
HETATM   13  N   UNL     1      -6.990   9.075  72.574  1.00  0.00    -0.316 NA 
HETATM   14  C   UNL     1      -5.555   9.002  72.839  1.00  0.00    -0.075 C  
BRANCH  13  15
HETATM   15  C   UNL     1      -7.269   8.848  71.131  1.00  0.00    -0.102 C  
BRANCH  15  16
HETATM   16  C   UNL     1      -7.522  10.054  70.173  1.00  0.00    -0.176 C  
BRANCH  16  17
HETATM   17  C   UNL     1      -8.132   9.682  68.802  1.00  0.00    -0.097 C  
BRANCH  17  18
HETATM   18  C   UNL     1      -9.392  10.436  68.292  1.00  0.00    -0.150 C  
HETATM   19  N   UNL     1      -8.781  13.029  68.409  1.00  0.00    -0.153 NA 
HETATM   20  C   UNL     1      -9.667  10.119  66.744  1.00  0.00    -0.235 C  
HETATM   21  C   UNL     1      -9.063  11.903  68.359  1.00  0.00    -0.167 C  
HETATM   22  C   UNL     1      -9.992   8.658  66.394  1.00  0.00    -0.331 C  
HETATM   23  C   UNL     1      -8.496  10.525  65.822  1.00  0.00    -0.177 C  
BRANCH  18  24
HETATM   24  C   UNL     1     -10.560  10.062  69.211  1.00  0.00    -0.249 A  
HETATM   25  C   UNL     1     -11.395  11.039  69.780  1.00  0.00    -0.366 A  
HETATM   26  C   UNL     1     -12.338  10.726  70.765  1.00  0.00    -0.383 A  
HETATM   27  C   UNL     1     -10.739   8.732  69.633  1.00  0.00    -0.212 A  
HETATM   28  C   UNL     1     -12.480   9.390  71.175  1.00  0.00    -0.293 A  
HETATM   29  C   UNL     1     -11.697   8.403  70.584  1.00  0.00    -0.159 A  
BRANCH  26  30
HETATM   30  O   UNL     1     -13.126  11.657  71.390  1.00  0.00    -0.375 OA 
HETATM   31  C   UNL     1     -12.667  13.004  71.392  1.00  0.00    -0.281 C  
ENDBRANCH  26  30
BRANCH  28  32
HETATM   32  O   UNL     1     -13.385   9.146  72.180  1.00  0.00    -0.396 OA 
HETATM   33  C   UNL     1     -14.411   8.200  71.900  1.00  0.00    -0.472 C  
ENDBRANCH  28  32
ENDBRANCH  18  24
ENDBRANCH  17  18
ENDBRANCH  16  17
ENDBRANCH  15  16
ENDBRANCH  13  15
ENDBRANCH  12  13
ENDBRANCH  11  12
ENDBRANCH   7  11
ENDBRANCH   2   3
TORSDOF 12
ENDMDL
MODEL      204
REMARK 921   NORMALIZED FREE ENERGY PREDICTED BY IDOCK:   -4.03 KCAL/MOL
REMARK 922        TOTAL FREE ENERGY PREDICTED BY IDOCK:   -9.08 KCAL/MOL
REMARK 923 INTER-LIGAND FREE ENERGY PREDICTED BY IDOCK:   -7.83 KCAL/MOL
REMARK 924 INTRA-LIGAND FREE ENERGY PREDICTED BY IDOCK:   -1.25 KCAL/MOL
REMARK 927      BINDING AFFINITY PREDICTED BY RF-SCORE:    0.00 PKD
ROOT
HETATM    1  C   UNL     1     -10.133  19.506  68.462  1.00  0.00    -0.445 C  
HETATM    2  O   UNL     1      -9.318  18.338  68.416  1.00  0.00    -0.295 OA 
ENDROOT
BRANCH   2   3
HETATM    3  C   UNL     1      -9.874  17.232  67.819  1.00  0.00    -0.281 A  
HETATM    4  C   UNL     1      -9.568  16.712  66.551  1.00  0.00    -0.273 A  
HETATM    5  C   UNL     1     -11.604  15.540  68.090  1.00  0.00    -0.313 A  
HETATM    6  C   UNL     1     -10.284  15.598  66.077  1.00  0.00    -0.354 A  
HETATM    7  C   UNL     1     -11.299  14.999  66.836  1.00  0.00    -0.302 A  
HETATM    8  C   UNL     1     -10.901  16.650  68.571  1.00  0.00    -0.356 A  
BRANCH   4   9
HETATM    9  O   UNL     1      -8.614  17.355  65.808  1.00  0.00    -0.526 OA 
HETATM   10  C   UNL     1      -7.251  17.103  66.120  1.00  0.00    -0.218 C  
ENDBRANCH   4   9
BRANCH   7  11
HETATM   11  C   UNL     1     -12.160  13.901  66.210  1.00  0.00    -0.484 C  
BRANCH  11  12
HETATM   12  C   UNL     1     -11.322  12.616  66.209  1.00  0.00    -0.329 C  
BRANCH  12  13
HETATM   13  N   UNL     1     -11.300  11.673  65.085  1.00  0.00    -0.212 NA 
HETATM   14  C   UNL     1     -11.048  12.329  63.803  1.00  0.00    -0.442 C  
BRANCH  13  15
HETATM   15  C   UNL     1     -10.331  10.567  65.307  1.00  0.00    -0.229 C  
BRANCH  15  16
HETATM   16  C   UNL     1      -9.803  10.250  66.741  1.00  0.00    -0.246 C  
BRANCH  16  17
HETATM   17  C   UNL     1     -10.207   8.865  67.296  1.00  0.00    -0.326 C  
BRANCH  17  18
HETATM   18  C   UNL     1      -9.195   8.057  68.155  1.00  0.00    -0.134 C  
HETATM   19  N   UNL     1      -6.937   9.477  68.142  1.00  0.00    -0.077 NA 
HETATM   20  C   UNL     1      -9.663   7.992  69.688  1.00  0.00    -0.169 C  
HETATM   21  C   UNL     1      -7.913   8.845  68.151  1.00  0.00    -0.102 C  
HETATM   22  C   UNL     1     -10.989   7.264  69.966  1.00  0.00    -0.273 C  
HETATM   23  C   UNL     1      -9.799   9.384  70.343  1.00  0.00    -0.313 C  
BRANCH  18  24
HETATM   24  C   UNL     1      -9.031   6.679  67.505  1.00  0.00    -0.114 A  
HETATM   25  C   UNL     1      -7.783   6.034  67.446  1.00  0.00    -0.097 A  
HETATM   26  C   UNL     1      -7.585   4.873  66.693  1.00  0.00    -0.088 A  
HETATM   27  C   UNL     1     -10.101   6.084  66.814  1.00  0.00    -0.235 A  
HETATM   28  C   UNL     1      -8.671   4.312  66.001  1.00  0.00    -0.114 A  
HETATM   29  C   UNL     1      -9.924   4.909  66.091  1.00  0.00    -0.252 A  
BRANCH  26  30
HETATM   30  O   UNL     1      -6.371   4.248  66.557  1.00  0.00    -0.035 OA 
HETATM   31  C   UNL     1      -5.694   3.874  67.752  1.00  0.00    -0.022 C  
ENDBRANCH  26  30
BRANCH  28  32
HETATM   32  O   UNL     1      -8.409   3.200  65.237  1.00  0.00    -0.093 OA 
HETATM   33  C   UNL     1      -9.535   2.458  64.783  1.00  0.00    -0.085 C  
ENDBRANCH  28  32
ENDBRANCH  18  24
ENDBRANCH  17  18
ENDBRANCH  16  17
ENDBRANCH  15  16
ENDBRANCH  13  15
ENDBRANCH  12  13
ENDBRANCH  11  12
ENDBRANCH   7  11
ENDBRANCH   2   3
TORSDOF 12
ENDMDL
MODEL      205
REMARK 921   NORMALIZED FREE ENERGY PREDICTED BY IDOCK:   -4.02 KCAL/MOL
REMARK 922        TOTAL FREE ENERGY PREDICTED BY IDOCK:   -9.07 KCAL/MOL
REMARK 923 INTER-LIGAND FREE ENERGY PREDICTED BY IDOCK:   -7.95 KCAL/MOL
REMARK 924 INTRA-LIGAND FREE ENERGY PREDICTED BY IDOCK:   -1.12 KCAL/MOL
REMARK 927      BINDING AFFINITY PREDICTED BY RF-SCORE:    0.00 PKD
ROOT
HETATM    1  C   UNL     1     -11.856  13.514  64.857  1.00  0.00    -0.374 C  
HETATM    2  O   UNL     1     -10.994  13.860  65.936  1.00  0.00    -0.283 OA 
ENDROOT
BRANCH   2   3
HETATM    3  C   UNL     1     -11.430  13.523  67.195  1.00  0.00    -0.338 A  
HETATM    4  C   UNL     1     -11.694  14.398  68.261  1.00  0.00    -0.341 A  
HETATM    5  C   UNL     1     -11.918  11.624  68.639  1.00  0.00    -0.311 A  
HETATM    6  C   UNL     1     -12.080  13.866  69.504  1.00  0.00    -0.393 A  
HETATM    7  C   UNL     1     -12.202  12.484  69.707  1.00  0.00    -0.199 A  
HETATM    8  C   UNL     1     -11.530  12.142  67.399  1.00  0.00    -0.415 A  
BRANCH   4   9
HETATM    9  O   UNL     1     -11.508  15.739  68.050  1.00  0.00    -0.338 OA 
HETATM   10  C   UNL     1     -10.239  16.289  68.373  1.00  0.00    -0.249 C  
ENDBRANCH   4   9
BRANCH   7  11
HETATM   11  C   UNL     1     -12.459  11.949  71.115  1.00  0.00    -0.365 C  
BRANCH  11  12
HETATM   12  C   UNL     1     -12.889  10.483  70.970  1.00  0.00    -0.407 C  
BRANCH  12  13
HETATM   13  N   UNL     1     -12.424   9.418  71.866  1.00  0.00    -0.381 NA 
HETATM   14  C   UNL     1     -13.186   8.180  71.714  1.00  0.00    -0.341 C  
BRANCH  13  15
HETATM   15  C   UNL     1     -10.968   9.159  71.713  1.00  0.00    -0.359 C  
BRANCH  15  16
HETATM   16  C   UNL     1     -10.460   8.006  70.791  1.00  0.00    -0.221 C  
BRANCH  16  17
HETATM   17  C   UNL     1     -10.577   8.283  69.275  1.00  0.00    -0.191 C  
BRANCH  17  18
HETATM   18  C   UNL     1      -9.352   8.031  68.351  1.00  0.00    -0.138 C  
HETATM   19  N   UNL     1      -9.943   9.202  66.030  1.00  0.00    -0.281 NA 
HETATM   20  C   UNL     1      -8.049   8.785  68.905  1.00  0.00    -0.114 C  
HETATM   21  C   UNL     1      -9.675   8.683  67.034  1.00  0.00    -0.201 C  
HETATM   22  C   UNL     1      -7.528   8.329  70.277  1.00  0.00    -0.066 C  
HETATM   23  C   UNL     1      -8.228  10.316  69.007  1.00  0.00    -0.139 C  
BRANCH  18  24
HETATM   24  C   UNL     1      -9.174   6.514  68.221  1.00  0.00    -0.116 A  
HETATM   25  C   UNL     1      -8.655   5.930  67.052  1.00  0.00    -0.110 A  
HETATM   26  C   UNL     1      -8.666   4.547  66.849  1.00  0.00    -0.111 A  
HETATM   27  C   UNL     1      -9.665   5.650  69.215  1.00  0.00    -0.205 A  
HETATM   28  C   UNL     1      -9.179   3.711  67.855  1.00  0.00    -0.176 A  
HETATM   29  C   UNL     1      -9.648   4.271  69.039  1.00  0.00    -0.240 A  
BRANCH  26  30
HETATM   30  O   UNL     1      -8.229   3.940  65.699  1.00  0.00    -0.103 OA 
HETATM   31  C   UNL     1      -8.975   4.183  64.511  1.00  0.00    -0.142 C  
ENDBRANCH  26  30
BRANCH  28  32
HETATM   32  O   UNL     1      -9.211   2.365  67.582  1.00  0.00    -0.170 OA 
HETATM   33  C   UNL     1      -9.651   1.511  68.632  1.00  0.00    -0.131 C  
ENDBRANCH  28  32
ENDBRANCH  18  24
ENDBRANCH  17  18
ENDBRANCH  16  17
ENDBRANCH  15  16
ENDBRANCH  13  15
ENDBRANCH  12  13
ENDBRANCH  11  12
ENDBRANCH   7  11
ENDBRANCH   2   3
TORSDOF 12
ENDMDL
MODEL      206
REMARK 921   NORMALIZED FREE ENERGY PREDICTED BY IDOCK:   -4.01 KCAL/MOL
REMARK 922        TOTAL FREE ENERGY PREDICTED BY IDOCK:   -9.05 KCAL/MOL
REMARK 923 INTER-LIGAND FREE ENERGY PREDICTED BY IDOCK:   -7.91 KCAL/MOL
REMARK 924 INTRA-LIGAND FREE ENERGY PREDICTED BY IDOCK:   -1.14 KCAL/MOL
REMARK 927      BINDING AFFINITY PREDICTED BY RF-SCORE:    0.00 PKD
ROOT
HETATM    1  C   UNL     1      -6.802   2.966  63.799  1.00  0.00    -0.036 C  
HETATM    2  O   UNL     1      -7.844   2.927  64.769  1.00  0.00    -0.076 OA 
ENDROOT
BRANCH   2   3
HETATM    3  C   UNL     1      -8.216   4.133  65.312  1.00  0.00    -0.102 A  
HETATM    4  C   UNL     1      -9.071   4.341  66.406  1.00  0.00    -0.130 A  
HETATM    5  C   UNL     1      -8.036   6.542  65.002  1.00  0.00    -0.121 A  
HETATM    6  C   UNL     1      -9.386   5.657  66.788  1.00  0.00    -0.139 A  
HETATM    7  C   UNL     1      -8.873   6.766  66.101  1.00  0.00    -0.161 A  
HETATM    8  C   UNL     1      -7.718   5.237  64.610  1.00  0.00    -0.088 A  
BRANCH   4   9
HETATM    9  O   UNL     1      -9.605   3.239  67.019  1.00  0.00    -0.173 OA 
HETATM   10  C   UNL     1      -9.071   2.860  68.280  1.00  0.00    -0.171 C  
ENDBRANCH   4   9
BRANCH   7  11
HETATM   11  C   UNL     1      -9.377   8.167  66.447  1.00  0.00    -0.269 C  
BRANCH  11  12
HETATM   12  C   UNL     1      -8.371   9.167  65.862  1.00  0.00    -0.123 C  
BRANCH  12  13
HETATM   13  N   UNL     1      -8.759  10.480  65.337  1.00  0.00    -0.178 NA 
HETATM   14  C   UNL     1     -10.021  10.445  64.601  1.00  0.00    -0.338 C  
BRANCH  13  15
HETATM   15  C   UNL     1      -8.804  11.515  66.404  1.00  0.00    -0.193 C  
BRANCH  15  16
HETATM   16  C   UNL     1     -10.027  12.477  66.525  1.00  0.00    -0.252 C  
BRANCH  16  17
HETATM   17  C   UNL     1      -9.743  13.806  67.261  1.00  0.00    -0.242 C  
BRANCH  17  18
HETATM   18  C   UNL     1     -10.854  14.890  67.347  1.00  0.00    -0.304 C  
HETATM   19  N   UNL     1     -12.787  14.077  65.700  1.00  0.00    -0.594 NA 
HETATM   20  C   UNL     1     -11.510  14.928  68.809  1.00  0.00    -0.328 C  
HETATM   21  C   UNL     1     -11.950  14.446  66.416  1.00  0.00    -0.385 C  
HETATM   22  C   UNL     1     -10.577  15.320  69.967  1.00  0.00    -0.288 C  
HETATM   23  C   UNL     1     -12.157  13.588  69.222  1.00  0.00    -0.335 C  
BRANCH  18  24
HETATM   24  C   UNL     1     -10.233  16.224  66.918  1.00  0.00    -0.288 A  
HETATM   25  C   UNL     1      -8.948  16.293  66.354  1.00  0.00    -0.343 A  
HETATM   26  C   UNL     1      -8.298  17.513  66.138  1.00  0.00    -0.165 A  
HETATM   27  C   UNL     1     -10.876  17.439  67.217  1.00  0.00    -0.126 A  
HETATM   28  C   UNL     1      -8.962  18.708  66.462  1.00  0.00    -0.304 A  
HETATM   29  C   UNL     1     -10.254  18.659  66.973  1.00  0.00    -0.418 A  
BRANCH  26  30
HETATM   30  O   UNL     1      -7.022  17.622  65.649  1.00  0.00    -0.374 OA 
HETATM   31  C   UNL     1      -5.956  17.300  66.535  1.00  0.00    -0.209 C  
ENDBRANCH  26  30
BRANCH  28  32
HETATM   32  O   UNL     1      -8.259  19.874  66.275  1.00  0.00    -0.328 OA 
HETATM   33  C   UNL     1      -7.754  20.509  67.444  1.00  0.00    -0.324 C  
ENDBRANCH  28  32
ENDBRANCH  18  24
ENDBRANCH  17  18
ENDBRANCH  16  17
ENDBRANCH  15  16
ENDBRANCH  13  15
ENDBRANCH  12  13
ENDBRANCH  11  12
ENDBRANCH   7  11
ENDBRANCH   2   3
TORSDOF 12
ENDMDL
MODEL      207
REMARK 921   NORMALIZED FREE ENERGY PREDICTED BY IDOCK:   -4.01 KCAL/MOL
REMARK 922        TOTAL FREE ENERGY PREDICTED BY IDOCK:   -9.04 KCAL/MOL
REMARK 923 INTER-LIGAND FREE ENERGY PREDICTED BY IDOCK:   -7.01 KCAL/MOL
REMARK 924 INTRA-LIGAND FREE ENERGY PREDICTED BY IDOCK:   -2.03 KCAL/MOL
REMARK 927      BINDING AFFINITY PREDICTED BY RF-SCORE:    0.00 PKD
ROOT
HETATM    1  C   UNL     1     -11.484   2.301  73.526  1.00  0.00    -0.186 C  
HETATM    2  O   UNL     1     -10.136   2.655  73.821  1.00  0.00    -0.099 OA 
ENDROOT
BRANCH   2   3
HETATM    3  C   UNL     1      -9.774   3.952  73.546  1.00  0.00    -0.107 A  
HETATM    4  C   UNL     1      -8.591   4.386  72.925  1.00  0.00    -0.105 A  
HETATM    5  C   UNL     1     -10.448   6.269  73.870  1.00  0.00    -0.292 A  
HETATM    6  C   UNL     1      -8.363   5.765  72.777  1.00  0.00    -0.119 A  
HETATM    7  C   UNL     1      -9.282   6.718  73.238  1.00  0.00    -0.154 A  
HETATM    8  C   UNL     1     -10.685   4.899  74.027  1.00  0.00    -0.354 A  
BRANCH   4   9
HETATM    9  O   UNL     1      -7.684   3.435  72.540  1.00  0.00    -0.060 OA 
HETATM   10  C   UNL     1      -6.658   3.089  73.459  1.00  0.00    -0.029 C  
ENDBRANCH   4   9
BRANCH   7  11
HETATM   11  C   UNL     1      -8.912   8.200  73.206  1.00  0.00    -0.332 C  
BRANCH  11  12
HETATM   12  C   UNL     1      -7.381   8.283  73.162  1.00  0.00    -0.105 C  
BRANCH  12  13
HETATM   13  N   UNL     1      -6.646   8.990  72.108  1.00  0.00    -0.281 NA 
HETATM   14  C   UNL     1      -5.261   9.275  72.479  1.00  0.00    -0.077 C  
BRANCH  13  15
HETATM   15  C   UNL     1      -6.701   8.267  70.810  1.00  0.00    -0.038 C  
BRANCH  15  16
HETATM   16  C   UNL     1      -7.480   8.870  69.599  1.00  0.00    -0.071 C  
BRANCH  16  17
HETATM   17  C   UNL     1      -8.448   7.892  68.892  1.00  0.00    -0.128 C  
BRANCH  17  18
HETATM   18  C   UNL     1      -9.524   8.447  67.918  1.00  0.00    -0.164 C  
HETATM   19  N   UNL     1      -8.176   9.686  65.979  1.00  0.00    -0.118 NA 
HETATM   20  C   UNL     1     -10.325   7.255  67.204  1.00  0.00    -0.367 C  
HETATM   21  C   UNL     1      -8.776   9.155  66.820  1.00  0.00    -0.127 C  
HETATM   22  C   UNL     1     -11.151   6.341  68.123  1.00  0.00    -0.364 C  
HETATM   23  C   UNL     1      -9.415   6.317  66.381  1.00  0.00    -0.165 C  
BRANCH  18  24
HETATM   24  C   UNL     1     -10.424   9.399  68.715  1.00  0.00    -0.236 A  
HETATM   25  C   UNL     1     -10.927  10.584  68.151  1.00  0.00    -0.330 A  
HETATM   26  C   UNL     1     -11.586  11.548  68.920  1.00  0.00    -0.320 A  
HETATM   27  C   UNL     1     -10.650   9.187  70.086  1.00  0.00    -0.258 A  
HETATM   28  C   UNL     1     -11.782  11.313  70.292  1.00  0.00    -0.324 A  
HETATM   29  C   UNL     1     -11.335  10.122  70.854  1.00  0.00    -0.420 A  
BRANCH  26  30
HETATM   30  O   UNL     1     -12.035  12.745  68.424  1.00  0.00    -0.319 OA 
HETATM   31  C   UNL     1     -11.054  13.710  68.061  1.00  0.00    -0.262 C  
ENDBRANCH  26  30
BRANCH  28  32
HETATM   32  O   UNL     1     -12.390  12.315  71.009  1.00  0.00    -0.351 OA 
HETATM   33  C   UNL     1     -13.254  11.910  72.065  1.00  0.00    -0.356 C  
ENDBRANCH  28  32
ENDBRANCH  18  24
ENDBRANCH  17  18
ENDBRANCH  16  17
ENDBRANCH  15  16
ENDBRANCH  13  15
ENDBRANCH  12  13
ENDBRANCH  11  12
ENDBRANCH   7  11
ENDBRANCH   2   3
TORSDOF 12
ENDMDL
MODEL      208
REMARK 921   NORMALIZED FREE ENERGY PREDICTED BY IDOCK:   -4.00 KCAL/MOL
REMARK 922        TOTAL FREE ENERGY PREDICTED BY IDOCK:   -9.04 KCAL/MOL
REMARK 923 INTER-LIGAND FREE ENERGY PREDICTED BY IDOCK:   -7.77 KCAL/MOL
REMARK 924 INTRA-LIGAND FREE ENERGY PREDICTED BY IDOCK:   -1.26 KCAL/MOL
REMARK 927      BINDING AFFINITY PREDICTED BY RF-SCORE:    0.00 PKD
ROOT
HETATM    1  C   UNL     1      -8.511   8.373  62.330  1.00  0.00    -0.151 C  
HETATM    2  O   UNL     1      -8.204   9.760  62.427  1.00  0.00    -0.122 OA 
ENDROOT
BRANCH   2   3
HETATM    3  C   UNL     1      -8.846  10.457  63.422  1.00  0.00    -0.213 A  
HETATM    4  C   UNL     1      -8.478  10.532  64.775  1.00  0.00    -0.147 A  
HETATM    5  C   UNL     1     -10.828  11.791  63.893  1.00  0.00    -0.468 A  
HETATM    6  C   UNL     1      -9.292  11.251  65.667  1.00  0.00    -0.245 A  
HETATM    7  C   UNL     1     -10.465  11.890  65.242  1.00  0.00    -0.317 A  
HETATM    8  C   UNL     1     -10.027  11.075  62.996  1.00  0.00    -0.333 A  
BRANCH   4   9
HETATM    9  O   UNL     1      -7.360   9.847  65.172  1.00  0.00    -0.120 OA 
HETATM   10  C   UNL     1      -7.528   8.795  66.112  1.00  0.00    -0.090 C  
ENDBRANCH   4   9
BRANCH   7  11
HETATM   11  C   UNL     1     -11.402  12.514  66.276  1.00  0.00    -0.386 C  
BRANCH  11  12
HETATM   12  C   UNL     1     -11.549  11.502  67.420  1.00  0.00    -0.228 C  
BRANCH  12  13
HETATM   13  N   UNL     1     -10.924  11.680  68.734  1.00  0.00    -0.213 NA 
HETATM   14  C   UNL     1     -11.902  11.821  69.811  1.00  0.00    -0.349 C  
BRANCH  13  15
HETATM   15  C   UNL     1      -9.958  10.591  69.043  1.00  0.00    -0.211 C  
BRANCH  15  16
HETATM   16  C   UNL     1     -10.052   9.807  70.389  1.00  0.00    -0.313 C  
BRANCH  16  17
HETATM   17  C   UNL     1     -10.646   8.384  70.276  1.00  0.00    -0.234 C  
BRANCH  17  18
HETATM   18  C   UNL     1     -10.825   7.523  71.557  1.00  0.00    -0.253 C  
HETATM   19  N   UNL     1      -9.136   8.536  73.354  1.00  0.00    -0.211 NA 
HETATM   20  C   UNL     1     -12.292   7.711  72.178  1.00  0.00    -0.276 C  
HETATM   21  C   UNL     1      -9.872   8.081  72.579  1.00  0.00    -0.263 C  
HETATM   22  C   UNL     1     -13.469   7.250  71.302  1.00  0.00    -0.333 C  
HETATM   23  C   UNL     1     -12.603   9.172  72.571  1.00  0.00    -0.311 C  
BRANCH  18  24
HETATM   24  C   UNL     1     -10.497   6.071  71.190  1.00  0.00    -0.284 A  
HETATM   25  C   UNL     1     -10.369   5.072  72.170  1.00  0.00    -0.276 A  
HETATM   26  C   UNL     1      -9.886   3.795  71.867  1.00  0.00    -0.178 A  
HETATM   27  C   UNL     1     -10.167   5.727  69.867  1.00  0.00    -0.302 A  
HETATM   28  C   UNL     1      -9.550   3.488  70.538  1.00  0.00    -0.176 A  
HETATM   29  C   UNL     1      -9.720   4.450  69.548  1.00  0.00    -0.280 A  
BRANCH  26  30
HETATM   30  O   UNL     1      -9.685   2.813  72.803  1.00  0.00    -0.108 OA 
HETATM   31  C   UNL     1     -10.841   2.237  73.400  1.00  0.00    -0.175 C  
ENDBRANCH  26  30
BRANCH  28  32
HETATM   32  O   UNL     1      -9.033   2.236  70.305  1.00  0.00    -0.073 OA 
HETATM   33  C   UNL     1      -9.262   1.681  69.016  1.00  0.00    -0.132 C  
ENDBRANCH  28  32
ENDBRANCH  18  24
ENDBRANCH  17  18
ENDBRANCH  16  17
ENDBRANCH  15  16
ENDBRANCH  13  15
ENDBRANCH  12  13
ENDBRANCH  11  12
ENDBRANCH   7  11
ENDBRANCH   2   3
TORSDOF 12
ENDMDL
MODEL      209
REMARK 921   NORMALIZED FREE ENERGY PREDICTED BY IDOCK:   -3.99 KCAL/MOL
REMARK 922        TOTAL FREE ENERGY PREDICTED BY IDOCK:   -9.00 KCAL/MOL
REMARK 923 INTER-LIGAND FREE ENERGY PREDICTED BY IDOCK:   -6.38 KCAL/MOL
REMARK 924 INTRA-LIGAND FREE ENERGY PREDICTED BY IDOCK:   -2.63 KCAL/MOL
REMARK 927      BINDING AFFINITY PREDICTED BY RF-SCORE:    0.00 PKD
ROOT
HETATM    1  C   UNL     1     -11.433   2.034  73.564  1.00  0.00    -0.207 C  
HETATM    2  O   UNL     1     -10.103   2.437  73.875  1.00  0.00    -0.096 OA 
ENDROOT
BRANCH   2   3
HETATM    3  C   UNL     1      -9.779   3.741  73.590  1.00  0.00    -0.106 A  
HETATM    4  C   UNL     1      -8.551   4.221  73.105  1.00  0.00    -0.093 A  
HETATM    5  C   UNL     1     -10.614   6.025  73.720  1.00  0.00    -0.265 A  
HETATM    6  C   UNL     1      -8.381   5.605  72.924  1.00  0.00    -0.119 A  
HETATM    7  C   UNL     1      -9.403   6.518  73.221  1.00  0.00    -0.145 A  
HETATM    8  C   UNL     1     -10.795   4.650  73.907  1.00  0.00    -0.359 A  
BRANCH   4   9
HETATM    9  O   UNL     1      -7.552   3.311  72.881  1.00  0.00    -0.053 OA 
HETATM   10  C   UNL     1      -7.327   2.891  71.543  1.00  0.00    -0.040 C  
ENDBRANCH   4   9
BRANCH   7  11
HETATM   11  C   UNL     1      -9.112   8.017  73.168  1.00  0.00    -0.341 C  
BRANCH  11  12
HETATM   12  C   UNL     1      -7.593   8.188  73.292  1.00  0.00    -0.146 C  
BRANCH  12  13
HETATM   13  N   UNL     1      -6.804   9.032  72.389  1.00  0.00    -0.312 NA 
HETATM   14  C   UNL     1      -5.389   9.083  72.755  1.00  0.00    -0.076 C  
BRANCH  13  15
HETATM   15  C   UNL     1      -6.962   8.625  70.967  1.00  0.00    -0.069 C  
BRANCH  15  16
HETATM   16  C   UNL     1      -7.058   9.702  69.840  1.00  0.00    -0.095 C  
BRANCH  16  17
HETATM   17  C   UNL     1      -7.804   9.248  68.565  1.00  0.00    -0.090 C  
BRANCH  17  18
HETATM   18  C   UNL     1      -9.253   9.747  68.305  1.00  0.00    -0.130 C  
HETATM   19  N   UNL     1      -9.184  12.390  68.655  1.00  0.00    -0.061 NA 
HETATM   20  C   UNL     1      -9.676   9.518  66.775  1.00  0.00    -0.254 C  
HETATM   21  C   UNL     1      -9.230  11.238  68.505  1.00  0.00    -0.181 C  
HETATM   22  C   UNL     1      -9.737   8.058  66.294  1.00  0.00    -0.197 C  
HETATM   23  C   UNL     1      -8.760  10.255  65.773  1.00  0.00    -0.169 C  
BRANCH  18  24
HETATM   24  C   UNL     1     -10.174   9.041  69.307  1.00  0.00    -0.210 A  
HETATM   25  C   UNL     1     -10.206   7.640  69.419  1.00  0.00    -0.206 A  
HETATM   26  C   UNL     1     -11.172   6.982  70.187  1.00  0.00    -0.284 A  
HETATM   27  C   UNL     1     -11.124   9.773  70.041  1.00  0.00    -0.311 A  
HETATM   28  C   UNL     1     -12.117   7.741  70.896  1.00  0.00    -0.179 A  
HETATM   29  C   UNL     1     -12.066   9.130  70.836  1.00  0.00    -0.270 A  
BRANCH  26  30
HETATM   30  O   UNL     1     -11.278   5.617  70.273  1.00  0.00    -0.243 OA 
HETATM   31  C   UNL     1     -10.175   4.847  69.808  1.00  0.00    -0.214 C  
ENDBRANCH  26  30
BRANCH  28  32
HETATM   32  O   UNL     1     -13.072   7.042  71.594  1.00  0.00    -0.377 OA 
HETATM   33  C   UNL     1     -14.378   7.606  71.628  1.00  0.00    -0.477 C  
ENDBRANCH  28  32
ENDBRANCH  18  24
ENDBRANCH  17  18
ENDBRANCH  16  17
ENDBRANCH  15  16
ENDBRANCH  13  15
ENDBRANCH  12  13
ENDBRANCH  11  12
ENDBRANCH   7  11
ENDBRANCH   2   3
TORSDOF 12
ENDMDL
MODEL      210
REMARK 921   NORMALIZED FREE ENERGY PREDICTED BY IDOCK:   -3.98 KCAL/MOL
REMARK 922        TOTAL FREE ENERGY PREDICTED BY IDOCK:   -9.00 KCAL/MOL
REMARK 923 INTER-LIGAND FREE ENERGY PREDICTED BY IDOCK:   -8.05 KCAL/MOL
REMARK 924 INTRA-LIGAND FREE ENERGY PREDICTED BY IDOCK:   -0.95 KCAL/MOL
REMARK 927      BINDING AFFINITY PREDICTED BY RF-SCORE:    0.00 PKD
ROOT
HETATM    1  C   UNL     1      -8.847   3.521  72.173  1.00  0.00    -0.092 C  
HETATM    2  O   UNL     1      -9.396   4.247  73.268  1.00  0.00    -0.112 OA 
ENDROOT
BRANCH   2   3
HETATM    3  C   UNL     1      -9.958   5.465  72.969  1.00  0.00    -0.168 A  
HETATM    4  C   UNL     1      -9.665   6.701  73.568  1.00  0.00    -0.191 A  
HETATM    5  C   UNL     1     -11.685   6.532  71.624  1.00  0.00    -0.374 A  
HETATM    6  C   UNL     1     -10.386   7.842  73.171  1.00  0.00    -0.403 A  
HETATM    7  C   UNL     1     -11.393   7.775  72.198  1.00  0.00    -0.353 A  
HETATM    8  C   UNL     1     -10.977   5.389  72.012  1.00  0.00    -0.244 A  
BRANCH   4   9
HETATM    9  O   UNL     1      -8.719   6.725  74.558  1.00  0.00    -0.156 OA 
HETATM   10  C   UNL     1      -7.735   7.748  74.509  1.00  0.00    -0.194 C  
ENDBRANCH   4   9
BRANCH   7  11
HETATM   11  C   UNL     1     -12.260   9.003  71.924  1.00  0.00    -0.451 C  
BRANCH  11  12
HETATM   12  C   UNL     1     -11.923   9.487  70.508  1.00  0.00    -0.134 C  
BRANCH  12  13
HETATM   13  N   UNL     1     -12.502  10.697  69.914  1.00  0.00    -0.252 NA 
HETATM   14  C   UNL     1     -12.629  11.792  70.873  1.00  0.00    -0.289 C  
BRANCH  13  15
HETATM   15  C   UNL     1     -11.750  11.139  68.709  1.00  0.00    -0.326 C  
BRANCH  15  16
HETATM   16  C   UNL     1     -11.307  12.628  68.554  1.00  0.00    -0.333 C  
BRANCH  16  17
HETATM   17  C   UNL     1     -11.537  13.236  67.152  1.00  0.00    -0.402 C  
BRANCH  17  18
HETATM   18  C   UNL     1     -10.323  13.480  66.212  1.00  0.00    -0.293 C  
HETATM   19  N   UNL     1      -9.457  11.059  65.504  1.00  0.00    -0.208 NA 
HETATM   20  C   UNL     1     -10.781  14.197  64.853  1.00  0.00    -0.444 C  
HETATM   21  C   UNL     1      -9.820  12.120  65.809  1.00  0.00    -0.245 C  
HETATM   22  C   UNL     1     -11.379  15.607  64.993  1.00  0.00    -0.255 C  
HETATM   23  C   UNL     1     -11.813  13.377  64.050  1.00  0.00    -0.498 C  
BRANCH  18  24
HETATM   24  C   UNL     1      -9.277  14.274  67.003  1.00  0.00    -0.249 A  
HETATM   25  C   UNL     1      -7.978  13.780  67.213  1.00  0.00    -0.135 A  
HETATM   26  C   UNL     1      -7.082  14.403  68.087  1.00  0.00    -0.124 A  
HETATM   27  C   UNL     1      -9.636  15.459  67.670  1.00  0.00    -0.210 A  
HETATM   28  C   UNL     1      -7.477  15.577  68.751  1.00  0.00    -0.141 A  
HETATM   29  C   UNL     1      -8.741  16.107  68.514  1.00  0.00    -0.200 A  
BRANCH  26  30
HETATM   30  O   UNL     1      -5.830  13.919  68.369  1.00  0.00    -0.086 OA 
HETATM   31  C   UNL     1      -5.325  12.889  67.528  1.00  0.00    -0.057 C  
ENDBRANCH  26  30
BRANCH  28  32
HETATM   32  O   UNL     1      -6.576  16.118  69.636  1.00  0.00    -0.199 OA 
HETATM   33  C   UNL     1      -6.304  17.508  69.499  1.00  0.00    -0.230 C  
ENDBRANCH  28  32
ENDBRANCH  18  24
ENDBRANCH  17  18
ENDBRANCH  16  17
ENDBRANCH  15  16
ENDBRANCH  13  15
ENDBRANCH  12  13
ENDBRANCH  11  12
ENDBRANCH   7  11
ENDBRANCH   2   3
TORSDOF 12
ENDMDL
MODEL      211
REMARK 921   NORMALIZED FREE ENERGY PREDICTED BY IDOCK:   -3.98 KCAL/MOL
REMARK 922        TOTAL FREE ENERGY PREDICTED BY IDOCK:   -8.99 KCAL/MOL
REMARK 923 INTER-LIGAND FREE ENERGY PREDICTED BY IDOCK:   -7.18 KCAL/MOL
REMARK 924 INTRA-LIGAND FREE ENERGY PREDICTED BY IDOCK:   -1.82 KCAL/MOL
REMARK 927      BINDING AFFINITY PREDICTED BY RF-SCORE:    0.00 PKD
ROOT
HETATM    1  C   UNL     1     -11.230   6.580  73.264  1.00  0.00    -0.000 C  
HETATM    2  O   UNL     1     -10.518   7.808  73.386  1.00  0.00    -0.338 OA 
ENDROOT
BRANCH   2   3
HETATM    3  C   UNL     1      -9.902   8.269  72.247  1.00  0.00    -0.294 A  
HETATM    4  C   UNL     1     -10.490   9.007  71.207  1.00  0.00    -0.311 A  
HETATM    5  C   UNL     1      -7.804   8.210  71.012  1.00  0.00    -0.090 A  
HETATM    6  C   UNL     1      -9.714   9.345  70.084  1.00  0.00    -0.274 A  
HETATM    7  C   UNL     1      -8.371   8.960  69.974  1.00  0.00    -0.133 A  
HETATM    8  C   UNL     1      -8.567   7.864  72.132  1.00  0.00    -0.185 A  
BRANCH   4   9
HETATM    9  O   UNL     1     -11.820   9.317  71.315  1.00  0.00    -0.297 OA 
HETATM   10  C   UNL     1     -12.168  10.679  71.520  1.00  0.00    -0.244 C  
ENDBRANCH   4   9
BRANCH   7  11
HETATM   11  C   UNL     1      -7.621   9.205  68.666  1.00  0.00    -0.084 C  
BRANCH  11  12
HETATM   12  C   UNL     1      -6.435  10.122  68.989  1.00  0.00    -0.044 C  
BRANCH  12  13
HETATM   13  N   UNL     1      -6.347  11.513  68.532  1.00  0.00    -0.050 NA 
HETATM   14  C   UNL     1      -5.147  12.193  69.017  1.00  0.00    -0.055 C  
BRANCH  13  15
HETATM   15  C   UNL     1      -6.447  11.619  67.052  1.00  0.00    -0.148 C  
BRANCH  15  16
HETATM   16  C   UNL     1      -7.829  11.856  66.365  1.00  0.00     0.167 C  
BRANCH  16  17
HETATM   17  C   UNL     1      -8.858  12.631  67.220  1.00  0.00    -0.196 C  
BRANCH  17  18
HETATM   18  C   UNL     1     -10.149  13.184  66.553  1.00  0.00    -0.280 C  
HETATM   19  N   UNL     1     -10.248  12.071  64.132  1.00  0.00    -0.318 NA 
HETATM   20  C   UNL     1     -11.460  12.675  67.324  1.00  0.00    -0.402 C  
HETATM   21  C   UNL     1     -10.214  12.568  65.182  1.00  0.00    -0.279 C  
HETATM   22  C   UNL     1     -11.617  13.138  68.782  1.00  0.00    -0.348 C  
HETATM   23  C   UNL     1     -11.592  11.137  67.351  1.00  0.00    -0.157 C  
BRANCH  18  24
HETATM   24  C   UNL     1     -10.024  14.711  66.498  1.00  0.00    -0.292 A  
HETATM   25  C   UNL     1      -9.319  15.430  67.479  1.00  0.00    -0.204 A  
HETATM   26  C   UNL     1      -9.360  16.826  67.545  1.00  0.00    -0.231 A  
HETATM   27  C   UNL     1     -10.741  15.452  65.541  1.00  0.00    -0.397 A  
HETATM   28  C   UNL     1     -10.098  17.536  66.583  1.00  0.00    -0.328 A  
HETATM   29  C   UNL     1     -10.759  16.841  65.576  1.00  0.00    -0.206 A  
BRANCH  26  30
HETATM   30  O   UNL     1      -8.739  17.563  68.522  1.00  0.00    -0.274 OA 
HETATM   31  C   UNL     1      -7.544  17.029  69.079  1.00  0.00    -0.194 C  
ENDBRANCH  26  30
BRANCH  28  32
HETATM   32  O   UNL     1     -10.144  18.902  66.725  1.00  0.00    -0.328 OA 
HETATM   33  C   UNL     1     -10.652  19.642  65.621  1.00  0.00    -0.364 C  
ENDBRANCH  28  32
ENDBRANCH  18  24
ENDBRANCH  17  18
ENDBRANCH  16  17
ENDBRANCH  15  16
ENDBRANCH  13  15
ENDBRANCH  12  13
ENDBRANCH  11  12
ENDBRANCH   7  11
ENDBRANCH   2   3
TORSDOF 12
ENDMDL
MODEL      212
REMARK 921   NORMALIZED FREE ENERGY PREDICTED BY IDOCK:   -3.96 KCAL/MOL
REMARK 922        TOTAL FREE ENERGY PREDICTED BY IDOCK:   -8.97 KCAL/MOL
REMARK 923 INTER-LIGAND FREE ENERGY PREDICTED BY IDOCK:   -7.32 KCAL/MOL
REMARK 924 INTRA-LIGAND FREE ENERGY PREDICTED BY IDOCK:   -1.64 KCAL/MOL
REMARK 927      BINDING AFFINITY PREDICTED BY RF-SCORE:    0.00 PKD
ROOT
HETATM    1  C   UNL     1     -10.024   4.149  65.039  1.00  0.00    -0.208 C  
HETATM    2  O   UNL     1     -10.242   4.340  66.433  1.00  0.00    -0.213 OA 
ENDROOT
BRANCH   2   3
HETATM    3  C   UNL     1      -9.258   5.016  67.115  1.00  0.00    -0.120 A  
HETATM    4  C   UNL     1      -9.028   5.003  68.501  1.00  0.00    -0.107 A  
HETATM    5  C   UNL     1      -7.465   6.639  66.838  1.00  0.00    -0.087 A  
HETATM    6  C   UNL     1      -8.004   5.806  69.032  1.00  0.00    -0.098 A  
HETATM    7  C   UNL     1      -7.211   6.624  68.215  1.00  0.00    -0.085 A  
HETATM    8  C   UNL     1      -8.483   5.846  66.298  1.00  0.00    -0.128 A  
BRANCH   4   9
HETATM    9  O   UNL     1      -9.858   4.241  69.280  1.00  0.00    -0.187 OA 
HETATM   10  C   UNL     1      -9.334   3.723  70.495  1.00  0.00    -0.158 C  
ENDBRANCH   4   9
BRANCH   7  11
HETATM   11  C   UNL     1      -6.227   7.602  68.855  1.00  0.00    -0.035 C  
BRANCH  11  12
HETATM   12  C   UNL     1      -6.089   7.203  70.330  1.00  0.00    -0.027 C  
BRANCH  12  13
HETATM   13  N   UNL     1      -6.314   8.137  71.439  1.00  0.00    -0.036 NA 
HETATM   14  C   UNL     1      -5.767   9.467  71.178  1.00  0.00    -0.064 C  
BRANCH  13  15
HETATM   15  C   UNL     1      -7.752   8.225  71.808  1.00  0.00    -0.111 C  
BRANCH  15  16
HETATM   16  C   UNL     1      -8.704   9.210  71.059  1.00  0.00    -0.251 C  
BRANCH  16  17
HETATM   17  C   UNL     1     -10.168   9.209  71.556  1.00  0.00    -0.403 C  
BRANCH  17  18
HETATM   18  C   UNL     1     -11.329   9.294  70.525  1.00  0.00    -0.306 C  
HETATM   19  N   UNL     1     -10.244   8.707  68.161  1.00  0.00    -0.198 NA 
HETATM   20  C   UNL     1     -12.426   8.157  70.799  1.00  0.00     0.111 C  
HETATM   21  C   UNL     1     -10.728   8.971  69.184  1.00  0.00    -0.157 C  
HETATM   22  C   UNL     1     -13.171   8.235  72.142  1.00  0.00    -0.297 C  
HETATM   23  C   UNL     1     -11.855   6.725  70.714  1.00  0.00    -0.446 C  
BRANCH  18  24
HETATM   24  C   UNL     1     -11.894  10.718  70.580  1.00  0.00    -0.460 A  
HETATM   25  C   UNL     1     -11.555  11.684  69.618  1.00  0.00    -0.401 A  
HETATM   26  C   UNL     1     -11.909  13.030  69.763  1.00  0.00    -0.311 A  
HETATM   27  C   UNL     1     -12.654  11.142  71.685  1.00  0.00    -0.386 A  
HETATM   28  C   UNL     1     -12.655  13.423  70.887  1.00  0.00    -0.327 A  
HETATM   29  C   UNL     1     -13.043  12.470  71.822  1.00  0.00    -0.450 A  
BRANCH  26  30
HETATM   30  O   UNL     1     -11.544  14.015  68.882  1.00  0.00    -0.271 OA 
HETATM   31  C   UNL     1     -10.598  13.670  67.876  1.00  0.00    -0.249 C  
ENDBRANCH  26  30
BRANCH  28  32
HETATM   32  O   UNL     1     -12.932  14.764  71.004  1.00  0.00    -0.327 OA 
HETATM   33  C   UNL     1     -13.986  15.123  71.890  1.00  0.00    -0.528 C  
ENDBRANCH  28  32
ENDBRANCH  18  24
ENDBRANCH  17  18
ENDBRANCH  16  17
ENDBRANCH  15  16
ENDBRANCH  13  15
ENDBRANCH  12  13
ENDBRANCH  11  12
ENDBRANCH   7  11
ENDBRANCH   2   3
TORSDOF 12
ENDMDL
MODEL      213
REMARK 921   NORMALIZED FREE ENERGY PREDICTED BY IDOCK:   -3.96 KCAL/MOL
REMARK 922        TOTAL FREE ENERGY PREDICTED BY IDOCK:   -8.95 KCAL/MOL
REMARK 923 INTER-LIGAND FREE ENERGY PREDICTED BY IDOCK:   -7.54 KCAL/MOL
REMARK 924 INTRA-LIGAND FREE ENERGY PREDICTED BY IDOCK:   -1.41 KCAL/MOL
REMARK 927      BINDING AFFINITY PREDICTED BY RF-SCORE:    0.00 PKD
ROOT
HETATM    1  C   UNL     1      -8.873  20.012  66.604  1.00  0.00    -0.336 C  
HETATM    2  O   UNL     1      -8.510  18.718  66.135  1.00  0.00    -0.425 OA 
ENDROOT
BRANCH   2   3
HETATM    3  C   UNL     1      -8.976  17.653  66.868  1.00  0.00    -0.246 A  
HETATM    4  C   UNL     1      -8.387  17.092  68.013  1.00  0.00    -0.211 A  
HETATM    5  C   UNL     1     -10.701  15.934  66.919  1.00  0.00    -0.289 A  
HETATM    6  C   UNL     1      -8.978  15.960  68.601  1.00  0.00    -0.203 A  
HETATM    7  C   UNL     1     -10.136  15.374  68.071  1.00  0.00    -0.226 A  
HETATM    8  C   UNL     1     -10.120  17.058  66.322  1.00  0.00    -0.330 A  
BRANCH   4   9
HETATM    9  O   UNL     1      -7.224  17.649  68.472  1.00  0.00    -0.222 OA 
HETATM   10  C   UNL     1      -6.569  17.011  69.559  1.00  0.00    -0.194 C  
ENDBRANCH   4   9
BRANCH   7  11
HETATM   11  C   UNL     1     -10.642  14.051  68.645  1.00  0.00    -0.263 C  
BRANCH  11  12
HETATM   12  C   UNL     1     -11.857  13.630  67.808  1.00  0.00    -0.368 C  
BRANCH  12  13
HETATM   13  N   UNL     1     -11.990  12.304  67.197  1.00  0.00    -0.576 NA 
HETATM   14  C   UNL     1     -11.266  12.189  65.932  1.00  0.00    -0.339 C  
BRANCH  13  15
HETATM   15  C   UNL     1     -11.588  11.218  68.130  1.00  0.00    -0.289 C  
BRANCH  15  16
HETATM   16  C   UNL     1     -10.403  10.266  67.776  1.00  0.00    -0.246 C  
BRANCH  16  17
HETATM   17  C   UNL     1     -10.626   8.781  68.143  1.00  0.00    -0.203 C  
BRANCH  17  18
HETATM   18  C   UNL     1      -9.791   8.138  69.285  1.00  0.00    -0.182 C  
HETATM   19  N   UNL     1      -8.224  10.083  70.219  1.00  0.00    -0.133 NA 
HETATM   20  C   UNL     1     -10.729   7.703  70.511  1.00  0.00    -0.241 C  
HETATM   21  C   UNL     1      -8.896   9.225  69.818  1.00  0.00    -0.167 C  
HETATM   22  C   UNL     1     -11.777   6.617  70.217  1.00  0.00    -0.432 C  
HETATM   23  C   UNL     1     -11.506   8.884  71.132  1.00  0.00    -0.364 C  
BRANCH  18  24
HETATM   24  C   UNL     1      -8.995   6.976  68.680  1.00  0.00    -0.130 A  
HETATM   25  C   UNL     1      -9.196   6.555  67.354  1.00  0.00    -0.122 A  
HETATM   26  C   UNL     1      -8.619   5.383  66.854  1.00  0.00    -0.109 A  
HETATM   27  C   UNL     1      -8.143   6.198  69.485  1.00  0.00    -0.112 A  
HETATM   28  C   UNL     1      -7.786   4.620  67.689  1.00  0.00    -0.086 A  
HETATM   29  C   UNL     1      -7.535   5.051  68.987  1.00  0.00    -0.065 A  
BRANCH  26  30
HETATM   30  O   UNL     1      -8.840   4.903  65.588  1.00  0.00    -0.129 OA 
HETATM   31  C   UNL     1     -10.072   4.230  65.353  1.00  0.00    -0.225 C  
ENDBRANCH  26  30
BRANCH  28  32
HETATM   32  O   UNL     1      -7.286   3.453  67.163  1.00  0.00    -0.058 OA 
HETATM   33  C   UNL     1      -5.937   3.483  66.711  1.00  0.00    -0.024 C  
ENDBRANCH  28  32
ENDBRANCH  18  24
ENDBRANCH  17  18
ENDBRANCH  16  17
ENDBRANCH  15  16
ENDBRANCH  13  15
ENDBRANCH  12  13
ENDBRANCH  11  12
ENDBRANCH   7  11
ENDBRANCH   2   3
TORSDOF 12
ENDMDL
MODEL      214
REMARK 921   NORMALIZED FREE ENERGY PREDICTED BY IDOCK:   -3.95 KCAL/MOL
REMARK 922        TOTAL FREE ENERGY PREDICTED BY IDOCK:   -8.95 KCAL/MOL
REMARK 923 INTER-LIGAND FREE ENERGY PREDICTED BY IDOCK:   -7.24 KCAL/MOL
REMARK 924 INTRA-LIGAND FREE ENERGY PREDICTED BY IDOCK:   -1.71 KCAL/MOL
REMARK 927      BINDING AFFINITY PREDICTED BY RF-SCORE:    0.00 PKD
ROOT
HETATM    1  C   UNL     1      -9.904   4.312  65.846  1.00  0.00    -0.223 C  
HETATM    2  O   UNL     1      -9.582   3.436  66.922  1.00  0.00    -0.182 OA 
ENDROOT
BRANCH   2   3
HETATM    3  C   UNL     1      -8.903   3.994  67.978  1.00  0.00    -0.108 A  
HETATM    4  C   UNL     1      -8.930   3.573  69.318  1.00  0.00    -0.119 A  
HETATM    5  C   UNL     1      -7.473   5.863  68.600  1.00  0.00    -0.086 A  
HETATM    6  C   UNL     1      -8.213   4.305  70.280  1.00  0.00    -0.069 A  
HETATM    7  C   UNL     1      -7.475   5.447  69.937  1.00  0.00    -0.069 A  
HETATM    8  C   UNL     1      -8.186   5.145  67.634  1.00  0.00    -0.099 A  
BRANCH   4   9
HETATM    9  O   UNL     1      -9.708   2.490  69.633  1.00  0.00    -0.041 OA 
HETATM   10  C   UNL     1      -9.683   2.026  70.975  1.00  0.00    -0.090 C  
ENDBRANCH   4   9
BRANCH   7  11
HETATM   11  C   UNL     1      -6.853   6.302  71.040  1.00  0.00    -0.066 C  
BRANCH  11  12
HETATM   12  C   UNL     1      -7.673   6.063  72.314  1.00  0.00    -0.101 C  
BRANCH  12  13
HETATM   13  N   UNL     1      -7.714   7.011  73.432  1.00  0.00    -0.086 NA 
HETATM   14  C   UNL     1      -6.616   7.976  73.395  1.00  0.00    -0.097 C  
BRANCH  13  15
HETATM   15  C   UNL     1      -9.023   7.711  73.520  1.00  0.00    -0.241 C  
BRANCH  15  16
HETATM   16  C   UNL     1      -9.651   8.382  72.258  1.00  0.00    -0.374 C  
BRANCH  16  17
HETATM   17  C   UNL     1     -11.183   8.579  72.316  1.00  0.00    -0.432 C  
BRANCH  17  18
HETATM   18  C   UNL     1     -12.002   8.620  70.995  1.00  0.00    -0.278 C  
HETATM   19  N   UNL     1     -10.915   6.770  69.411  1.00  0.00    -0.273 NA 
HETATM   20  C   UNL     1     -13.516   8.152  71.242  1.00  0.00    -0.163 C  
HETATM   21  C   UNL     1     -11.395   7.583  70.089  1.00  0.00    -0.151 C  
HETATM   22  C   UNL     1     -14.358   9.031  72.181  1.00  0.00    -0.350 C  
HETATM   23  C   UNL     1     -13.627   6.715  71.795  1.00  0.00    -0.046 C  
BRANCH  18  24
HETATM   24  C   UNL     1     -11.884  10.035  70.420  1.00  0.00    -0.343 A  
HETATM   25  C   UNL     1     -12.167  11.173  71.195  1.00  0.00    -0.387 A  
HETATM   26  C   UNL     1     -12.248  12.451  70.633  1.00  0.00    -0.278 A  
HETATM   27  C   UNL     1     -11.632  10.231  69.050  1.00  0.00    -0.148 A  
HETATM   28  C   UNL     1     -12.006  12.610  69.258  1.00  0.00    -0.246 A  
HETATM   29  C   UNL     1     -11.675  11.501  68.487  1.00  0.00    -0.379 A  
BRANCH  26  30
HETATM   30  O   UNL     1     -12.584  13.577  71.340  1.00  0.00    -0.348 OA 
HETATM   31  C   UNL     1     -13.622  13.454  72.306  1.00  0.00    -0.605 C  
ENDBRANCH  26  30
BRANCH  28  32
HETATM   32  O   UNL     1     -12.149  13.878  68.749  1.00  0.00    -0.354 OA 
HETATM   33  C   UNL     1     -11.941  14.032  67.350  1.00  0.00    -0.404 C  
ENDBRANCH  28  32
ENDBRANCH  18  24
ENDBRANCH  17  18
ENDBRANCH  16  17
ENDBRANCH  15  16
ENDBRANCH  13  15
ENDBRANCH  12  13
ENDBRANCH  11  12
ENDBRANCH   7  11
ENDBRANCH   2   3
TORSDOF 12
ENDMDL
MODEL      215
REMARK 921   NORMALIZED FREE ENERGY PREDICTED BY IDOCK:   -3.94 KCAL/MOL
REMARK 922        TOTAL FREE ENERGY PREDICTED BY IDOCK:   -8.92 KCAL/MOL
REMARK 923 INTER-LIGAND FREE ENERGY PREDICTED BY IDOCK:   -6.43 KCAL/MOL
REMARK 924 INTRA-LIGAND FREE ENERGY PREDICTED BY IDOCK:   -2.49 KCAL/MOL
REMARK 927      BINDING AFFINITY PREDICTED BY RF-SCORE:    0.00 PKD
ROOT
HETATM    1  C   UNL     1      -8.449   5.194  63.284  1.00  0.00    -0.114 C  
HETATM    2  O   UNL     1      -8.353   5.396  64.690  1.00  0.00    -0.135 OA 
ENDROOT
BRANCH   2   3
HETATM    3  C   UNL     1      -7.822   6.597  65.096  1.00  0.00    -0.115 A  
HETATM    4  C   UNL     1      -7.171   6.866  66.311  1.00  0.00    -0.071 A  
HETATM    5  C   UNL     1      -7.619   8.942  64.475  1.00  0.00    -0.109 A  
HETATM    6  C   UNL     1      -6.741   8.177  66.582  1.00  0.00    -0.063 A  
HETATM    7  C   UNL     1      -6.952   9.223  65.673  1.00  0.00    -0.082 A  
HETATM    8  C   UNL     1      -8.054   7.643  64.195  1.00  0.00    -0.058 A  
BRANCH   4   9
HETATM    9  O   UNL     1      -7.033   5.837  67.205  1.00  0.00    -0.062 OA 
HETATM   10  C   UNL     1      -6.342   6.102  68.417  1.00  0.00    -0.043 C  
ENDBRANCH   4   9
BRANCH   7  11
HETATM   11  C   UNL     1      -6.620  10.657  66.084  1.00  0.00    -0.130 C  
BRANCH  11  12
HETATM   12  C   UNL     1      -5.891  10.583  67.432  1.00  0.00    -0.045 C  
BRANCH  12  13
HETATM   13  N   UNL     1      -6.393  11.226  68.652  1.00  0.00    -0.044 NA 
HETATM   14  C   UNL     1      -7.467  12.181  68.386  1.00  0.00    -0.114 C  
BRANCH  13  15
HETATM   15  C   UNL     1      -6.819  10.229  69.670  1.00  0.00    -0.094 C  
BRANCH  15  16
HETATM   16  C   UNL     1      -8.334   9.982  69.953  1.00  0.00    -0.169 C  
BRANCH  16  17
HETATM   17  C   UNL     1      -8.901   8.666  69.373  1.00  0.00    -0.144 C  
BRANCH  17  18
HETATM   18  C   UNL     1     -10.410   8.574  69.009  1.00  0.00    -0.229 C  
HETATM   19  N   UNL     1     -10.667   6.366  67.536  1.00  0.00    -0.278 NA 
HETATM   20  C   UNL     1     -11.305   8.336  70.318  1.00  0.00    -0.129 C  
HETATM   21  C   UNL     1     -10.568   7.334  68.172  1.00  0.00    -0.177 C  
HETATM   22  C   UNL     1     -11.286   9.455  71.372  1.00  0.00    -0.451 C  
HETATM   23  C   UNL     1     -10.945   7.038  71.074  1.00  0.00    -0.279 C  
BRANCH  18  24
HETATM   24  C   UNL     1     -10.779   9.847  68.238  1.00  0.00    -0.276 A  
HETATM   25  C   UNL     1     -10.266  10.108  66.956  1.00  0.00    -0.290 A  
HETATM   26  C   UNL     1     -10.441  11.344  66.326  1.00  0.00    -0.255 A  
HETATM   27  C   UNL     1     -11.527  10.865  68.857  1.00  0.00    -0.369 A  
HETATM   28  C   UNL     1     -11.180  12.346  66.978  1.00  0.00    -0.303 A  
HETATM   29  C   UNL     1     -11.738  12.085  68.225  1.00  0.00    -0.396 A  
BRANCH  26  30
HETATM   30  O   UNL     1      -9.904  11.662  65.104  1.00  0.00    -0.243 OA 
HETATM   31  C   UNL     1     -10.446  11.004  63.965  1.00  0.00    -0.366 C  
ENDBRANCH  26  30
BRANCH  28  32
HETATM   32  O   UNL     1     -11.278  13.557  66.336  1.00  0.00    -0.300 OA 
HETATM   33  C   UNL     1     -12.551  13.890  65.794  1.00  0.00    -0.494 C  
ENDBRANCH  28  32
ENDBRANCH  18  24
ENDBRANCH  17  18
ENDBRANCH  16  17
ENDBRANCH  15  16
ENDBRANCH  13  15
ENDBRANCH  12  13
ENDBRANCH  11  12
ENDBRANCH   7  11
ENDBRANCH   2   3
TORSDOF 12
ENDMDL
MODEL      216
REMARK 921   NORMALIZED FREE ENERGY PREDICTED BY IDOCK:   -3.94 KCAL/MOL
REMARK 922        TOTAL FREE ENERGY PREDICTED BY IDOCK:   -8.92 KCAL/MOL
REMARK 923 INTER-LIGAND FREE ENERGY PREDICTED BY IDOCK:   -7.44 KCAL/MOL
REMARK 924 INTRA-LIGAND FREE ENERGY PREDICTED BY IDOCK:   -1.48 KCAL/MOL
REMARK 927      BINDING AFFINITY PREDICTED BY RF-SCORE:    0.00 PKD
ROOT
HETATM    1  C   UNL     1     -13.937  14.330  72.277  1.00  0.00    -0.531 C  
HETATM    2  O   UNL     1     -13.401  14.234  70.961  1.00  0.00    -0.342 OA 
ENDROOT
BRANCH   2   3
HETATM    3  C   UNL     1     -12.718  13.079  70.665  1.00  0.00    -0.100 A  
HETATM    4  C   UNL     1     -11.949  12.821  69.518  1.00  0.00    -0.276 A  
HETATM    5  C   UNL     1     -12.322  10.803  71.435  1.00  0.00    -0.433 A  
HETATM    6  C   UNL     1     -11.366  11.552  69.356  1.00  0.00    -0.355 A  
HETATM    7  C   UNL     1     -11.538  10.536  70.307  1.00  0.00    -0.417 A  
HETATM    8  C   UNL     1     -12.910  12.061  71.606  1.00  0.00    -0.399 A  
BRANCH   4   9
HETATM    9  O   UNL     1     -11.849  13.813  68.579  1.00  0.00    -0.336 OA 
HETATM   10  C   UNL     1     -11.066  13.552  67.422  1.00  0.00    -0.281 C  
ENDBRANCH   4   9
BRANCH   7  11
HETATM   11  C   UNL     1     -11.027   9.128  70.005  1.00  0.00    -0.240 C  
BRANCH  11  12
HETATM   12  C   UNL     1     -11.414   8.242  71.197  1.00  0.00    -0.273 C  
BRANCH  12  13
HETATM   13  N   UNL     1     -10.456   7.385  71.904  1.00  0.00    -0.200 NA 
HETATM   14  C   UNL     1     -10.715   7.316  73.341  1.00  0.00    -0.369 C  
BRANCH  13  15
HETATM   15  C   UNL     1     -10.392   6.020  71.317  1.00  0.00    -0.215 C  
BRANCH  15  16
HETATM   16  C   UNL     1     -10.755   5.784  69.817  1.00  0.00    -0.418 C  
BRANCH  16  17
HETATM   17  C   UNL     1      -9.969   4.646  69.126  1.00  0.00    -0.208 C  
BRANCH  17  18
HETATM   18  C   UNL     1      -8.656   4.974  68.362  1.00  0.00    -0.100 C  
HETATM   19  N   UNL     1      -6.712   4.868  70.183  1.00  0.00    -0.036 NA 
HETATM   20  C   UNL     1      -8.315   3.832  67.288  1.00  0.00    -0.098 C  
HETATM   21  C   UNL     1      -7.550   4.923  69.380  1.00  0.00    -0.060 C  
HETATM   22  C   UNL     1      -9.326   3.646  66.144  1.00  0.00    -0.181 C  
HETATM   23  C   UNL     1      -8.130   2.436  67.921  1.00  0.00    -0.070 C  
BRANCH  18  24
HETATM   24  C   UNL     1      -8.814   6.368  67.745  1.00  0.00    -0.112 A  
HETATM   25  C   UNL     1      -8.040   7.458  68.177  1.00  0.00    -0.124 A  
HETATM   26  C   UNL     1      -8.306   8.767  67.760  1.00  0.00    -0.118 A  
HETATM   27  C   UNL     1      -9.849   6.630  66.828  1.00  0.00    -0.227 A  
HETATM   28  C   UNL     1      -9.356   8.996  66.855  1.00  0.00    -0.158 A  
HETATM   29  C   UNL     1     -10.099   7.922  66.379  1.00  0.00    -0.149 A  
BRANCH  26  30
HETATM   30  O   UNL     1      -7.616   9.865  68.205  1.00  0.00    -0.080 OA 
HETATM   31  C   UNL     1      -7.678  10.152  69.598  1.00  0.00    -0.163 C  
ENDBRANCH  26  30
BRANCH  28  32
HETATM   32  O   UNL     1      -9.605  10.305  66.518  1.00  0.00    -0.169 OA 
HETATM   33  C   UNL     1      -9.215  10.713  65.213  1.00  0.00    -0.197 C  
ENDBRANCH  28  32
ENDBRANCH  18  24
ENDBRANCH  17  18
ENDBRANCH  16  17
ENDBRANCH  15  16
ENDBRANCH  13  15
ENDBRANCH  12  13
ENDBRANCH  11  12
ENDBRANCH   7  11
ENDBRANCH   2   3
TORSDOF 12
ENDMDL
MODEL      217
REMARK 921   NORMALIZED FREE ENERGY PREDICTED BY IDOCK:   -3.93 KCAL/MOL
REMARK 922        TOTAL FREE ENERGY PREDICTED BY IDOCK:   -8.91 KCAL/MOL
REMARK 923 INTER-LIGAND FREE ENERGY PREDICTED BY IDOCK:   -7.83 KCAL/MOL
REMARK 924 INTRA-LIGAND FREE ENERGY PREDICTED BY IDOCK:   -1.08 KCAL/MOL
REMARK 927      BINDING AFFINITY PREDICTED BY RF-SCORE:    0.00 PKD
ROOT
HETATM    1  C   UNL     1     -10.182  15.940  65.285  1.00  0.00    -0.251 C  
HETATM    2  O   UNL     1     -11.488  15.434  65.543  1.00  0.00    -0.226 OA 
ENDROOT
BRANCH   2   3
HETATM    3  C   UNL     1     -11.569  14.373  66.414  1.00  0.00    -0.375 A  
HETATM    4  C   UNL     1     -11.626  14.433  67.816  1.00  0.00    -0.356 A  
HETATM    5  C   UNL     1     -11.532  11.941  66.523  1.00  0.00    -0.381 A  
HETATM    6  C   UNL     1     -11.647  13.235  68.551  1.00  0.00    -0.368 A  
HETATM    7  C   UNL     1     -11.607  11.983  67.921  1.00  0.00    -0.405 A  
HETATM    8  C   UNL     1     -11.507  13.127  65.781  1.00  0.00    -0.355 A  
BRANCH   4   9
HETATM    9  O   UNL     1     -11.604  15.669  68.405  1.00  0.00    -0.365 OA 
HETATM   10  C   UNL     1     -10.522  15.966  69.277  1.00  0.00    -0.253 C  
ENDBRANCH   4   9
BRANCH   7  11
HETATM   11  C   UNL     1     -11.461  10.718  68.765  1.00  0.00    -0.364 C  
BRANCH  11  12
HETATM   12  C   UNL     1     -12.612  10.718  69.781  1.00  0.00    -0.058 C  
BRANCH  12  13
HETATM   13  N   UNL     1     -12.412  10.918  71.220  1.00  0.00    -0.387 NA 
HETATM   14  C   UNL     1     -13.443  11.761  71.822  1.00  0.00    -0.093 C  
BRANCH  13  15
HETATM   15  C   UNL     1     -12.298   9.628  71.950  1.00  0.00    -0.357 C  
BRANCH  15  16
HETATM   16  C   UNL     1     -10.910   8.932  72.119  1.00  0.00    -0.339 C  
BRANCH  16  17
HETATM   17  C   UNL     1     -10.878   7.437  71.730  1.00  0.00    -0.253 C  
BRANCH  17  18
HETATM   18  C   UNL     1      -9.605   6.594  72.024  1.00  0.00    -0.150 C  
HETATM   19  N   UNL     1      -7.783   8.323  72.919  1.00  0.00    -0.225 NA 
HETATM   20  C   UNL     1      -9.861   5.564  73.227  1.00  0.00    -0.176 C  
HETATM   21  C   UNL     1      -8.565   7.559  72.525  1.00  0.00    -0.116 C  
HETATM   22  C   UNL     1     -10.925   4.481  72.984  1.00  0.00    -0.308 C  
HETATM   23  C   UNL     1     -10.257   6.257  74.549  1.00  0.00    -0.320 C  
BRANCH  18  24
HETATM   24  C   UNL     1      -9.185   5.916  70.715  1.00  0.00    -0.167 A  
HETATM   25  C   UNL     1      -7.983   6.246  70.066  1.00  0.00    -0.111 A  
HETATM   26  C   UNL     1      -7.683   5.778  68.782  1.00  0.00    -0.090 A  
HETATM   27  C   UNL     1     -10.067   5.048  70.046  1.00  0.00    -0.342 A  
HETATM   28  C   UNL     1      -8.592   4.925  68.135  1.00  0.00    -0.102 A  
HETATM   29  C   UNL     1      -9.762   4.548  68.785  1.00  0.00    -0.213 A  
BRANCH  26  30
HETATM   30  O   UNL     1      -6.552   6.126  68.088  1.00  0.00    -0.053 OA 
HETATM   31  C   UNL     1      -5.902   7.334  68.466  1.00  0.00    -0.023 C  
ENDBRANCH  26  30
BRANCH  28  32
HETATM   32  O   UNL     1      -8.270   4.535  66.857  1.00  0.00    -0.102 OA 
HETATM   33  C   UNL     1      -9.029   5.116  65.802  1.00  0.00    -0.152 C  
ENDBRANCH  28  32
ENDBRANCH  18  24
ENDBRANCH  17  18
ENDBRANCH  16  17
ENDBRANCH  15  16
ENDBRANCH  13  15
ENDBRANCH  12  13
ENDBRANCH  11  12
ENDBRANCH   7  11
ENDBRANCH   2   3
TORSDOF 12
ENDMDL
MODEL      218
REMARK 921   NORMALIZED FREE ENERGY PREDICTED BY IDOCK:   -3.91 KCAL/MOL
REMARK 922        TOTAL FREE ENERGY PREDICTED BY IDOCK:   -8.88 KCAL/MOL
REMARK 923 INTER-LIGAND FREE ENERGY PREDICTED BY IDOCK:   -7.67 KCAL/MOL
REMARK 924 INTRA-LIGAND FREE ENERGY PREDICTED BY IDOCK:   -1.21 KCAL/MOL
REMARK 927      BINDING AFFINITY PREDICTED BY RF-SCORE:    0.00 PKD
ROOT
HETATM    1  C   UNL     1      -7.365  20.519  67.052  1.00  0.00    -0.322 C  
HETATM    2  O   UNL     1      -7.959  19.525  67.881  1.00  0.00    -0.285 OA 
ENDROOT
BRANCH   2   3
HETATM    3  C   UNL     1      -8.470  18.423  67.238  1.00  0.00    -0.254 A  
HETATM    4  C   UNL     1      -9.767  18.270  66.723  1.00  0.00    -0.322 A  
HETATM    5  C   UNL     1      -7.954  16.128  66.608  1.00  0.00    -0.305 A  
HETATM    6  C   UNL     1     -10.133  17.041  66.145  1.00  0.00    -0.332 A  
HETATM    7  C   UNL     1      -9.238  15.965  66.074  1.00  0.00    -0.372 A  
HETATM    8  C   UNL     1      -7.580  17.344  67.189  1.00  0.00    -0.226 A  
BRANCH   4   9
HETATM    9  O   UNL     1     -10.638  19.318  66.860  1.00  0.00    -0.416 OA 
HETATM   10  C   UNL     1     -10.775  20.212  65.764  1.00  0.00    -0.168 C  
ENDBRANCH   4   9
BRANCH   7  11
HETATM   11  C   UNL     1      -9.735  14.602  65.592  1.00  0.00    -0.302 C  
BRANCH  11  12
HETATM   12  C   UNL     1     -10.865  14.173  66.536  1.00  0.00    -0.298 C  
BRANCH  12  13
HETATM   13  N   UNL     1     -10.627  13.534  67.834  1.00  0.00    -0.244 NA 
HETATM   14  C   UNL     1     -11.825  12.900  68.380  1.00  0.00    -0.318 C  
BRANCH  13  15
HETATM   15  C   UNL     1      -9.500  12.564  67.779  1.00  0.00    -0.197 C  
BRANCH  15  16
HETATM   16  C   UNL     1      -9.329  11.483  68.892  1.00  0.00    -0.006 C  
BRANCH  16  17
HETATM   17  C   UNL     1      -8.276  10.393  68.587  1.00  0.00    -0.121 C  
BRANCH  17  18
HETATM   18  C   UNL     1      -8.735   8.927  68.352  1.00  0.00    -0.134 C  
HETATM   19  N   UNL     1     -10.750   9.068  66.612  1.00  0.00    -0.088 NA 
HETATM   20  C   UNL     1      -7.587   8.073  67.626  1.00  0.00    -0.102 C  
HETATM   21  C   UNL     1      -9.877   8.992  67.375  1.00  0.00    -0.190 C  
HETATM   22  C   UNL     1      -6.276   7.888  68.408  1.00  0.00    -0.048 C  
HETATM   23  C   UNL     1      -7.182   8.644  66.250  1.00  0.00    -0.079 C  
BRANCH  18  24
HETATM   24  C   UNL     1      -9.162   8.351  69.707  1.00  0.00    -0.157 A  
HETATM   25  C   UNL     1     -10.326   7.576  69.846  1.00  0.00    -0.224 A  
HETATM   26  C   UNL     1     -10.826   7.208  71.099  1.00  0.00    -0.239 A  
HETATM   27  C   UNL     1      -8.478   8.710  70.882  1.00  0.00    -0.195 A  
HETATM   28  C   UNL     1     -10.127   7.596  72.255  1.00  0.00    -0.208 A  
HETATM   29  C   UNL     1      -8.946   8.320  72.132  1.00  0.00    -0.274 A  
BRANCH  26  30
HETATM   30  O   UNL     1     -11.990   6.507  71.281  1.00  0.00    -0.336 OA 
HETATM   31  C   UNL     1     -13.176   7.262  71.509  1.00  0.00    -0.379 C  
ENDBRANCH  26  30
BRANCH  28  32
HETATM   32  O   UNL     1     -10.689   7.252  73.461  1.00  0.00    -0.382 OA 
HETATM   33  C   UNL     1      -9.792   6.882  74.501  1.00  0.00    -0.147 C  
ENDBRANCH  28  32
ENDBRANCH  18  24
ENDBRANCH  17  18
ENDBRANCH  16  17
ENDBRANCH  15  16
ENDBRANCH  13  15
ENDBRANCH  12  13
ENDBRANCH  11  12
ENDBRANCH   7  11
ENDBRANCH   2   3
TORSDOF 12
ENDMDL
MODEL      219
REMARK 921   NORMALIZED FREE ENERGY PREDICTED BY IDOCK:   -3.90 KCAL/MOL
REMARK 922        TOTAL FREE ENERGY PREDICTED BY IDOCK:   -8.86 KCAL/MOL
REMARK 923 INTER-LIGAND FREE ENERGY PREDICTED BY IDOCK:   -8.15 KCAL/MOL
REMARK 924 INTRA-LIGAND FREE ENERGY PREDICTED BY IDOCK:   -0.71 KCAL/MOL
REMARK 927      BINDING AFFINITY PREDICTED BY RF-SCORE:    0.00 PKD
ROOT
HETATM    1  C   UNL     1      -9.630  14.562  66.479  1.00  0.00    -0.293 C  
HETATM    2  O   UNL     1     -10.992  14.555  66.894  1.00  0.00    -0.302 OA 
ENDROOT
BRANCH   2   3
HETATM    3  C   UNL     1     -11.302  13.734  67.951  1.00  0.00    -0.299 A  
HETATM    4  C   UNL     1     -11.237  12.331  67.980  1.00  0.00    -0.269 A  
HETATM    5  C   UNL     1     -12.208  13.734  70.212  1.00  0.00    -0.429 A  
HETATM    6  C   UNL     1     -11.651  11.651  69.139  1.00  0.00    -0.378 A  
HETATM    7  C   UNL     1     -12.133  12.337  70.263  1.00  0.00    -0.376 A  
HETATM    8  C   UNL     1     -11.802  14.422  69.063  1.00  0.00    -0.358 A  
BRANCH   4   9
HETATM    9  O   UNL     1     -10.820  11.687  66.846  1.00  0.00    -0.250 OA 
HETATM   10  C   UNL     1     -10.191  10.422  66.998  1.00  0.00    -0.225 C  
ENDBRANCH   4   9
BRANCH   7  11
HETATM   11  C   UNL     1     -12.727  11.548  71.430  1.00  0.00    -0.469 C  
BRANCH  11  12
HETATM   12  C   UNL     1     -13.205  10.203  70.869  1.00  0.00    -0.289 C  
BRANCH  12  13
HETATM   13  N   UNL     1     -13.169   8.954  71.637  1.00  0.00    -0.349 NA 
HETATM   14  C   UNL     1     -14.368   8.140  71.448  1.00  0.00    -0.365 C  
BRANCH  13  15
HETATM   15  C   UNL     1     -11.946   8.159  71.350  1.00  0.00    -0.298 C  
BRANCH  15  16
HETATM   16  C   UNL     1     -10.850   7.967  72.445  1.00  0.00    -0.392 C  
BRANCH  16  17
HETATM   17  C   UNL     1      -9.498   8.654  72.144  1.00  0.00    -0.373 C  
BRANCH  17  18
HETATM   18  C   UNL     1      -8.208   7.794  72.029  1.00  0.00    -0.134 C  
HETATM   19  N   UNL     1      -6.235   9.512  71.514  1.00  0.00    -0.252 NA 
HETATM   20  C   UNL     1      -7.843   7.113  73.434  1.00  0.00    -0.112 C  
HETATM   21  C   UNL     1      -7.086   8.752  71.732  1.00  0.00    -0.054 C  
HETATM   22  C   UNL     1      -8.863   6.107  73.992  1.00  0.00    -0.130 C  
HETATM   23  C   UNL     1      -7.600   8.139  74.563  1.00  0.00    -0.272 C  
BRANCH  18  24
HETATM   24  C   UNL     1      -8.424   6.784  70.896  1.00  0.00    -0.136 A  
HETATM   25  C   UNL     1      -8.839   7.188  69.616  1.00  0.00    -0.141 A  
HETATM   26  C   UNL     1      -9.222   6.266  68.636  1.00  0.00    -0.124 A  
HETATM   27  C   UNL     1      -8.357   5.402  71.150  1.00  0.00    -0.124 A  
HETATM   28  C   UNL     1      -9.158   4.893  68.927  1.00  0.00    -0.112 A  
HETATM   29  C   UNL     1      -8.701   4.476  70.172  1.00  0.00    -0.112 A  
BRANCH  26  30
HETATM   30  O   UNL     1      -9.693   6.620  67.398  1.00  0.00    -0.122 OA 
HETATM   31  C   UNL     1     -11.100   6.784  67.258  1.00  0.00    -0.324 C  
ENDBRANCH  26  30
BRANCH  28  32
HETATM   32  O   UNL     1      -9.593   4.034  67.946  1.00  0.00    -0.174 OA 
HETATM   33  C   UNL     1      -8.639   3.652  66.963  1.00  0.00    -0.109 C  
ENDBRANCH  28  32
ENDBRANCH  18  24
ENDBRANCH  17  18
ENDBRANCH  16  17
ENDBRANCH  15  16
ENDBRANCH  13  15
ENDBRANCH  12  13
ENDBRANCH  11  12
ENDBRANCH   7  11
ENDBRANCH   2   3
TORSDOF 12
ENDMDL
MODEL      220
REMARK 921   NORMALIZED FREE ENERGY PREDICTED BY IDOCK:   -3.90 KCAL/MOL
REMARK 922        TOTAL FREE ENERGY PREDICTED BY IDOCK:   -8.85 KCAL/MOL
REMARK 923 INTER-LIGAND FREE ENERGY PREDICTED BY IDOCK:   -7.54 KCAL/MOL
REMARK 924 INTRA-LIGAND FREE ENERGY PREDICTED BY IDOCK:   -1.32 KCAL/MOL
REMARK 927      BINDING AFFINITY PREDICTED BY RF-SCORE:    0.00 PKD
ROOT
HETATM    1  C   UNL     1      -9.354   5.147  65.260  1.00  0.00    -0.040 C  
HETATM    2  O   UNL     1      -8.454   4.816  66.313  1.00  0.00    -0.111 OA 
ENDROOT
BRANCH   2   3
HETATM    3  C   UNL     1      -8.436   5.672  67.388  1.00  0.00    -0.106 A  
HETATM    4  C   UNL     1      -9.082   5.493  68.622  1.00  0.00    -0.117 A  
HETATM    5  C   UNL     1      -7.667   7.865  68.114  1.00  0.00    -0.125 A  
HETATM    6  C   UNL     1      -8.999   6.508  69.592  1.00  0.00    -0.141 A  
HETATM    7  C   UNL     1      -8.291   7.695  69.356  1.00  0.00    -0.131 A  
HETATM    8  C   UNL     1      -7.746   6.864  67.140  1.00  0.00    -0.108 A  
BRANCH   4   9
HETATM    9  O   UNL     1      -9.816   4.351  68.801  1.00  0.00    -0.150 OA 
HETATM   10  C   UNL     1      -9.418   3.465  69.838  1.00  0.00    -0.166 C  
ENDBRANCH   4   9
BRANCH   7  11
HETATM   11  C   UNL     1      -8.370   8.835  70.371  1.00  0.00    -0.146 C  
BRANCH  11  12
HETATM   12  C   UNL     1      -9.345   9.876  69.807  1.00  0.00    -0.221 C  
BRANCH  12  13
HETATM   13  N   UNL     1     -10.771   9.607  69.591  1.00  0.00    -0.229 NA 
HETATM   14  C   UNL     1     -11.636  10.571  70.268  1.00  0.00    -0.332 C  
BRANCH  13  15
HETATM   15  C   UNL     1     -11.109   9.524  68.145  1.00  0.00     0.006 C  
BRANCH  15  16
HETATM   16  C   UNL     1     -10.415  10.469  67.114  1.00  0.00    -0.302 C  
BRANCH  16  17
HETATM   17  C   UNL     1     -11.268  11.674  66.655  1.00  0.00    -0.362 C  
BRANCH  17  18
HETATM   18  C   UNL     1     -10.739  12.604  65.528  1.00  0.00    -0.303 C  
HETATM   19  N   UNL     1      -9.165  11.079  64.009  1.00  0.00    -0.190 NA 
HETATM   20  C   UNL     1     -11.934  13.089  64.574  1.00  0.00    -0.450 C  
HETATM   21  C   UNL     1      -9.844  11.756  64.665  1.00  0.00    -0.203 C  
HETATM   22  C   UNL     1     -13.024  13.952  65.229  1.00  0.00    -0.341 C  
HETATM   23  C   UNL     1     -12.674  11.923  63.884  1.00  0.00    -0.413 C  
BRANCH  18  24
HETATM   24  C   UNL     1      -9.981  13.757  66.195  1.00  0.00    -0.318 A  
HETATM   25  C   UNL     1     -10.084  15.078  65.726  1.00  0.00    -0.367 A  
HETATM   26  C   UNL     1      -9.256  16.099  66.202  1.00  0.00    -0.347 A  
HETATM   27  C   UNL     1      -9.040  13.500  67.208  1.00  0.00    -0.225 A  
HETATM   28  C   UNL     1      -8.315  15.806  67.203  1.00  0.00    -0.202 A  
HETATM   29  C   UNL     1      -8.236  14.515  67.714  1.00  0.00    -0.171 A  
BRANCH  26  30
HETATM   30  O   UNL     1      -9.280  17.386  65.727  1.00  0.00    -0.517 OA 
HETATM   31  C   UNL     1     -10.453  18.151  65.980  1.00  0.00    -0.335 C  
ENDBRANCH  26  30
BRANCH  28  32
HETATM   32  O   UNL     1      -7.494  16.835  67.598  1.00  0.00    -0.146 OA 
HETATM   33  C   UNL     1      -7.273  16.975  68.996  1.00  0.00    -0.229 C  
ENDBRANCH  28  32
ENDBRANCH  18  24
ENDBRANCH  17  18
ENDBRANCH  16  17
ENDBRANCH  15  16
ENDBRANCH  13  15
ENDBRANCH  12  13
ENDBRANCH  11  12
ENDBRANCH   7  11
ENDBRANCH   2   3
TORSDOF 12
ENDMDL
MODEL      221
REMARK 921   NORMALIZED FREE ENERGY PREDICTED BY IDOCK:   -3.85 KCAL/MOL
REMARK 922        TOTAL FREE ENERGY PREDICTED BY IDOCK:   -8.78 KCAL/MOL
REMARK 923 INTER-LIGAND FREE ENERGY PREDICTED BY IDOCK:   -8.31 KCAL/MOL
REMARK 924 INTRA-LIGAND FREE ENERGY PREDICTED BY IDOCK:   -0.46 KCAL/MOL
REMARK 927      BINDING AFFINITY PREDICTED BY RF-SCORE:    0.00 PKD
ROOT
HETATM    1  C   UNL     1     -10.582   3.823  72.976  1.00  0.00    -0.167 C  
HETATM    2  O   UNL     1      -9.859   5.048  73.046  1.00  0.00    -0.148 OA 
ENDROOT
BRANCH   2   3
HETATM    3  C   UNL     1     -10.534   6.176  72.645  1.00  0.00    -0.208 A  
HETATM    4  C   UNL     1     -10.080   7.504  72.716  1.00  0.00    -0.240 A  
HETATM    5  C   UNL     1     -12.676   6.960  71.793  1.00  0.00    -0.369 A  
HETATM    6  C   UNL     1     -10.936   8.542  72.310  1.00  0.00    -0.426 A  
HETATM    7  C   UNL     1     -12.232   8.287  71.841  1.00  0.00    -0.383 A  
HETATM    8  C   UNL     1     -11.835   5.918  72.198  1.00  0.00    -0.247 A  
BRANCH   4   9
HETATM    9  O   UNL     1      -8.832   7.726  73.235  1.00  0.00    -0.171 OA 
HETATM   10  C   UNL     1      -7.789   8.058  72.329  1.00  0.00    -0.118 C  
ENDBRANCH   4   9
BRANCH   7  11
HETATM   11  C   UNL     1     -13.180   9.456  71.573  1.00  0.00    -0.456 C  
BRANCH  11  12
HETATM   12  C   UNL     1     -12.314  10.656  71.167  1.00  0.00    -0.400 C  
BRANCH  12  13
HETATM   13  N   UNL     1     -12.875  11.939  70.731  1.00  0.00    -0.127 NA 
HETATM   14  C   UNL     1     -13.353  12.754  71.846  1.00  0.00    -0.413 C  
BRANCH  13  15
HETATM   15  C   UNL     1     -11.918  12.708  69.892  1.00  0.00    -0.295 C  
BRANCH  15  16
HETATM   16  C   UNL     1     -11.646  12.290  68.413  1.00  0.00    -0.377 C  
BRANCH  16  17
HETATM   17  C   UNL     1     -11.478  13.465  67.422  1.00  0.00    -0.368 C  
BRANCH  17  18
HETATM   18  C   UNL     1     -10.758  13.228  66.065  1.00  0.00    -0.286 C  
HETATM   19  N   UNL     1     -12.683  12.644  64.315  1.00  0.00    -0.712 NA 
HETATM   20  C   UNL     1     -10.074  14.577  65.532  1.00  0.00    -0.394 C  
HETATM   21  C   UNL     1     -11.834  12.891  65.069  1.00  0.00    -0.372 C  
HETATM   22  C   UNL     1      -8.952  15.165  66.404  1.00  0.00    -0.314 C  
HETATM   23  C   UNL     1     -11.083  15.725  65.311  1.00  0.00    -0.280 C  
BRANCH  18  24
HETATM   24  C   UNL     1      -9.767  12.075  66.262  1.00  0.00    -0.251 A  
HETATM   25  C   UNL     1     -10.202  10.754  66.467  1.00  0.00    -0.287 A  
HETATM   26  C   UNL     1      -9.320   9.733  66.836  1.00  0.00    -0.149 A  
HETATM   27  C   UNL     1      -8.390  12.331  66.391  1.00  0.00     0.157 A  
HETATM   28  C   UNL     1      -7.953  10.026  66.972  1.00  0.00    -0.106 A  
HETATM   29  C   UNL     1      -7.499  11.317  66.722  1.00  0.00    -0.146 A  
BRANCH  26  30
HETATM   30  O   UNL     1      -9.712   8.447  67.108  1.00  0.00    -0.161 OA 
HETATM   31  C   UNL     1     -10.871   8.277  67.915  1.00  0.00     0.033 C  
ENDBRANCH  26  30
BRANCH  28  32
HETATM   32  O   UNL     1      -7.140   8.998  67.385  1.00  0.00    -0.078 OA 
HETATM   33  C   UNL     1      -6.209   8.499  66.432  1.00  0.00    -0.057 C  
ENDBRANCH  28  32
ENDBRANCH  18  24
ENDBRANCH  17  18
ENDBRANCH  16  17
ENDBRANCH  15  16
ENDBRANCH  13  15
ENDBRANCH  12  13
ENDBRANCH  11  12
ENDBRANCH   7  11
ENDBRANCH   2   3
TORSDOF 12
ENDMDL
MODEL      222
REMARK 921   NORMALIZED FREE ENERGY PREDICTED BY IDOCK:   -3.83 KCAL/MOL
REMARK 922        TOTAL FREE ENERGY PREDICTED BY IDOCK:   -8.73 KCAL/MOL
REMARK 923 INTER-LIGAND FREE ENERGY PREDICTED BY IDOCK:   -7.74 KCAL/MOL
REMARK 924 INTRA-LIGAND FREE ENERGY PREDICTED BY IDOCK:   -0.99 KCAL/MOL
REMARK 927      BINDING AFFINITY PREDICTED BY RF-SCORE:    0.00 PKD
ROOT
HETATM    1  C   UNL     1      -8.693   6.212  68.536  1.00  0.00    -0.111 C  
HETATM    2  O   UNL     1      -8.677   5.989  67.129  1.00  0.00    -0.111 OA 
ENDROOT
BRANCH   2   3
HETATM    3  C   UNL     1      -8.783   7.106  66.335  1.00  0.00    -0.139 A  
HETATM    4  C   UNL     1      -8.075   7.372  65.152  1.00  0.00    -0.129 A  
HETATM    5  C   UNL     1      -9.836   9.296  66.191  1.00  0.00    -0.363 A  
HETATM    6  C   UNL     1      -8.272   8.601  64.498  1.00  0.00    -0.166 A  
HETATM    7  C   UNL     1      -9.152   9.570  65.001  1.00  0.00    -0.281 A  
HETATM    8  C   UNL     1      -9.646   8.078  66.852  1.00  0.00    -0.265 A  
BRANCH   4   9
HETATM    9  O   UNL     1      -7.178   6.432  64.718  1.00  0.00    -0.058 OA 
HETATM   10  C   UNL     1      -5.814   6.606  65.075  1.00  0.00    -0.031 C  
ENDBRANCH   4   9
BRANCH   7  11
HETATM   11  C   UNL     1      -9.204  10.951  64.350  1.00  0.00    -0.223 C  
BRANCH  11  12
HETATM   12  C   UNL     1     -10.165  11.808  65.185  1.00  0.00    -0.268 C  
BRANCH  12  13
HETATM   13  N   UNL     1     -10.891  12.960  64.641  1.00  0.00    -0.322 NA 
HETATM   14  C   UNL     1     -12.297  12.666  64.370  1.00  0.00    -0.446 C  
BRANCH  13  15
HETATM   15  C   UNL     1     -10.766  14.159  65.513  1.00  0.00    -0.324 C  
BRANCH  15  16
HETATM   16  C   UNL     1      -9.362  14.749  65.853  1.00  0.00    -0.189 C  
BRANCH  16  17
HETATM   17  C   UNL     1      -9.204  15.270  67.300  1.00  0.00    -0.209 C  
BRANCH  17  18
HETATM   18  C   UNL     1      -9.711  16.694  67.662  1.00  0.00    -0.250 C  
HETATM   19  N   UNL     1     -10.778  17.675  65.424  1.00  0.00    -0.579 NA 
HETATM   20  C   UNL     1     -10.909  16.625  68.727  1.00  0.00    -0.331 C  
HETATM   21  C   UNL     1     -10.311  17.262  66.405  1.00  0.00    -0.316 C  
HETATM   22  C   UNL     1     -10.566  16.036  70.104  1.00  0.00    -0.269 C  
HETATM   23  C   UNL     1     -12.131  15.830  68.218  1.00  0.00     0.212 C  
BRANCH  18  24
HETATM   24  C   UNL     1      -8.505  17.505  68.149  1.00  0.00    -0.254 A  
HETATM   25  C   UNL     1      -7.314  16.883  68.558  1.00  0.00    -0.206 A  
HETATM   26  C   UNL     1      -6.283  17.595  69.180  1.00  0.00    -0.226 A  
HETATM   27  C   UNL     1      -8.611  18.895  68.342  1.00  0.00    -0.381 A  
HETATM   28  C   UNL     1      -6.426  18.979  69.372  1.00  0.00    -0.294 A  
HETATM   29  C   UNL     1      -7.577  19.618  68.926  1.00  0.00    -0.344 A  
BRANCH  26  30
HETATM   30  O   UNL     1      -5.132  17.016  69.652  1.00  0.00    -0.139 OA 
HETATM   31  C   UNL     1      -5.273  15.964  70.600  1.00  0.00    -0.168 C  
ENDBRANCH  26  30
BRANCH  28  32
HETATM   32  O   UNL     1      -5.405  19.619  70.033  1.00  0.00    -0.197 OA 
HETATM   33  C   UNL     1      -5.655  19.999  71.381  1.00  0.00    -0.364 C  
ENDBRANCH  28  32
ENDBRANCH  18  24
ENDBRANCH  17  18
ENDBRANCH  16  17
ENDBRANCH  15  16
ENDBRANCH  13  15
ENDBRANCH  12  13
ENDBRANCH  11  12
ENDBRANCH   7  11
ENDBRANCH   2   3
TORSDOF 12
ENDMDL
MODEL      223
REMARK 921   NORMALIZED FREE ENERGY PREDICTED BY IDOCK:   -3.80 KCAL/MOL
REMARK 922        TOTAL FREE ENERGY PREDICTED BY IDOCK:   -8.69 KCAL/MOL
REMARK 923 INTER-LIGAND FREE ENERGY PREDICTED BY IDOCK:   -7.90 KCAL/MOL
REMARK 924 INTRA-LIGAND FREE ENERGY PREDICTED BY IDOCK:   -0.79 KCAL/MOL
REMARK 927      BINDING AFFINITY PREDICTED BY RF-SCORE:    0.00 PKD
ROOT
HETATM    1  C   UNL     1     -10.457  19.270  67.786  1.00  0.00    -0.435 C  
HETATM    2  O   UNL     1      -9.963  18.105  68.438  1.00  0.00    -0.339 OA 
ENDROOT
BRANCH   2   3
HETATM    3  C   UNL     1     -10.305  16.900  67.873  1.00  0.00    -0.332 A  
HETATM    4  C   UNL     1      -9.800  16.351  66.683  1.00  0.00    -0.261 A  
HETATM    5  C   UNL     1     -11.823  15.009  68.095  1.00  0.00    -0.286 A  
HETATM    6  C   UNL     1     -10.312  15.124  66.224  1.00  0.00    -0.303 A  
HETATM    7  C   UNL     1     -11.318  14.439  66.921  1.00  0.00    -0.357 A  
HETATM    8  C   UNL     1     -11.324  16.231  68.560  1.00  0.00    -0.330 A  
BRANCH   4   9
HETATM    9  O   UNL     1      -8.862  17.072  65.993  1.00  0.00    -0.477 OA 
HETATM   10  C   UNL     1      -7.512  16.988  66.427  1.00  0.00    -0.301 C  
ENDBRANCH   4   9
BRANCH   7  11
HETATM   11  C   UNL     1     -11.958  13.200  66.296  1.00  0.00    -0.473 C  
BRANCH  11  12
HETATM   12  C   UNL     1     -11.685  12.025  67.243  1.00  0.00    -0.269 C  
BRANCH  12  13
HETATM   13  N   UNL     1     -10.760  10.933  66.921  1.00  0.00    -0.265 NA 
HETATM   14  C   UNL     1      -9.959  11.204  65.728  1.00  0.00    -0.245 C  
BRANCH  13  15
HETATM   15  C   UNL     1      -9.884  10.589  68.073  1.00  0.00    -0.147 C  
BRANCH  15  16
HETATM   16  C   UNL     1     -10.358   9.566  69.152  1.00  0.00    -0.218 C  
BRANCH  16  17
HETATM   17  C   UNL     1      -9.266   8.594  69.655  1.00  0.00    -0.157 C  
BRANCH  17  18
HETATM   18  C   UNL     1      -9.284   7.111  69.188  1.00  0.00    -0.139 C  
HETATM   19  N   UNL     1     -11.168   6.966  67.307  1.00  0.00    -0.275 NA 
HETATM   20  C   UNL     1      -7.909   6.718  68.463  1.00  0.00    -0.118 C  
HETATM   21  C   UNL     1     -10.349   7.014  68.129  1.00  0.00    -0.191 C  
HETATM   22  C   UNL     1      -6.639   6.777  69.329  1.00  0.00    -0.048 C  
HETATM   23  C   UNL     1      -7.610   7.578  67.216  1.00  0.00    -0.108 C  
BRANCH  18  24
HETATM   24  C   UNL     1      -9.601   6.244  70.412  1.00  0.00    -0.183 A  
HETATM   25  C   UNL     1      -9.231   4.890  70.473  1.00  0.00    -0.196 A  
HETATM   26  C   UNL     1      -9.679   4.045  71.493  1.00  0.00    -0.176 A  
HETATM   27  C   UNL     1     -10.408   6.743  71.451  1.00  0.00    -0.223 A  
HETATM   28  C   UNL     1     -10.497   4.571  72.508  1.00  0.00    -0.186 A  
HETATM   29  C   UNL     1     -10.830   5.921  72.489  1.00  0.00    -0.289 A  
BRANCH  26  30
HETATM   30  O   UNL     1      -9.394   2.705  71.556  1.00  0.00    -0.104 OA 
HETATM   31  C   UNL     1      -9.123   2.039  70.327  1.00  0.00    -0.095 C  
ENDBRANCH  26  30
BRANCH  28  32
HETATM   32  O   UNL     1     -10.949   3.686  73.457  1.00  0.00    -0.209 OA 
HETATM   33  C   UNL     1     -10.070   3.408  74.540  1.00  0.00    -0.165 C  
ENDBRANCH  28  32
ENDBRANCH  18  24
ENDBRANCH  17  18
ENDBRANCH  16  17
ENDBRANCH  15  16
ENDBRANCH  13  15
ENDBRANCH  12  13
ENDBRANCH  11  12
ENDBRANCH   7  11
ENDBRANCH   2   3
TORSDOF 12
ENDMDL
MODEL      224
REMARK 921   NORMALIZED FREE ENERGY PREDICTED BY IDOCK:   -3.80 KCAL/MOL
REMARK 922        TOTAL FREE ENERGY PREDICTED BY IDOCK:   -8.68 KCAL/MOL
REMARK 923 INTER-LIGAND FREE ENERGY PREDICTED BY IDOCK:   -7.32 KCAL/MOL
REMARK 924 INTRA-LIGAND FREE ENERGY PREDICTED BY IDOCK:   -1.36 KCAL/MOL
REMARK 927      BINDING AFFINITY PREDICTED BY RF-SCORE:    0.00 PKD
ROOT
HETATM    1  C   UNL     1     -10.376  15.912  65.558  1.00  0.00    -0.400 C  
HETATM    2  O   UNL     1     -11.637  15.527  66.096  1.00  0.00    -0.016 OA 
ENDROOT
BRANCH   2   3
HETATM    3  C   UNL     1     -11.638  14.422  66.913  1.00  0.00    -0.388 A  
HETATM    4  C   UNL     1     -11.599  14.408  68.317  1.00  0.00    -0.328 A  
HETATM    5  C   UNL     1     -11.552  11.989  66.890  1.00  0.00    -0.389 A  
HETATM    6  C   UNL     1     -11.548  13.173  68.987  1.00  0.00    -0.360 A  
HETATM    7  C   UNL     1     -11.529  11.956  68.290  1.00  0.00    -0.372 A  
HETATM    8  C   UNL     1     -11.599  13.211  66.212  1.00  0.00    -0.399 A  
BRANCH   4   9
HETATM    9  O   UNL     1     -11.557  15.612  68.968  1.00  0.00    -0.342 OA 
HETATM   10  C   UNL     1     -12.199  15.703  70.232  1.00  0.00    -0.386 C  
ENDBRANCH   4   9
BRANCH   7  11
HETATM   11  C   UNL     1     -11.304  10.653  69.054  1.00  0.00    -0.340 C  
BRANCH  11  12
HETATM   12  C   UNL     1     -12.521  10.446  69.965  1.00  0.00    -0.119 C  
BRANCH  12  13
HETATM   13  N   UNL     1     -12.412  10.200  71.407  1.00  0.00    -0.388 NA 
HETATM   14  C   UNL     1     -13.660  10.464  72.121  1.00  0.00    -0.099 C  
BRANCH  13  15
HETATM   15  C   UNL     1     -11.921   8.828  71.702  1.00  0.00    -0.332 C  
BRANCH  15  16
HETATM   16  C   UNL     1     -10.393   8.509  71.668  1.00  0.00    -0.333 C  
BRANCH  16  17
HETATM   17  C   UNL     1      -9.934   7.634  70.480  1.00  0.00    -0.184 C  
BRANCH  17  18
HETATM   18  C   UNL     1      -8.458   7.706  69.997  1.00  0.00    -0.136 C  
HETATM   19  N   UNL     1      -7.174   9.178  71.813  1.00  0.00    -0.326 NA 
HETATM   20  C   UNL     1      -7.767   6.259  70.036  1.00  0.00    -0.101 C  
HETATM   21  C   UNL     1      -7.722   8.540  71.011  1.00  0.00    -0.097 C  
HETATM   22  C   UNL     1      -8.367   5.191  69.107  1.00  0.00    -0.087 C  
HETATM   23  C   UNL     1      -7.749   5.631  71.447  1.00  0.00    -0.109 C  
BRANCH  18  24
HETATM   24  C   UNL     1      -8.456   8.349  68.606  1.00  0.00    -0.128 A  
HETATM   25  C   UNL     1      -8.559   7.577  67.436  1.00  0.00    -0.118 A  
HETATM   26  C   UNL     1      -8.367   8.129  66.165  1.00  0.00    -0.126 A  
HETATM   27  C   UNL     1      -8.200   9.724  68.455  1.00  0.00    -0.105 A  
HETATM   28  C   UNL     1      -8.097   9.503  66.050  1.00  0.00    -0.111 A  
HETATM   29  C   UNL     1      -8.043  10.290  67.195  1.00  0.00    -0.121 A  
BRANCH  26  30
HETATM   30  O   UNL     1      -8.396   7.400  65.004  1.00  0.00    -0.125 OA 
HETATM   31  C   UNL     1      -8.030   6.027  65.087  1.00  0.00    -0.123 C  
ENDBRANCH  26  30
BRANCH  28  32
HETATM   32  O   UNL     1      -7.868   9.982  64.782  1.00  0.00    -0.136 OA 
HETATM   33  C   UNL     1      -8.933  10.698  64.168  1.00  0.00    -0.198 C  
ENDBRANCH  28  32
ENDBRANCH  18  24
ENDBRANCH  17  18
ENDBRANCH  16  17
ENDBRANCH  15  16
ENDBRANCH  13  15
ENDBRANCH  12  13
ENDBRANCH  11  12
ENDBRANCH   7  11
ENDBRANCH   2   3
TORSDOF 12
ENDMDL
MODEL      225
REMARK 921   NORMALIZED FREE ENERGY PREDICTED BY IDOCK:   -3.79 KCAL/MOL
REMARK 922        TOTAL FREE ENERGY PREDICTED BY IDOCK:   -8.66 KCAL/MOL
REMARK 923 INTER-LIGAND FREE ENERGY PREDICTED BY IDOCK:   -7.96 KCAL/MOL
REMARK 924 INTRA-LIGAND FREE ENERGY PREDICTED BY IDOCK:   -0.70 KCAL/MOL
REMARK 927      BINDING AFFINITY PREDICTED BY RF-SCORE:    0.00 PKD
ROOT
HETATM    1  C   UNL     1      -9.339   3.859  69.878  1.00  0.00    -0.174 C  
HETATM    2  O   UNL     1      -8.754   5.138  70.101  1.00  0.00    -0.107 OA 
ENDROOT
BRANCH   2   3
HETATM    3  C   UNL     1      -9.622   6.160  70.401  1.00  0.00    -0.164 A  
HETATM    4  C   UNL     1      -9.287   7.464  70.803  1.00  0.00    -0.159 A  
HETATM    5  C   UNL     1     -11.983   6.687  70.677  1.00  0.00    -0.404 A  
HETATM    6  C   UNL     1     -10.316   8.366  71.127  1.00  0.00    -0.264 A  
HETATM    7  C   UNL     1     -11.667   7.995  71.064  1.00  0.00    -0.295 A  
HETATM    8  C   UNL     1     -10.968   5.780  70.357  1.00  0.00    -0.333 A  
BRANCH   4   9
HETATM    9  O   UNL     1      -7.958   7.778  70.914  1.00  0.00    -0.094 OA 
HETATM   10  C   UNL     1      -7.369   7.712  72.205  1.00  0.00    -0.077 C  
ENDBRANCH   4   9
BRANCH   7  11
HETATM   11  C   UNL     1     -12.736   8.954  71.585  1.00  0.00    -0.403 C  
BRANCH  11  12
HETATM   12  C   UNL     1     -12.186  10.377  71.423  1.00  0.00    -0.362 C  
BRANCH  12  13
HETATM   13  N   UNL     1     -12.740  11.349  70.475  1.00  0.00    -0.188 NA 
HETATM   14  C   UNL     1     -12.585  12.730  70.927  1.00  0.00    -0.255 C  
BRANCH  13  15
HETATM   15  C   UNL     1     -12.177  11.178  69.109  1.00  0.00    -0.175 C  
BRANCH  15  16
HETATM   16  C   UNL     1     -11.620  12.406  68.321  1.00  0.00    -0.384 C  
BRANCH  16  17
HETATM   17  C   UNL     1     -11.882  12.378  66.798  1.00  0.00    -0.385 C  
BRANCH  17  18
HETATM   18  C   UNL     1     -10.715  12.663  65.813  1.00  0.00    -0.295 C  
HETATM   19  N   UNL     1     -11.842  12.929  63.411  1.00  0.00    -0.539 NA 
HETATM   20  C   UNL     1     -10.023  14.074  66.132  1.00  0.00    -0.325 C  
HETATM   21  C   UNL     1     -11.337  12.810  64.451  1.00  0.00    -0.347 C  
HETATM   22  C   UNL     1      -9.338  14.205  67.503  1.00  0.00    -0.204 C  
HETATM   23  C   UNL     1     -10.998  15.267  66.031  1.00  0.00    -0.317 C  
BRANCH  18  24
HETATM   24  C   UNL     1      -9.747  11.476  65.885  1.00  0.00    -0.260 A  
HETATM   25  C   UNL     1      -9.370  10.760  64.735  1.00  0.00    -0.264 A  
HETATM   26  C   UNL     1      -8.646   9.567  64.811  1.00  0.00    -0.176 A  
HETATM   27  C   UNL     1      -9.324  10.974  67.128  1.00  0.00    -0.177 A  
HETATM   28  C   UNL     1      -8.252   9.084  66.070  1.00  0.00    -0.113 A  
HETATM   29  C   UNL     1      -8.573   9.807  67.213  1.00  0.00    -0.128 A  
BRANCH  26  30
HETATM   30  O   UNL     1      -8.313   8.805  63.720  1.00  0.00    -0.170 OA 
HETATM   31  C   UNL     1      -8.683   9.305  62.439  1.00  0.00    -0.235 C  
ENDBRANCH  26  30
BRANCH  28  32
HETATM   32  O   UNL     1      -7.586   7.882  66.089  1.00  0.00    -0.080 OA 
HETATM   33  C   UNL     1      -7.668   7.126  67.291  1.00  0.00    -0.109 C  
ENDBRANCH  28  32
ENDBRANCH  18  24
ENDBRANCH  17  18
ENDBRANCH  16  17
ENDBRANCH  15  16
ENDBRANCH  13  15
ENDBRANCH  12  13
ENDBRANCH  11  12
ENDBRANCH   7  11
ENDBRANCH   2   3
TORSDOF 12
ENDMDL
MODEL      226
REMARK 921   NORMALIZED FREE ENERGY PREDICTED BY IDOCK:   -3.78 KCAL/MOL
REMARK 922        TOTAL FREE ENERGY PREDICTED BY IDOCK:   -8.65 KCAL/MOL
REMARK 923 INTER-LIGAND FREE ENERGY PREDICTED BY IDOCK:   -7.22 KCAL/MOL
REMARK 924 INTRA-LIGAND FREE ENERGY PREDICTED BY IDOCK:   -1.43 KCAL/MOL
REMARK 927      BINDING AFFINITY PREDICTED BY RF-SCORE:    0.00 PKD
ROOT
HETATM    1  C   UNL     1     -11.432  11.990  68.827  1.00  0.00    -0.300 C  
HETATM    2  O   UNL     1     -12.123  12.329  67.629  1.00  0.00    -0.502 OA 
ENDROOT
BRANCH   2   3
HETATM    3  C   UNL     1     -11.489  12.013  66.451  1.00  0.00    -0.353 A  
HETATM    4  C   UNL     1     -11.698  12.602  65.193  1.00  0.00    -0.367 A  
HETATM    5  C   UNL     1      -9.912  10.450  65.451  1.00  0.00    -0.362 A  
HETATM    6  C   UNL     1     -10.995  12.107  64.081  1.00  0.00    -0.416 A  
HETATM    7  C   UNL     1     -10.096  11.037  64.194  1.00  0.00    -0.403 A  
HETATM    8  C   UNL     1     -10.608  10.931  66.565  1.00  0.00    -0.295 A  
BRANCH   4   9
HETATM    9  O   UNL     1     -12.627  13.604  65.103  1.00  0.00    -0.518 OA 
HETATM   10  C   UNL     1     -12.370  14.663  64.191  1.00  0.00    -0.265 C  
ENDBRANCH   4   9
BRANCH   7  11
HETATM   11  C   UNL     1      -9.487  10.428  62.932  1.00  0.00    -0.354 C  
BRANCH  11  12
HETATM   12  C   UNL     1      -8.016  10.123  63.242  1.00  0.00    -0.155 C  
BRANCH  12  13
HETATM   13  N   UNL     1      -7.412   8.800  63.047  1.00  0.00    -0.100 NA 
HETATM   14  C   UNL     1      -6.006   8.757  63.448  1.00  0.00    -0.081 C  
BRANCH  13  15
HETATM   15  C   UNL     1      -8.185   7.730  63.731  1.00  0.00     0.022 C  
BRANCH  15  16
HETATM   16  C   UNL     1      -7.466   6.709  64.670  1.00  0.00    -0.093 C  
BRANCH  16  17
HETATM   17  C   UNL     1      -7.889   6.778  66.155  1.00  0.00    -0.102 C  
BRANCH  17  18
HETATM   18  C   UNL     1      -8.378   5.490  66.875  1.00  0.00    -0.108 C  
HETATM   19  N   UNL     1      -9.596   4.032  65.004  1.00  0.00    -0.169 NA 
HETATM   20  C   UNL     1      -7.138   4.608  67.381  1.00  0.00    -0.065 C  
HETATM   21  C   UNL     1      -9.073   4.660  65.831  1.00  0.00    -0.135 C  
HETATM   22  C   UNL     1      -6.227   5.252  68.439  1.00  0.00    -0.031 C  
HETATM   23  C   UNL     1      -6.204   4.156  66.237  1.00  0.00    -0.032 C  
BRANCH  18  24
HETATM   24  C   UNL     1      -9.325   5.919  68.001  1.00  0.00    -0.111 A  
HETATM   25  C   UNL     1      -9.380   5.227  69.223  1.00  0.00    -0.167 A  
HETATM   26  C   UNL     1     -10.368   5.489  70.178  1.00  0.00    -0.284 A  
HETATM   27  C   UNL     1     -10.276   6.932  67.786  1.00  0.00    -0.224 A  
HETATM   28  C   UNL     1     -11.313   6.497  69.926  1.00  0.00    -0.406 A  
HETATM   29  C   UNL     1     -11.241   7.226  68.744  1.00  0.00     0.153 A  
BRANCH  26  30
HETATM   30  O   UNL     1     -10.496   4.795  71.354  1.00  0.00    -0.159 OA 
HETATM   31  C   UNL     1      -9.773   3.574  71.472  1.00  0.00    -0.167 C  
ENDBRANCH  26  30
BRANCH  28  32
HETATM   32  O   UNL     1     -12.290   6.678  70.876  1.00  0.00    -0.353 OA 
HETATM   33  C   UNL     1     -12.331   7.948  71.515  1.00  0.00    -0.315 C  
ENDBRANCH  28  32
ENDBRANCH  18  24
ENDBRANCH  17  18
ENDBRANCH  16  17
ENDBRANCH  15  16
ENDBRANCH  13  15
ENDBRANCH  12  13
ENDBRANCH  11  12
ENDBRANCH   7  11
ENDBRANCH   2   3
TORSDOF 12
ENDMDL
MODEL      227
REMARK 921   NORMALIZED FREE ENERGY PREDICTED BY IDOCK:   -3.77 KCAL/MOL
REMARK 922        TOTAL FREE ENERGY PREDICTED BY IDOCK:   -8.64 KCAL/MOL
REMARK 923 INTER-LIGAND FREE ENERGY PREDICTED BY IDOCK:   -7.20 KCAL/MOL
REMARK 924 INTRA-LIGAND FREE ENERGY PREDICTED BY IDOCK:   -1.43 KCAL/MOL
REMARK 927      BINDING AFFINITY PREDICTED BY RF-SCORE:    0.00 PKD
ROOT
HETATM    1  C   UNL     1     -10.445  17.199  65.405  1.00  0.00    -0.080 C  
HETATM    2  O   UNL     1     -10.402  15.776  65.388  1.00  0.00    -0.363 OA 
ENDROOT
BRANCH   2   3
HETATM    3  C   UNL     1     -10.673  15.145  66.579  1.00  0.00    -0.310 A  
HETATM    4  C   UNL     1      -9.792  14.960  67.657  1.00  0.00    -0.217 A  
HETATM    5  C   UNL     1     -12.377  13.867  67.758  1.00  0.00    -0.039 A  
HETATM    6  C   UNL     1     -10.228  14.235  68.780  1.00  0.00    -0.226 A  
HETATM    7  C   UNL     1     -11.517  13.688  68.848  1.00  0.00    -0.344 A  
HETATM    8  C   UNL     1     -11.953  14.583  66.634  1.00  0.00    -0.358 A  
BRANCH   4   9
HETATM    9  O   UNL     1      -8.520  15.453  67.536  1.00  0.00    -0.158 OA 
HETATM   10  C   UNL     1      -8.162  16.566  68.343  1.00  0.00    -0.194 C  
ENDBRANCH   4   9
BRANCH   7  11
HETATM   11  C   UNL     1     -11.885  12.769  70.012  1.00  0.00    -0.352 C  
BRANCH  11  12
HETATM   12  C   UNL     1     -11.582  11.333  69.567  1.00  0.00    -0.328 C  
BRANCH  12  13
HETATM   13  N   UNL     1     -11.353  10.232  70.508  1.00  0.00    -0.323 NA 
HETATM   14  C   UNL     1     -12.376  10.156  71.549  1.00  0.00    -0.408 C  
BRANCH  13  15
HETATM   15  C   UNL     1     -11.216   8.924  69.813  1.00  0.00    -0.006 C  
BRANCH  15  16
HETATM   16  C   UNL     1     -10.168   8.739  68.671  1.00  0.00    -0.214 C  
BRANCH  16  17
HETATM   17  C   UNL     1      -8.763   9.307  68.976  1.00  0.00    -0.135 C  
BRANCH  17  18
HETATM   18  C   UNL     1      -7.849   9.764  67.805  1.00  0.00    -0.094 C  
HETATM   19  N   UNL     1      -6.457  11.838  68.739  1.00  0.00    -0.060 NA 
HETATM   20  C   UNL     1      -6.767   8.636  67.444  1.00  0.00    -0.063 C  
HETATM   21  C   UNL     1      -7.061  10.939  68.317  1.00  0.00    -0.075 C  
HETATM   22  C   UNL     1      -7.322   7.298  66.927  1.00  0.00    -0.092 C  
HETATM   23  C   UNL     1      -5.839   8.281  68.626  1.00  0.00    -0.040 C  
BRANCH  18  24
HETATM   24  C   UNL     1      -8.756  10.141  66.628  1.00  0.00    -0.134 A  
HETATM   25  C   UNL     1      -8.434   9.792  65.306  1.00  0.00    -0.154 A  
HETATM   26  C   UNL     1      -9.149  10.292  64.213  1.00  0.00    -0.243 A  
HETATM   27  C   UNL     1      -9.867  10.982  66.825  1.00  0.00    -0.229 A  
HETATM   28  C   UNL     1     -10.244  11.142  64.442  1.00  0.00    -0.330 A  
HETATM   29  C   UNL     1     -10.607  11.456  65.748  1.00  0.00    -0.315 A  
BRANCH  26  30
HETATM   30  O   UNL     1      -8.830  10.027  62.906  1.00  0.00    -0.189 OA 
HETATM   31  C   UNL     1      -8.377   8.713  62.599  1.00  0.00    -0.187 C  
ENDBRANCH  26  30
BRANCH  28  32
HETATM   32  O   UNL     1     -10.879  11.644  63.332  1.00  0.00    -0.391 OA 
HETATM   33  C   UNL     1     -12.221  12.082  63.508  1.00  0.00    -0.547 C  
ENDBRANCH  28  32
ENDBRANCH  18  24
ENDBRANCH  17  18
ENDBRANCH  16  17
ENDBRANCH  15  16
ENDBRANCH  13  15
ENDBRANCH  12  13
ENDBRANCH  11  12
ENDBRANCH   7  11
ENDBRANCH   2   3
TORSDOF 12
ENDMDL
MODEL      228
REMARK 921   NORMALIZED FREE ENERGY PREDICTED BY IDOCK:   -3.74 KCAL/MOL
REMARK 922        TOTAL FREE ENERGY PREDICTED BY IDOCK:   -8.58 KCAL/MOL
REMARK 923 INTER-LIGAND FREE ENERGY PREDICTED BY IDOCK:   -7.76 KCAL/MOL
REMARK 924 INTRA-LIGAND FREE ENERGY PREDICTED BY IDOCK:   -0.82 KCAL/MOL
REMARK 927      BINDING AFFINITY PREDICTED BY RF-SCORE:    0.00 PKD
ROOT
HETATM    1  C   UNL     1     -10.378  19.551  68.018  1.00  0.00    -0.445 C  
HETATM    2  O   UNL     1      -9.707  18.348  68.378  1.00  0.00    -0.319 OA 
ENDROOT
BRANCH   2   3
HETATM    3  C   UNL     1     -10.128  17.203  67.744  1.00  0.00    -0.306 A  
HETATM    4  C   UNL     1      -9.749  16.755  66.468  1.00  0.00    -0.283 A  
HETATM    5  C   UNL     1     -11.660  15.321  67.945  1.00  0.00    -0.301 A  
HETATM    6  C   UNL     1     -10.329  15.582  65.955  1.00  0.00    -0.365 A  
HETATM    7  C   UNL     1     -11.280  14.852  66.681  1.00  0.00    -0.340 A  
HETATM    8  C   UNL     1     -11.092  16.489  68.465  1.00  0.00    -0.335 A  
BRANCH   4   9
HETATM    9  O   UNL     1      -8.864  17.522  65.758  1.00  0.00    -0.514 OA 
HETATM   10  C   UNL     1      -7.494  17.469  66.132  1.00  0.00    -0.299 C  
ENDBRANCH   4   9
BRANCH   7  11
HETATM   11  C   UNL     1     -12.003  13.683  66.014  1.00  0.00    -0.447 C  
BRANCH  11  12
HETATM   12  C   UNL     1     -11.291  12.398  66.457  1.00  0.00    -0.340 C  
BRANCH  12  13
HETATM   13  N   UNL     1     -10.572  11.518  65.530  1.00  0.00    -0.274 NA 
HETATM   14  C   UNL     1     -10.530  12.046  64.168  1.00  0.00    -0.353 C  
BRANCH  13  15
HETATM   15  C   UNL     1      -9.201  11.203  66.012  1.00  0.00    -0.205 C  
BRANCH  15  16
HETATM   16  C   UNL     1      -8.964  10.749  67.487  1.00  0.00    -0.132 C  
BRANCH  16  17
HETATM   17  C   UNL     1      -7.843   9.701  67.676  1.00  0.00    -0.095 C  
BRANCH  17  18
HETATM   18  C   UNL     1      -8.218   8.218  67.949  1.00  0.00    -0.128 C  
HETATM   19  N   UNL     1     -10.543   7.816  66.707  1.00  0.00    -0.285 NA 
HETATM   20  C   UNL     1      -7.171   7.221  67.254  1.00  0.00    -0.093 C  
HETATM   21  C   UNL     1      -9.533   7.979  67.258  1.00  0.00    -0.155 C  
HETATM   22  C   UNL     1      -5.720   7.294  67.759  1.00  0.00    -0.029 C  
HETATM   23  C   UNL     1      -7.095   7.390  65.721  1.00  0.00    -0.065 C  
BRANCH  18  24
HETATM   24  C   UNL     1      -8.319   8.038  69.468  1.00  0.00    -0.127 A  
HETATM   25  C   UNL     1      -8.106   6.790  70.079  1.00  0.00    -0.125 A  
HETATM   26  C   UNL     1      -8.382   6.572  71.433  1.00  0.00    -0.125 A  
HETATM   27  C   UNL     1      -8.778   9.089  70.282  1.00  0.00    -0.202 A  
HETATM   28  C   UNL     1      -8.854   7.640  72.216  1.00  0.00    -0.131 A  
HETATM   29  C   UNL     1      -9.021   8.893  71.637  1.00  0.00    -0.243 A  
BRANCH  26  30
HETATM   30  O   UNL     1      -8.248   5.357  72.054  1.00  0.00    -0.112 OA 
HETATM   31  C   UNL     1      -7.467   4.369  71.390  1.00  0.00    -0.060 C  
ENDBRANCH  26  30
BRANCH  28  32
HETATM   32  O   UNL     1      -9.156   7.358  73.526  1.00  0.00    -0.170 OA 
HETATM   33  C   UNL     1     -10.512   7.036  73.814  1.00  0.00    -0.354 C  
ENDBRANCH  28  32
ENDBRANCH  18  24
ENDBRANCH  17  18
ENDBRANCH  16  17
ENDBRANCH  15  16
ENDBRANCH  13  15
ENDBRANCH  12  13
ENDBRANCH  11  12
ENDBRANCH   7  11
ENDBRANCH   2   3
TORSDOF 12
ENDMDL
MODEL      229
REMARK 921   NORMALIZED FREE ENERGY PREDICTED BY IDOCK:   -3.71 KCAL/MOL
REMARK 922        TOTAL FREE ENERGY PREDICTED BY IDOCK:   -8.54 KCAL/MOL
REMARK 923 INTER-LIGAND FREE ENERGY PREDICTED BY IDOCK:   -7.74 KCAL/MOL
REMARK 924 INTRA-LIGAND FREE ENERGY PREDICTED BY IDOCK:   -0.80 KCAL/MOL
REMARK 927      BINDING AFFINITY PREDICTED BY RF-SCORE:    0.00 PKD
ROOT
HETATM    1  C   UNL     1      -6.947  14.767  67.801  1.00  0.00    -0.174 C  
HETATM    2  O   UNL     1      -8.152  14.882  67.051  1.00  0.00    -0.205 OA 
ENDROOT
BRANCH   2   3
HETATM    3  C   UNL     1      -9.178  14.045  67.417  1.00  0.00    -0.216 A  
HETATM    4  C   UNL     1     -10.554  14.325  67.375  1.00  0.00    -0.276 A  
HETATM    5  C   UNL     1      -9.655  11.874  68.413  1.00  0.00    -0.196 A  
HETATM    6  C   UNL     1     -11.463  13.361  67.847  1.00  0.00    -0.350 A  
HETATM    7  C   UNL     1     -11.030  12.131  68.362  1.00  0.00    -0.271 A  
HETATM    8  C   UNL     1      -8.741  12.827  67.950  1.00  0.00    -0.185 A  
BRANCH   4   9
HETATM    9  O   UNL     1     -10.942  15.558  66.923  1.00  0.00    -0.317 OA 
HETATM   10  C   UNL     1     -10.633  15.897  65.579  1.00  0.00    -0.401 C  
ENDBRANCH   4   9
BRANCH   7  11
HETATM   11  C   UNL     1     -12.042  11.190  69.015  1.00  0.00    -0.315 C  
BRANCH  11  12
HETATM   12  C   UNL     1     -11.363  10.585  70.251  1.00  0.00    -0.327 C  
BRANCH  12  13
HETATM   13  N   UNL     1     -12.032  10.453  71.550  1.00  0.00    -0.289 NA 
HETATM   14  C   UNL     1     -13.071  11.461  71.756  1.00  0.00    -0.418 C  
BRANCH  13  15
HETATM   15  C   UNL     1     -12.580   9.086  71.757  1.00  0.00    -0.367 C  
BRANCH  15  16
HETATM   16  C   UNL     1     -11.765   8.017  72.551  1.00  0.00    -0.446 C  
BRANCH  16  17
HETATM   17  C   UNL     1     -11.230   6.841  71.703  1.00  0.00    -0.293 C  
BRANCH  17  18
HETATM   18  C   UNL     1      -9.783   6.323  71.935  1.00  0.00    -0.166 C  
HETATM   19  N   UNL     1      -8.353   8.460  72.643  1.00  0.00    -0.303 NA 
HETATM   20  C   UNL     1      -9.724   5.321  73.186  1.00  0.00    -0.161 C  
HETATM   21  C   UNL     1      -8.963   7.522  72.330  1.00  0.00    -0.135 C  
HETATM   22  C   UNL     1     -10.525   4.015  73.054  1.00  0.00    -0.250 C  
HETATM   23  C   UNL     1     -10.186   5.969  74.509  1.00  0.00    -0.307 C  
BRANCH  18  24
HETATM   24  C   UNL     1      -9.299   5.695  70.623  1.00  0.00    -0.191 A  
HETATM   25  C   UNL     1      -9.842   6.069  69.382  1.00  0.00    -0.203 A  
HETATM   26  C   UNL     1      -9.548   5.373  68.205  1.00  0.00    -0.125 A  
HETATM   27  C   UNL     1      -8.399   4.615  70.638  1.00  0.00    -0.096 A  
HETATM   28  C   UNL     1      -8.657   4.288  68.257  1.00  0.00    -0.095 A  
HETATM   29  C   UNL     1      -8.071   3.938  69.469  1.00  0.00    -0.062 A  
BRANCH  26  30
HETATM   30  O   UNL     1     -10.104   5.664  66.986  1.00  0.00    -0.149 OA 
HETATM   31  C   UNL     1     -11.016   6.755  66.930  1.00  0.00    -0.300 C  
ENDBRANCH  26  30
BRANCH  28  32
HETATM   32  O   UNL     1      -8.442   3.609  67.082  1.00  0.00    -0.097 OA 
HETATM   33  C   UNL     1      -7.095   3.265  66.780  1.00  0.00    -0.055 C  
ENDBRANCH  28  32
ENDBRANCH  18  24
ENDBRANCH  17  18
ENDBRANCH  16  17
ENDBRANCH  15  16
ENDBRANCH  13  15
ENDBRANCH  12  13
ENDBRANCH  11  12
ENDBRANCH   7  11
ENDBRANCH   2   3
TORSDOF 12
ENDMDL
MODEL      230
REMARK 921   NORMALIZED FREE ENERGY PREDICTED BY IDOCK:   -3.70 KCAL/MOL
REMARK 922        TOTAL FREE ENERGY PREDICTED BY IDOCK:   -8.51 KCAL/MOL
REMARK 923 INTER-LIGAND FREE ENERGY PREDICTED BY IDOCK:   -7.75 KCAL/MOL
REMARK 924 INTRA-LIGAND FREE ENERGY PREDICTED BY IDOCK:   -0.76 KCAL/MOL
REMARK 927      BINDING AFFINITY PREDICTED BY RF-SCORE:    0.00 PKD
ROOT
HETATM    1  C   UNL     1     -10.677  18.186  67.738  1.00  0.00    -0.335 C  
HETATM    2  O   UNL     1      -9.869  17.268  68.467  1.00  0.00    -0.276 OA 
ENDROOT
BRANCH   2   3
HETATM    3  C   UNL     1     -10.384  16.006  68.640  1.00  0.00    -0.241 A  
HETATM    4  C   UNL     1     -11.169  15.553  69.712  1.00  0.00    -0.304 A  
HETATM    5  C   UNL     1     -10.388  13.762  67.695  1.00  0.00    -0.239 A  
HETATM    6  C   UNL     1     -11.562  14.203  69.750  1.00  0.00    -0.351 A  
HETATM    7  C   UNL     1     -11.186  13.298  68.748  1.00  0.00    -0.317 A  
HETATM    8  C   UNL     1      -9.988  15.102  67.648  1.00  0.00    -0.229 A  
BRANCH   4   9
HETATM    9  O   UNL     1     -11.471  16.445  70.707  1.00  0.00    -0.368 OA 
HETATM   10  C   UNL     1     -12.197  15.964  71.829  1.00  0.00    -0.481 C  
ENDBRANCH   4   9
BRANCH   7  11
HETATM   11  C   UNL     1     -11.494  11.812  68.920  1.00  0.00    -0.357 C  
BRANCH  11  12
HETATM   12  C   UNL     1     -12.312  11.666  70.210  1.00  0.00    -0.258 C  
BRANCH  12  13
HETATM   13  N   UNL     1     -12.158  10.540  71.136  1.00  0.00    -0.370 NA 
HETATM   14  C   UNL     1     -13.386  10.238  71.869  1.00  0.00    -0.383 C  
BRANCH  13  15
HETATM   15  C   UNL     1     -11.644   9.323  70.451  1.00  0.00    -0.173 C  
BRANCH  15  16
HETATM   16  C   UNL     1     -11.301   8.038  71.269  1.00  0.00    -0.295 C  
BRANCH  16  17
HETATM   17  C   UNL     1     -10.302   8.250  72.429  1.00  0.00    -0.402 C  
BRANCH  17  18
HETATM   18  C   UNL     1      -9.073   7.308  72.566  1.00  0.00    -0.161 C  
HETATM   19  N   UNL     1      -7.547   8.381  74.471  1.00  0.00    -0.273 NA 
HETATM   20  C   UNL     1      -9.510   5.865  73.113  1.00  0.00    -0.143 C  
HETATM   21  C   UNL     1      -8.199   7.906  73.635  1.00  0.00    -0.211 C  
HETATM   22  C   UNL     1     -10.452   5.050  72.212  1.00  0.00    -0.275 C  
HETATM   23  C   UNL     1     -10.190   5.920  74.498  1.00  0.00    -0.293 C  
BRANCH  18  24
HETATM   24  C   UNL     1      -8.372   7.261  71.203  1.00  0.00    -0.112 A  
HETATM   25  C   UNL     1      -8.183   8.419  70.429  1.00  0.00    -0.115 A  
HETATM   26  C   UNL     1      -7.721   8.361  69.111  1.00  0.00    -0.092 A  
HETATM   27  C   UNL     1      -8.030   6.028  70.619  1.00  0.00    -0.111 A  
HETATM   28  C   UNL     1      -7.403   7.112  68.551  1.00  0.00    -0.100 A  
HETATM   29  C   UNL     1      -7.536   5.961  69.321  1.00  0.00    -0.089 A  
BRANCH  26  30
HETATM   30  O   UNL     1      -7.583   9.459  68.301  1.00  0.00    -0.082 OA 
HETATM   31  C   UNL     1      -8.156  10.680  68.756  1.00  0.00    -0.139 C  
ENDBRANCH  26  30
BRANCH  28  32
HETATM   32  O   UNL     1      -7.002   7.109  67.237  1.00  0.00    -0.073 OA 
HETATM   33  C   UNL     1      -7.998   6.807  66.266  1.00  0.00    -0.108 C  
ENDBRANCH  28  32
ENDBRANCH  18  24
ENDBRANCH  17  18
ENDBRANCH  16  17
ENDBRANCH  15  16
ENDBRANCH  13  15
ENDBRANCH  12  13
ENDBRANCH  11  12
ENDBRANCH   7  11
ENDBRANCH   2   3
TORSDOF 12
ENDMDL
MODEL      231
REMARK 921   NORMALIZED FREE ENERGY PREDICTED BY IDOCK:   -3.69 KCAL/MOL
REMARK 922        TOTAL FREE ENERGY PREDICTED BY IDOCK:   -8.50 KCAL/MOL
REMARK 923 INTER-LIGAND FREE ENERGY PREDICTED BY IDOCK:   -7.60 KCAL/MOL
REMARK 924 INTRA-LIGAND FREE ENERGY PREDICTED BY IDOCK:   -0.91 KCAL/MOL
REMARK 927      BINDING AFFINITY PREDICTED BY RF-SCORE:    0.00 PKD
ROOT
HETATM    1  C   UNL     1      -7.843   1.536  66.834  1.00  0.00    -0.065 C  
HETATM    2  O   UNL     1      -8.506   1.676  68.087  1.00  0.00    -0.057 OA 
ENDROOT
BRANCH   2   3
HETATM    3  C   UNL     1      -8.986   2.928  68.385  1.00  0.00    -0.143 A  
HETATM    4  C   UNL     1      -9.056   3.527  69.653  1.00  0.00    -0.135 A  
HETATM    5  C   UNL     1     -10.087   4.870  67.413  1.00  0.00    -0.196 A  
HETATM    6  C   UNL     1      -9.635   4.803  69.777  1.00  0.00    -0.249 A  
HETATM    7  C   UNL     1     -10.149   5.489  68.667  1.00  0.00    -0.246 A  
HETATM    8  C   UNL     1      -9.516   3.600  67.278  1.00  0.00    -0.235 A  
BRANCH   4   9
HETATM    9  O   UNL     1      -8.601   2.808  70.727  1.00  0.00    -0.056 OA 
HETATM   10  C   UNL     1      -9.567   2.187  71.564  1.00  0.00    -0.142 C  
ENDBRANCH   4   9
BRANCH   7  11
HETATM   11  C   UNL     1     -10.917   6.793  68.877  1.00  0.00    -0.272 C  
BRANCH  11  12
HETATM   12  C   UNL     1      -9.882   7.881  69.194  1.00  0.00    -0.174 C  
BRANCH  12  13
HETATM   13  N   UNL     1      -9.277   8.736  68.168  1.00  0.00    -0.140 NA 
HETATM   14  C   UNL     1     -10.121   8.880  66.982  1.00  0.00    -0.261 C  
BRANCH  13  15
HETATM   15  C   UNL     1      -8.901  10.070  68.707  1.00  0.00    -0.137 C  
BRANCH  15  16
HETATM   16  C   UNL     1      -8.736  11.294  67.752  1.00  0.00    -0.134 C  
BRANCH  16  17
HETATM   17  C   UNL     1      -9.072  12.665  68.382  1.00  0.00    -0.128 C  
BRANCH  17  18
HETATM   18  C   UNL     1     -10.248  13.505  67.812  1.00  0.00    -0.242 C  
HETATM   19  N   UNL     1     -11.188  12.121  65.736  1.00  0.00    -0.327 NA 
HETATM   20  C   UNL     1     -11.456  13.594  68.864  1.00  0.00    -0.344 C  
HETATM   21  C   UNL     1     -10.785  12.738  66.634  1.00  0.00    -0.261 C  
HETATM   22  C   UNL     1     -11.154  14.307  70.192  1.00  0.00    -0.014 C  
HETATM   23  C   UNL     1     -12.033  12.214  69.246  1.00  0.00    -0.318 C  
BRANCH  18  24
HETATM   24  C   UNL     1      -9.687  14.873  67.406  1.00  0.00    -0.217 A  
HETATM   25  C   UNL     1     -10.476  15.827  66.740  1.00  0.00    -0.305 A  
HETATM   26  C   UNL     1      -9.927  16.993  66.198  1.00  0.00    -0.298 A  
HETATM   27  C   UNL     1      -8.317  15.156  67.557  1.00  0.00    -0.188 A  
HETATM   28  C   UNL     1      -8.552  17.239  66.353  1.00  0.00    -0.259 A  
HETATM   29  C   UNL     1      -7.767  16.329  67.054  1.00  0.00    -0.250 A  
BRANCH  26  30
HETATM   30  O   UNL     1     -10.648  17.917  65.487  1.00  0.00    -0.638 OA 
HETATM   31  C   UNL     1     -10.762  19.223  66.043  1.00  0.00    -0.386 C  
ENDBRANCH  26  30
BRANCH  28  32
HETATM   32  O   UNL     1      -8.057  18.374  65.758  1.00  0.00    -0.502 OA 
HETATM   33  C   UNL     1      -6.647  18.555  65.803  1.00  0.00    -0.277 C  
ENDBRANCH  28  32
ENDBRANCH  18  24
ENDBRANCH  17  18
ENDBRANCH  16  17
ENDBRANCH  15  16
ENDBRANCH  13  15
ENDBRANCH  12  13
ENDBRANCH  11  12
ENDBRANCH   7  11
ENDBRANCH   2   3
TORSDOF 12
ENDMDL
MODEL      232
REMARK 921   NORMALIZED FREE ENERGY PREDICTED BY IDOCK:   -3.69 KCAL/MOL
REMARK 922        TOTAL FREE ENERGY PREDICTED BY IDOCK:   -8.50 KCAL/MOL
REMARK 923 INTER-LIGAND FREE ENERGY PREDICTED BY IDOCK:   -7.02 KCAL/MOL
REMARK 924 INTRA-LIGAND FREE ENERGY PREDICTED BY IDOCK:   -1.48 KCAL/MOL
REMARK 927      BINDING AFFINITY PREDICTED BY RF-SCORE:    0.00 PKD
ROOT
HETATM    1  C   UNL     1      -6.080  14.603  70.567  1.00  0.00    -0.169 C  
HETATM    2  O   UNL     1      -6.667  15.609  69.747  1.00  0.00    -0.179 OA 
ENDROOT
BRANCH   2   3
HETATM    3  C   UNL     1      -7.590  15.179  68.824  1.00  0.00    -0.136 A  
HETATM    4  C   UNL     1      -8.708  15.886  68.353  1.00  0.00    -0.183 A  
HETATM    5  C   UNL     1      -8.256  13.251  67.495  1.00  0.00    -0.184 A  
HETATM    6  C   UNL     1      -9.581  15.261  67.445  1.00  0.00    -0.207 A  
HETATM    7  C   UNL     1      -9.366  13.948  67.003  1.00  0.00    -0.255 A  
HETATM    8  C   UNL     1      -7.383  13.861  68.401  1.00  0.00    -0.115 A  
BRANCH   4   9
HETATM    9  O   UNL     1      -8.925  17.144  68.850  1.00  0.00    -0.261 OA 
HETATM   10  C   UNL     1     -10.153  17.780  68.526  1.00  0.00    -0.377 C  
ENDBRANCH   4   9
BRANCH   7  11
HETATM   11  C   UNL     1     -10.430  13.256  66.151  1.00  0.00    -0.296 C  
BRANCH  11  12
HETATM   12  C   UNL     1     -11.371  12.520  67.114  1.00  0.00    -0.324 C  
BRANCH  12  13
HETATM   13  N   UNL     1     -10.988  11.302  67.835  1.00  0.00    -0.228 NA 
HETATM   14  C   UNL     1     -11.781  11.088  69.044  1.00  0.00    -0.333 C  
BRANCH  13  15
HETATM   15  C   UNL     1     -11.032  10.100  66.960  1.00  0.00    -0.092 C  
BRANCH  15  16
HETATM   16  C   UNL     1      -9.761   9.642  66.177  1.00  0.00    -0.317 C  
BRANCH  16  17
HETATM   17  C   UNL     1      -8.540   9.296  67.059  1.00  0.00    -0.128 C  
BRANCH  17  18
HETATM   18  C   UNL     1      -8.366   7.848  67.596  1.00  0.00    -0.124 C  
HETATM   19  N   UNL     1      -8.536   6.258  65.462  1.00  0.00    -0.144 NA 
HETATM   20  C   UNL     1      -6.894   7.627  68.192  1.00  0.00    -0.064 C  
HETATM   21  C   UNL     1      -8.466   6.938  66.401  1.00  0.00    -0.130 C  
HETATM   22  C   UNL     1      -6.516   8.480  69.414  1.00  0.00    -0.037 C  
HETATM   23  C   UNL     1      -5.775   7.858  67.153  1.00  0.00    -0.037 C  
BRANCH  18  24
HETATM   24  C   UNL     1      -9.484   7.594  68.614  1.00  0.00    -0.151 A  
HETATM   25  C   UNL     1      -9.513   8.249  69.857  1.00  0.00    -0.167 A  
HETATM   26  C   UNL     1     -10.413   7.887  70.864  1.00  0.00    -0.203 A  
HETATM   27  C   UNL     1     -10.435   6.582  68.392  1.00  0.00    -0.258 A  
HETATM   28  C   UNL     1     -11.341   6.861  70.616  1.00  0.00    -0.320 A  
HETATM   29  C   UNL     1     -11.359   6.238  69.372  1.00  0.00    -0.448 A  
BRANCH  26  30
HETATM   30  O   UNL     1     -10.433   8.456  72.111  1.00  0.00    -0.273 OA 
HETATM   31  C   UNL     1      -9.373   8.118  72.999  1.00  0.00    -0.265 C  
ENDBRANCH  26  30
BRANCH  28  32
HETATM   32  O   UNL     1     -12.168   6.512  71.656  1.00  0.00    -0.343 OA 
HETATM   33  C   UNL     1     -13.504   6.998  71.600  1.00  0.00    -0.268 C  
ENDBRANCH  28  32
ENDBRANCH  18  24
ENDBRANCH  17  18
ENDBRANCH  16  17
ENDBRANCH  15  16
ENDBRANCH  13  15
ENDBRANCH  12  13
ENDBRANCH  11  12
ENDBRANCH   7  11
ENDBRANCH   2   3
TORSDOF 12
ENDMDL
MODEL      233
REMARK 921   NORMALIZED FREE ENERGY PREDICTED BY IDOCK:   -3.69 KCAL/MOL
REMARK 922        TOTAL FREE ENERGY PREDICTED BY IDOCK:   -8.50 KCAL/MOL
REMARK 923 INTER-LIGAND FREE ENERGY PREDICTED BY IDOCK:   -6.71 KCAL/MOL
REMARK 924 INTRA-LIGAND FREE ENERGY PREDICTED BY IDOCK:   -1.79 KCAL/MOL
REMARK 927      BINDING AFFINITY PREDICTED BY RF-SCORE:    0.00 PKD
ROOT
HETATM    1  C   UNL     1     -11.895  15.796  69.143  1.00  0.00    -0.354 C  
HETATM    2  O   UNL     1     -10.809  14.891  69.313  1.00  0.00    -0.248 OA 
ENDROOT
BRANCH   2   3
HETATM    3  C   UNL     1     -10.585  14.009  68.283  1.00  0.00    -0.249 A  
HETATM    4  C   UNL     1      -9.380  13.803  67.593  1.00  0.00    -0.213 A  
HETATM    5  C   UNL     1     -11.696  12.422  66.808  1.00  0.00    -0.430 A  
HETATM    6  C   UNL     1      -9.352  12.894  66.520  1.00  0.00    -0.224 A  
HETATM    7  C   UNL     1     -10.498  12.192  66.120  1.00  0.00    -0.281 A  
HETATM    8  C   UNL     1     -11.737  13.327  67.874  1.00  0.00    -0.395 A  
BRANCH   4   9
HETATM    9  O   UNL     1      -8.293  14.546  67.967  1.00  0.00    -0.138 OA 
HETATM   10  C   UNL     1      -7.892  15.609  67.114  1.00  0.00    -0.217 C  
ENDBRANCH   4   9
BRANCH   7  11
HETATM   11  C   UNL     1     -10.458  11.346  64.848  1.00  0.00    -0.363 C  
BRANCH  11  12
HETATM   12  C   UNL     1      -9.999   9.940  65.255  1.00  0.00    -0.249 C  
BRANCH  12  13
HETATM   13  N   UNL     1      -8.693   9.384  64.885  1.00  0.00    -0.179 NA 
HETATM   14  C   UNL     1      -7.942  10.256  63.984  1.00  0.00    -0.126 C  
BRANCH  13  15
HETATM   15  C   UNL     1      -7.877   9.040  66.080  1.00  0.00    -0.102 C  
BRANCH  15  16
HETATM   16  C   UNL     1      -8.560   8.791  67.462  1.00  0.00    -0.127 C  
BRANCH  16  17
HETATM   17  C   UNL     1      -8.026   7.570  68.244  1.00  0.00    -0.123 C  
BRANCH  17  18
HETATM   18  C   UNL     1      -8.952   6.344  68.479  1.00  0.00    -0.125 C  
HETATM   19  N   UNL     1     -11.122   6.779  66.991  1.00  0.00    -0.390 NA 
HETATM   20  C   UNL     1      -8.289   5.001  67.906  1.00  0.00    -0.100 C  
HETATM   21  C   UNL     1     -10.185   6.580  67.649  1.00  0.00    -0.170 C  
HETATM   22  C   UNL     1      -6.974   4.553  68.566  1.00  0.00    -0.052 C  
HETATM   23  C   UNL     1      -8.002   5.063  66.390  1.00  0.00    -0.107 C  
BRANCH  18  24
HETATM   24  C   UNL     1      -9.266   6.281  69.979  1.00  0.00    -0.157 A  
HETATM   25  C   UNL     1      -8.480   6.959  70.926  1.00  0.00    -0.135 A  
HETATM   26  C   UNL     1      -8.638   6.756  72.301  1.00  0.00    -0.120 A  
HETATM   27  C   UNL     1     -10.265   5.418  70.463  1.00  0.00    -0.326 A  
HETATM   28  C   UNL     1      -9.636   5.875  72.752  1.00  0.00    -0.155 A  
HETATM   29  C   UNL     1     -10.456   5.236  71.828  1.00  0.00    -0.278 A  
BRANCH  26  30
HETATM   30  O   UNL     1      -7.852   7.348  73.256  1.00  0.00    -0.097 OA 
HETATM   31  C   UNL     1      -6.487   6.949  73.314  1.00  0.00    -0.063 C  
ENDBRANCH  26  30
BRANCH  28  32
HETATM   32  O   UNL     1      -9.715   5.675  74.109  1.00  0.00    -0.152 OA 
HETATM   33  C   UNL     1     -10.381   4.496  74.543  1.00  0.00    -0.261 C  
ENDBRANCH  28  32
ENDBRANCH  18  24
ENDBRANCH  17  18
ENDBRANCH  16  17
ENDBRANCH  15  16
ENDBRANCH  13  15
ENDBRANCH  12  13
ENDBRANCH  11  12
ENDBRANCH   7  11
ENDBRANCH   2   3
TORSDOF 12
ENDMDL
MODEL      234
REMARK 921   NORMALIZED FREE ENERGY PREDICTED BY IDOCK:   -3.64 KCAL/MOL
REMARK 922        TOTAL FREE ENERGY PREDICTED BY IDOCK:   -8.42 KCAL/MOL
REMARK 923 INTER-LIGAND FREE ENERGY PREDICTED BY IDOCK:   -6.78 KCAL/MOL
REMARK 924 INTRA-LIGAND FREE ENERGY PREDICTED BY IDOCK:   -1.63 KCAL/MOL
REMARK 927      BINDING AFFINITY PREDICTED BY RF-SCORE:    0.00 PKD
ROOT
HETATM    1  C   UNL     1     -10.321  18.924  67.029  1.00  0.00    -0.404 C  
HETATM    2  O   UNL     1     -10.487  17.877  66.079  1.00  0.00    -0.413 OA 
ENDROOT
BRANCH   2   3
HETATM    3  C   UNL     1     -10.081  16.625  66.475  1.00  0.00    -0.305 A  
HETATM    4  C   UNL     1     -10.384  15.402  65.856  1.00  0.00    -0.341 A  
HETATM    5  C   UNL     1      -8.902  15.433  68.241  1.00  0.00    -0.176 A  
HETATM    6  C   UNL     1      -9.927  14.207  66.439  1.00  0.00    -0.302 A  
HETATM    7  C   UNL     1      -9.181  14.206  67.626  1.00  0.00    -0.193 A  
HETATM    8  C   UNL     1      -9.355  16.628  67.672  1.00  0.00    -0.224 A  
BRANCH   4   9
HETATM    9  O   UNL     1     -11.165  15.431  64.731  1.00  0.00    -0.413 OA 
HETATM   10  C   UNL     1     -12.062  14.349  64.520  1.00  0.00    -0.481 C  
ENDBRANCH   4   9
BRANCH   7  11
HETATM   11  C   UNL     1      -8.853  12.879  68.309  1.00  0.00    -0.168 C  
BRANCH  11  12
HETATM   12  C   UNL     1      -7.355  12.901  68.643  1.00  0.00    -0.099 C  
BRANCH  12  13
HETATM   13  N   UNL     1      -6.565  11.685  68.865  1.00  0.00    -0.072 NA 
HETATM   14  C   UNL     1      -5.431  11.905  69.761  1.00  0.00    -0.087 C  
BRANCH  13  15
HETATM   15  C   UNL     1      -7.404  10.557  69.349  1.00  0.00    -0.133 C  
BRANCH  15  16
HETATM   16  C   UNL     1      -7.462   9.214  68.555  1.00  0.00    -0.081 C  
BRANCH  16  17
HETATM   17  C   UNL     1      -7.857   9.353  67.067  1.00  0.00    -0.098 C  
BRANCH  17  18
HETATM   18  C   UNL     1      -9.256   8.867  66.595  1.00  0.00    -0.215 C  
HETATM   19  N   UNL     1     -11.010   9.964  68.278  1.00  0.00    -0.227 NA 
HETATM   20  C   UNL     1      -9.612   9.453  65.146  1.00  0.00    -0.195 C  
HETATM   21  C   UNL     1     -10.257   9.475  67.541  1.00  0.00    -0.228 C  
HETATM   22  C   UNL     1      -8.701   9.012  63.988  1.00  0.00    -0.115 C  
HETATM   23  C   UNL     1      -9.635  10.997  65.102  1.00  0.00    -0.281 C  
BRANCH  18  24
HETATM   24  C   UNL     1      -9.259   7.335  66.654  1.00  0.00    -0.193 A  
HETATM   25  C   UNL     1      -8.244   6.572  66.051  1.00  0.00    -0.127 A  
HETATM   26  C   UNL     1      -8.334   5.181  65.933  1.00  0.00    -0.118 A  
HETATM   27  C   UNL     1     -10.361   6.643  67.186  1.00  0.00    -0.319 A  
HETATM   28  C   UNL     1      -9.457   4.521  66.462  1.00  0.00    -0.173 A  
HETATM   29  C   UNL     1     -10.445   5.257  67.106  1.00  0.00    -0.261 A  
BRANCH  26  30
HETATM   30  O   UNL     1      -7.398   4.406  65.298  1.00  0.00    -0.070 OA 
HETATM   31  C   UNL     1      -6.815   4.932  64.111  1.00  0.00    -0.048 C  
ENDBRANCH  26  30
BRANCH  28  32
HETATM   32  O   UNL     1      -9.518   3.161  66.273  1.00  0.00    -0.137 OA 
HETATM   33  C   UNL     1      -9.353   2.349  67.430  1.00  0.00    -0.088 C  
ENDBRANCH  28  32
ENDBRANCH  18  24
ENDBRANCH  17  18
ENDBRANCH  16  17
ENDBRANCH  15  16
ENDBRANCH  13  15
ENDBRANCH  12  13
ENDBRANCH  11  12
ENDBRANCH   7  11
ENDBRANCH   2   3
TORSDOF 12
ENDMDL
MODEL      235
REMARK 921   NORMALIZED FREE ENERGY PREDICTED BY IDOCK:   -3.63 KCAL/MOL
REMARK 922        TOTAL FREE ENERGY PREDICTED BY IDOCK:   -8.40 KCAL/MOL
REMARK 923 INTER-LIGAND FREE ENERGY PREDICTED BY IDOCK:   -6.67 KCAL/MOL
REMARK 924 INTRA-LIGAND FREE ENERGY PREDICTED BY IDOCK:   -1.73 KCAL/MOL
REMARK 927      BINDING AFFINITY PREDICTED BY RF-SCORE:    0.00 PKD
ROOT
HETATM    1  C   UNL     1     -12.524  12.557  63.449  1.00  0.00    -0.408 C  
HETATM    2  O   UNL     1     -11.290  13.050  63.962  1.00  0.00    -0.374 OA 
ENDROOT
BRANCH   2   3
HETATM    3  C   UNL     1     -10.480  12.130  64.584  1.00  0.00    -0.299 A  
HETATM    4  C   UNL     1      -9.819  12.281  65.814  1.00  0.00    -0.244 A  
HETATM    5  C   UNL     1      -9.435   9.950  64.295  1.00  0.00    -0.280 A  
HETATM    6  C   UNL     1      -8.979  11.250  66.271  1.00  0.00    -0.204 A  
HETATM    7  C   UNL     1      -8.782  10.078  65.527  1.00  0.00    -0.171 A  
HETATM    8  C   UNL     1     -10.270  10.971  63.829  1.00  0.00    -0.425 A  
BRANCH   4   9
HETATM    9  O   UNL     1      -9.983  13.462  66.488  1.00  0.00    -0.270 OA 
HETATM   10  C   UNL     1     -10.917  13.487  67.559  1.00  0.00    -0.268 C  
ENDBRANCH   4   9
BRANCH   7  11
HETATM   11  C   UNL     1      -7.733   9.064  65.983  1.00  0.00    -0.095 C  
BRANCH  11  12
HETATM   12  C   UNL     1      -6.786   8.830  64.799  1.00  0.00    -0.069 C  
BRANCH  12  13
HETATM   13  N   UNL     1      -6.707   7.559  64.072  1.00  0.00    -0.052 NA 
HETATM   14  C   UNL     1      -5.659   7.554  63.053  1.00  0.00    -0.049 C  
BRANCH  13  15
HETATM   15  C   UNL     1      -6.548   6.401  64.993  1.00  0.00    -0.039 C  
BRANCH  15  16
HETATM   16  C   UNL     1      -7.790   5.572  65.447  1.00  0.00    -0.100 C  
BRANCH  16  17
HETATM   17  C   UNL     1      -8.003   5.498  66.976  1.00  0.00    -0.102 C  
BRANCH  17  18
HETATM   18  C   UNL     1      -9.336   4.931  67.539  1.00  0.00    -0.148 C  
HETATM   19  N   UNL     1     -11.002   4.798  65.461  1.00  0.00    -0.114 NA 
HETATM   20  C   UNL     1      -9.150   3.422  68.050  1.00  0.00    -0.208 C  
HETATM   21  C   UNL     1     -10.289   4.856  66.376  1.00  0.00    -0.288 C  
HETATM   22  C   UNL     1      -8.180   3.214  69.225  1.00  0.00    -0.077 C  
HETATM   23  C   UNL     1      -8.685   2.456  66.940  1.00  0.00    -0.136 C  
BRANCH  18  24
HETATM   24  C   UNL     1      -9.825   5.892  68.629  1.00  0.00    -0.170 A  
HETATM   25  C   UNL     1      -9.131   7.074  68.936  1.00  0.00    -0.134 A  
HETATM   26  C   UNL     1      -9.456   7.857  70.049  1.00  0.00    -0.157 A  
HETATM   27  C   UNL     1     -10.905   5.540  69.458  1.00  0.00    -0.254 A  
HETATM   28  C   UNL     1     -10.531   7.469  70.866  1.00  0.00    -0.213 A  
HETATM   29  C   UNL     1     -11.261   6.329  70.546  1.00  0.00    -0.420 A  
BRANCH  26  30
HETATM   30  O   UNL     1      -8.765   8.982  70.420  1.00  0.00    -0.160 OA 
HETATM   31  C   UNL     1      -8.754  10.071  69.504  1.00  0.00    -0.192 C  
ENDBRANCH  26  30
BRANCH  28  32
HETATM   32  O   UNL     1     -10.776   8.246  71.973  1.00  0.00    -0.252 OA 
HETATM   33  C   UNL     1     -10.060   7.913  73.157  1.00  0.00    -0.294 C  
ENDBRANCH  28  32
ENDBRANCH  18  24
ENDBRANCH  17  18
ENDBRANCH  16  17
ENDBRANCH  15  16
ENDBRANCH  13  15
ENDBRANCH  12  13
ENDBRANCH  11  12
ENDBRANCH   7  11
ENDBRANCH   2   3
TORSDOF 12
ENDMDL
MODEL      236
REMARK 921   NORMALIZED FREE ENERGY PREDICTED BY IDOCK:   -3.62 KCAL/MOL
REMARK 922        TOTAL FREE ENERGY PREDICTED BY IDOCK:   -8.39 KCAL/MOL
REMARK 923 INTER-LIGAND FREE ENERGY PREDICTED BY IDOCK:   -6.52 KCAL/MOL
REMARK 924 INTRA-LIGAND FREE ENERGY PREDICTED BY IDOCK:   -1.87 KCAL/MOL
REMARK 927      BINDING AFFINITY PREDICTED BY RF-SCORE:    0.00 PKD
ROOT
HETATM    1  C   UNL     1     -13.927  15.051  71.350  1.00  0.00    -0.479 C  
HETATM    2  O   UNL     1     -12.919  14.123  71.739  1.00  0.00    -0.316 OA 
ENDROOT
BRANCH   2   3
HETATM    3  C   UNL     1     -12.505  13.234  70.776  1.00  0.00    -0.324 A  
HETATM    4  C   UNL     1     -12.408  11.839  70.899  1.00  0.00    -0.320 A  
HETATM    5  C   UNL     1     -11.582  13.096  68.527  1.00  0.00    -0.361 A  
HETATM    6  C   UNL     1     -11.906  11.090  69.819  1.00  0.00    -0.421 A  
HETATM    7  C   UNL     1     -11.495  11.703  68.627  1.00  0.00    -0.349 A  
HETATM    8  C   UNL     1     -12.077  13.852  69.595  1.00  0.00    -0.404 A  
BRANCH   4   9
HETATM    9  O   UNL     1     -12.759  11.276  72.097  1.00  0.00    -0.169 OA 
HETATM   10  C   UNL     1     -13.214   9.929  72.087  1.00  0.00    -0.415 C  
ENDBRANCH   4   9
BRANCH   7  11
HETATM   11  C   UNL     1     -10.802  10.868  67.551  1.00  0.00    -0.324 C  
BRANCH  11  12
HETATM   12  C   UNL     1     -10.755   9.421  68.061  1.00  0.00    -0.190 C  
BRANCH  12  13
HETATM   13  N   UNL     1      -9.527   8.620  68.092  1.00  0.00    -0.140 NA 
HETATM   14  C   UNL     1      -8.876   8.534  66.786  1.00  0.00    -0.139 C  
BRANCH  13  15
HETATM   15  C   UNL     1      -8.572   9.105  69.123  1.00  0.00    -0.133 C  
BRANCH  15  16
HETATM   16  C   UNL     1      -8.777   8.743  70.627  1.00  0.00    -0.208 C  
BRANCH  16  17
HETATM   17  C   UNL     1      -9.382   7.344  70.886  1.00  0.00    -0.155 C  
BRANCH  17  18
HETATM   18  C   UNL     1      -8.454   6.097  70.902  1.00  0.00    -0.128 C  
HETATM   19  N   UNL     1      -6.045   6.995  71.610  1.00  0.00    -0.037 NA 
HETATM   20  C   UNL     1      -8.894   5.067  72.049  1.00  0.00    -0.139 C  
HETATM   21  C   UNL     1      -7.088   6.591  71.294  1.00  0.00    -0.077 C  
HETATM   22  C   UNL     1     -10.289   4.438  71.905  1.00  0.00    -0.167 C  
HETATM   23  C   UNL     1      -8.849   5.678  73.466  1.00  0.00    -0.122 C  
BRANCH  18  24
HETATM   24  C   UNL     1      -8.470   5.490  69.494  1.00  0.00    -0.105 A  
HETATM   25  C   UNL     1      -7.283   5.134  68.831  1.00  0.00    -0.061 A  
HETATM   26  C   UNL     1      -7.271   4.761  67.483  1.00  0.00    -0.070 A  
HETATM   27  C   UNL     1      -9.669   5.410  68.764  1.00  0.00    -0.194 A  
HETATM   28  C   UNL     1      -8.485   4.707  66.778  1.00  0.00    -0.105 A  
HETATM   29  C   UNL     1      -9.674   5.006  67.434  1.00  0.00    -0.183 A  
BRANCH  26  30
HETATM   30  O   UNL     1      -6.130   4.468  66.781  1.00  0.00    -0.029 OA 
HETATM   31  C   UNL     1      -5.199   5.526  66.581  1.00  0.00    -0.005 C  
ENDBRANCH  26  30
BRANCH  28  32
HETATM   32  O   UNL     1      -8.410   4.383  65.444  1.00  0.00    -0.109 OA 
HETATM   33  C   UNL     1      -8.929   3.113  65.065  1.00  0.00    -0.139 C  
ENDBRANCH  28  32
ENDBRANCH  18  24
ENDBRANCH  17  18
ENDBRANCH  16  17
ENDBRANCH  15  16
ENDBRANCH  13  15
ENDBRANCH  12  13
ENDBRANCH  11  12
ENDBRANCH   7  11
ENDBRANCH   2   3
TORSDOF 12
ENDMDL
MODEL      237
REMARK 921   NORMALIZED FREE ENERGY PREDICTED BY IDOCK:   -3.58 KCAL/MOL
REMARK 922        TOTAL FREE ENERGY PREDICTED BY IDOCK:   -8.31 KCAL/MOL
REMARK 923 INTER-LIGAND FREE ENERGY PREDICTED BY IDOCK:   -7.35 KCAL/MOL
REMARK 924 INTRA-LIGAND FREE ENERGY PREDICTED BY IDOCK:   -0.97 KCAL/MOL
REMARK 927      BINDING AFFINITY PREDICTED BY RF-SCORE:    0.00 PKD
ROOT
HETATM    1  C   UNL     1     -11.505   5.540  72.914  1.00  0.00    -0.267 C  
HETATM    2  O   UNL     1     -10.084   5.456  72.940  1.00  0.00    -0.169 OA 
ENDROOT
BRANCH   2   3
HETATM    3  C   UNL     1      -9.407   6.323  72.116  1.00  0.00    -0.150 A  
HETATM    4  C   UNL     1      -9.084   6.126  70.763  1.00  0.00    -0.150 A  
HETATM    5  C   UNL     1      -8.208   8.442  72.089  1.00  0.00    -0.207 A  
HETATM    6  C   UNL     1      -8.332   7.105  70.090  1.00  0.00    -0.137 A  
HETATM    7  C   UNL     1      -7.892   8.270  70.736  1.00  0.00    -0.091 A  
HETATM    8  C   UNL     1      -8.953   7.474  72.771  1.00  0.00    -0.195 A  
BRANCH   4   9
HETATM    9  O   UNL     1      -9.475   4.952  70.176  1.00  0.00    -0.144 OA 
HETATM   10  C   UNL     1      -8.485   3.955  69.969  1.00  0.00    -0.063 C  
ENDBRANCH   4   9
BRANCH   7  11
HETATM   11  C   UNL     1      -6.939   9.219  70.012  1.00  0.00    -0.060 C  
BRANCH  11  12
HETATM   12  C   UNL     1      -7.693  10.537  69.794  1.00  0.00    -0.067 C  
BRANCH  12  13
HETATM   13  N   UNL     1      -7.053  11.752  69.279  1.00  0.00    -0.075 NA 
HETATM   14  C   UNL     1      -5.801  12.065  69.965  1.00  0.00    -0.152 C  
BRANCH  13  15
HETATM   15  C   UNL     1      -6.843  11.690  67.808  1.00  0.00    -0.079 C  
BRANCH  15  16
HETATM   16  C   UNL     1      -8.059  11.547  66.839  1.00  0.00    -0.164 C  
BRANCH  16  17
HETATM   17  C   UNL     1      -9.067  12.719  66.879  1.00  0.00    -0.221 C  
BRANCH  17  18
HETATM   18  C   UNL     1     -10.577  12.441  66.639  1.00  0.00    -0.256 C  
HETATM   19  N   UNL     1     -11.727  14.836  66.406  1.00  0.00    -0.313 NA 
HETATM   20  C   UNL     1     -10.811  11.703  65.234  1.00  0.00    -0.340 C  
HETATM   21  C   UNL     1     -11.240  13.786  66.511  1.00  0.00    -0.312 C  
HETATM   22  C   UNL     1     -10.190  10.304  65.086  1.00  0.00    -0.295 C  
HETATM   23  C   UNL     1     -10.307  12.520  64.025  1.00  0.00    -0.429 C  
BRANCH  18  24
HETATM   24  C   UNL     1     -11.099  11.648  67.842  1.00  0.00    -0.306 A  
HETATM   25  C   UNL     1     -11.813  12.269  68.882  1.00  0.00    -0.355 A  
HETATM   26  C   UNL     1     -12.126  11.599  70.068  1.00  0.00    -0.319 A  
HETATM   27  C   UNL     1     -10.748  10.297  68.014  1.00  0.00    -0.299 A  
HETATM   28  C   UNL     1     -11.747  10.254  70.215  1.00  0.00    -0.306 A  
HETATM   29  C   UNL     1     -11.085   9.610  69.175  1.00  0.00    -0.123 A  
BRANCH  26  30
HETATM   30  O   UNL     1     -12.765  12.185  71.131  1.00  0.00    -0.358 OA 
HETATM   31  C   UNL     1     -12.872  13.604  71.124  1.00  0.00    -0.323 C  
ENDBRANCH  26  30
BRANCH  28  32
HETATM   32  O   UNL     1     -12.036   9.659  71.420  1.00  0.00    -0.343 OA 
HETATM   33  C   UNL     1     -12.647   8.376  71.368  1.00  0.00    -0.277 C  
ENDBRANCH  28  32
ENDBRANCH  18  24
ENDBRANCH  17  18
ENDBRANCH  16  17
ENDBRANCH  15  16
ENDBRANCH  13  15
ENDBRANCH  12  13
ENDBRANCH  11  12
ENDBRANCH   7  11
ENDBRANCH   2   3
TORSDOF 12
ENDMDL
MODEL      238
REMARK 921   NORMALIZED FREE ENERGY PREDICTED BY IDOCK:   -3.57 KCAL/MOL
REMARK 922        TOTAL FREE ENERGY PREDICTED BY IDOCK:   -8.30 KCAL/MOL
REMARK 923 INTER-LIGAND FREE ENERGY PREDICTED BY IDOCK:   -7.31 KCAL/MOL
REMARK 924 INTRA-LIGAND FREE ENERGY PREDICTED BY IDOCK:   -0.99 KCAL/MOL
REMARK 927      BINDING AFFINITY PREDICTED BY RF-SCORE:    0.00 PKD
ROOT
HETATM    1  C   UNL     1     -14.408   7.686  71.536  1.00  0.00    -0.452 C  
HETATM    2  O   UNL     1     -13.537   8.757  71.887  1.00  0.00    -0.374 OA 
ENDROOT
BRANCH   2   3
HETATM    3  C   UNL     1     -12.202   8.567  71.622  1.00  0.00    -0.322 A  
HETATM    4  C   UNL     1     -11.287   9.527  71.160  1.00  0.00    -0.370 A  
HETATM    5  C   UNL     1     -10.467   6.862  71.504  1.00  0.00    -0.231 A  
HETATM    6  C   UNL     1      -9.964   9.135  70.887  1.00  0.00    -0.357 A  
HETATM    7  C   UNL     1      -9.538   7.810  71.059  1.00  0.00    -0.170 A  
HETATM    8  C   UNL     1     -11.787   7.239  71.775  1.00  0.00    -0.330 A  
BRANCH   4   9
HETATM    9  O   UNL     1     -11.747  10.798  70.944  1.00  0.00    -0.320 OA 
HETATM   10  C   UNL     1     -12.871  11.232  71.698  1.00  0.00    -0.405 C  
ENDBRANCH   4   9
BRANCH   7  11
HETATM   11  C   UNL     1      -8.142   7.401  70.591  1.00  0.00    -0.110 C  
BRANCH  11  12
HETATM   12  C   UNL     1      -7.134   8.229  71.397  1.00  0.00    -0.067 C  
BRANCH  12  13
HETATM   13  N   UNL     1      -6.115   9.081  70.774  1.00  0.00    -0.039 NA 
HETATM   14  C   UNL     1      -5.145   9.598  71.737  1.00  0.00    -0.073 C  
BRANCH  13  15
HETATM   15  C   UNL     1      -5.423   8.392  69.652  1.00  0.00    -0.030 C  
BRANCH  15  16
HETATM   16  C   UNL     1      -5.629   8.870  68.180  1.00  0.00    -0.038 C  
BRANCH  16  17
HETATM   17  C   UNL     1      -7.101   9.094  67.766  1.00  0.00    -0.079 C  
BRANCH  17  18
HETATM   18  C   UNL     1      -7.425   9.984  66.533  1.00  0.00    -0.105 C  
HETATM   19  N   UNL     1      -5.332  11.610  66.243  1.00  0.00    -0.309 NA 
HETATM   20  C   UNL     1      -7.489   9.107  65.191  1.00  0.00    -0.097 C  
HETATM   21  C   UNL     1      -6.253  10.911  66.361  1.00  0.00    -0.130 C  
HETATM   22  C   UNL     1      -8.592   8.038  65.126  1.00  0.00    -0.077 C  
HETATM   23  C   UNL     1      -6.168   8.372  64.880  1.00  0.00    -0.056 C  
BRANCH  18  24
HETATM   24  C   UNL     1      -8.724  10.739  66.835  1.00  0.00    -0.141 A  
HETATM   25  C   UNL     1      -9.636  11.074  65.819  1.00  0.00    -0.260 A  
HETATM   26  C   UNL     1     -10.722  11.924  66.050  1.00  0.00    -0.285 A  
HETATM   27  C   UNL     1      -8.970  11.251  68.121  1.00  0.00    -0.166 A  
HETATM   28  C   UNL     1     -10.931  12.431  67.344  1.00  0.00    -0.254 A  
HETATM   29  C   UNL     1     -10.067  12.068  68.371  1.00  0.00    -0.211 A  
BRANCH  26  30
HETATM   30  O   UNL     1     -11.598  12.327  65.074  1.00  0.00    -0.332 OA 
HETATM   31  C   UNL     1     -11.050  12.652  63.802  1.00  0.00    -0.453 C  
ENDBRANCH  26  30
BRANCH  28  32
HETATM   32  O   UNL     1     -11.984  13.300  67.503  1.00  0.00    -0.356 OA 
HETATM   33  C   UNL     1     -12.150  13.871  68.796  1.00  0.00    -0.309 C  
ENDBRANCH  28  32
ENDBRANCH  18  24
ENDBRANCH  17  18
ENDBRANCH  16  17
ENDBRANCH  15  16
ENDBRANCH  13  15
ENDBRANCH  12  13
ENDBRANCH  11  12
ENDBRANCH   7  11
ENDBRANCH   2   3
TORSDOF 12
ENDMDL
MODEL      239
REMARK 921   NORMALIZED FREE ENERGY PREDICTED BY IDOCK:   -3.57 KCAL/MOL
REMARK 922        TOTAL FREE ENERGY PREDICTED BY IDOCK:   -8.29 KCAL/MOL
REMARK 923 INTER-LIGAND FREE ENERGY PREDICTED BY IDOCK:   -7.68 KCAL/MOL
REMARK 924 INTRA-LIGAND FREE ENERGY PREDICTED BY IDOCK:   -0.61 KCAL/MOL
REMARK 927      BINDING AFFINITY PREDICTED BY RF-SCORE:    0.00 PKD
ROOT
HETATM    1  C   UNL     1      -7.798  18.852  68.327  1.00  0.00    -0.308 C  
HETATM    2  O   UNL     1      -8.098  17.869  67.341  1.00  0.00    -0.208 OA 
ENDROOT
BRANCH   2   3
HETATM    3  C   UNL     1      -8.893  16.824  67.746  1.00  0.00    -0.208 A  
HETATM    4  C   UNL     1      -8.585  15.455  67.689  1.00  0.00    -0.167 A  
HETATM    5  C   UNL     1     -11.113  16.284  68.589  1.00  0.00    -0.356 A  
HETATM    6  C   UNL     1      -9.551  14.518  68.097  1.00  0.00    -0.212 A  
HETATM    7  C   UNL     1     -10.815  14.916  68.555  1.00  0.00    -0.249 A  
HETATM    8  C   UNL     1     -10.161  17.225  68.182  1.00  0.00    -0.343 A  
BRANCH   4   9
HETATM    9  O   UNL     1      -7.365  15.095  67.181  1.00  0.00    -0.199 OA 
HETATM   10  C   UNL     1      -6.711  13.976  67.763  1.00  0.00    -0.177 C  
ENDBRANCH   4   9
BRANCH   7  11
HETATM   11  C   UNL     1     -11.885  13.859  68.826  1.00  0.00    -0.396 C  
BRANCH  11  12
HETATM   12  C   UNL     1     -11.971  12.972  67.578  1.00  0.00    -0.306 C  
BRANCH  12  13
HETATM   13  N   UNL     1     -11.837  11.512  67.620  1.00  0.00    -0.629 NA 
HETATM   14  C   UNL     1     -10.731  11.023  66.798  1.00  0.00    -0.266 C  
BRANCH  13  15
HETATM   15  C   UNL     1     -11.719  11.004  69.013  1.00  0.00    -0.333 C  
BRANCH  15  16
HETATM   16  C   UNL     1     -10.331  10.579  69.587  1.00  0.00    -0.231 C  
BRANCH  16  17
HETATM   17  C   UNL     1     -10.372   9.407  70.594  1.00  0.00    -0.349 C  
BRANCH  17  18
HETATM   18  C   UNL     1      -9.621   8.086  70.265  1.00  0.00    -0.171 C  
HETATM   19  N   UNL     1     -10.628   7.239  67.945  1.00  0.00    -0.213 NA 
HETATM   20  C   UNL     1      -8.064   8.359  69.994  1.00  0.00    -0.115 C  
HETATM   21  C   UNL     1     -10.184   7.593  68.959  1.00  0.00    -0.206 C  
HETATM   22  C   UNL     1      -7.253   8.915  71.176  1.00  0.00    -0.111 C  
HETATM   23  C   UNL     1      -7.811   9.325  68.816  1.00  0.00    -0.088 C  
BRANCH  18  24
HETATM   24  C   UNL     1      -9.881   7.106  71.415  1.00  0.00    -0.178 A  
HETATM   25  C   UNL     1      -8.827   6.503  72.123  1.00  0.00    -0.135 A  
HETATM   26  C   UNL     1      -9.046   5.470  73.040  1.00  0.00    -0.125 A  
HETATM   27  C   UNL     1     -11.187   6.667  71.698  1.00  0.00    -0.306 A  
HETATM   28  C   UNL     1     -10.362   5.044  73.288  1.00  0.00    -0.191 A  
HETATM   29  C   UNL     1     -11.420   5.666  72.634  1.00  0.00    -0.339 A  
BRANCH  26  30
HETATM   30  O   UNL     1      -8.043   4.812  73.703  1.00  0.00    -0.104 OA 
HETATM   31  C   UNL     1      -6.838   5.532  73.942  1.00  0.00    -0.081 C  
ENDBRANCH  26  30
BRANCH  28  32
HETATM   32  O   UNL     1     -10.516   3.993  74.160  1.00  0.00    -0.177 OA 
HETATM   33  C   UNL     1     -11.269   2.880  73.692  1.00  0.00    -0.206 C  
ENDBRANCH  28  32
ENDBRANCH  18  24
ENDBRANCH  17  18
ENDBRANCH  16  17
ENDBRANCH  15  16
ENDBRANCH  13  15
ENDBRANCH  12  13
ENDBRANCH  11  12
ENDBRANCH   7  11
ENDBRANCH   2   3
TORSDOF 12
ENDMDL
MODEL      240
REMARK 921   NORMALIZED FREE ENERGY PREDICTED BY IDOCK:   -3.56 KCAL/MOL
REMARK 922        TOTAL FREE ENERGY PREDICTED BY IDOCK:   -8.28 KCAL/MOL
REMARK 923 INTER-LIGAND FREE ENERGY PREDICTED BY IDOCK:   -7.25 KCAL/MOL
REMARK 924 INTRA-LIGAND FREE ENERGY PREDICTED BY IDOCK:   -1.02 KCAL/MOL
REMARK 927      BINDING AFFINITY PREDICTED BY RF-SCORE:    0.00 PKD
ROOT
HETATM    1  C   UNL     1      -7.816   3.178  63.126  1.00  0.00    -0.068 C  
HETATM    2  O   UNL     1      -8.519   3.101  64.361  1.00  0.00    -0.092 OA 
ENDROOT
BRANCH   2   3
HETATM    3  C   UNL     1      -8.649   4.277  65.062  1.00  0.00    -0.124 A  
HETATM    4  C   UNL     1      -9.192   4.440  66.346  1.00  0.00    -0.142 A  
HETATM    5  C   UNL     1      -8.357   6.688  64.883  1.00  0.00    -0.037 A  
HETATM    6  C   UNL     1      -9.297   5.735  66.885  1.00  0.00    -0.132 A  
HETATM    7  C   UNL     1      -8.880   6.866  66.170  1.00  0.00    -0.163 A  
HETATM    8  C   UNL     1      -8.250   5.405  64.335  1.00  0.00    -0.133 A  
BRANCH   4   9
HETATM    9  O   UNL     1      -9.647   3.324  66.996  1.00  0.00    -0.173 OA 
HETATM   10  C   UNL     1      -9.259   3.142  68.350  1.00  0.00    -0.178 C  
ENDBRANCH   4   9
BRANCH   7  11
HETATM   11  C   UNL     1      -9.170   8.260  66.727  1.00  0.00    -0.212 C  
BRANCH  11  12
HETATM   12  C   UNL     1      -8.063   9.190  66.214  1.00  0.00    -0.111 C  
BRANCH  12  13
HETATM   13  N   UNL     1      -8.332  10.492  65.595  1.00  0.00    -0.163 NA 
HETATM   14  C   UNL     1      -9.561  10.498  64.805  1.00  0.00    -0.285 C  
BRANCH  13  15
HETATM   15  C   UNL     1      -8.347  11.592  66.596  1.00  0.00    -0.167 C  
BRANCH  15  16
HETATM   16  C   UNL     1      -9.350  12.779  66.454  1.00  0.00    -0.196 C  
BRANCH  16  17
HETATM   17  C   UNL     1      -9.127  13.945  67.445  1.00  0.00    -0.217 C  
BRANCH  17  18
HETATM   18  C   UNL     1     -10.022  15.212  67.353  1.00  0.00    -0.226 C  
HETATM   19  N   UNL     1     -10.524  15.559  64.757  1.00  0.00    -0.385 NA 
HETATM   20  C   UNL     1     -11.447  14.964  68.047  1.00  0.00    -0.355 C  
HETATM   21  C   UNL     1     -10.308  15.423  65.891  1.00  0.00    -0.341 C  
HETATM   22  C   UNL     1     -11.431  14.679  69.557  1.00  0.00    -0.334 C  
HETATM   23  C   UNL     1     -12.242  13.805  67.406  1.00  0.00    -0.290 C  
BRANCH  18  24
HETATM   24  C   UNL     1      -9.238  16.379  67.966  1.00  0.00    -0.204 A  
HETATM   25  C   UNL     1      -9.619  17.715  67.756  1.00  0.00    -0.267 A  
HETATM   26  C   UNL     1      -8.808  18.786  68.146  1.00  0.00    -0.306 A  
HETATM   27  C   UNL     1      -8.022  16.148  68.634  1.00  0.00    -0.201 A  
HETATM   28  C   UNL     1      -7.592  18.521  68.798  1.00  0.00    -0.284 A  
HETATM   29  C   UNL     1      -7.226  17.205  69.059  1.00  0.00    -0.229 A  
BRANCH  26  30
HETATM   30  O   UNL     1      -9.112  20.101  67.904  1.00  0.00    -0.318 OA 
HETATM   31  C   UNL     1     -10.074  20.372  66.891  1.00  0.00    -0.363 C  
ENDBRANCH  26  30
BRANCH  28  32
HETATM   32  O   UNL     1      -6.813  19.608  69.115  1.00  0.00    -0.324 OA 
HETATM   33  C   UNL     1      -5.631  19.349  69.863  1.00  0.00    -0.231 C  
ENDBRANCH  28  32
ENDBRANCH  18  24
ENDBRANCH  17  18
ENDBRANCH  16  17
ENDBRANCH  15  16
ENDBRANCH  13  15
ENDBRANCH  12  13
ENDBRANCH  11  12
ENDBRANCH   7  11
ENDBRANCH   2   3
TORSDOF 12
ENDMDL
MODEL      241
REMARK 921   NORMALIZED FREE ENERGY PREDICTED BY IDOCK:   -3.55 KCAL/MOL
REMARK 922        TOTAL FREE ENERGY PREDICTED BY IDOCK:   -8.25 KCAL/MOL
REMARK 923 INTER-LIGAND FREE ENERGY PREDICTED BY IDOCK:   -7.08 KCAL/MOL
REMARK 924 INTRA-LIGAND FREE ENERGY PREDICTED BY IDOCK:   -1.18 KCAL/MOL
REMARK 927      BINDING AFFINITY PREDICTED BY RF-SCORE:    0.00 PKD
ROOT
HETATM    1  C   UNL     1      -9.586   3.163  63.709  1.00  0.00    -0.130 C  
HETATM    2  O   UNL     1      -9.252   2.918  65.072  1.00  0.00    -0.143 OA 
ENDROOT
BRANCH   2   3
HETATM    3  C   UNL     1      -8.761   3.988  65.780  1.00  0.00    -0.119 A  
HETATM    4  C   UNL     1      -8.289   3.981  67.103  1.00  0.00    -0.099 A  
HETATM    5  C   UNL     1      -8.419   6.396  65.675  1.00  0.00    -0.147 A  
HETATM    6  C   UNL     1      -7.876   5.191  67.688  1.00  0.00    -0.095 A  
HETATM    7  C   UNL     1      -7.929   6.404  66.986  1.00  0.00    -0.109 A  
HETATM    8  C   UNL     1      -8.836   5.199  65.083  1.00  0.00    -0.146 A  
BRANCH   4   9
HETATM    9  O   UNL     1      -8.305   2.792  67.782  1.00  0.00    -0.077 OA 
HETATM   10  C   UNL     1      -9.214   2.663  68.867  1.00  0.00    -0.160 C  
ENDBRANCH   4   9
BRANCH   7  11
HETATM   11  C   UNL     1      -7.629   7.712  67.718  1.00  0.00    -0.117 C  
BRANCH  11  12
HETATM   12  C   UNL     1      -6.404   8.339  67.040  1.00  0.00    -0.056 C  
BRANCH  12  13
HETATM   13  N   UNL     1      -6.383   9.715  66.535  1.00  0.00    -0.065 NA 
HETATM   14  C   UNL     1      -7.004   9.843  65.218  1.00  0.00    -0.122 C  
BRANCH  13  15
HETATM   15  C   UNL     1      -6.994  10.671  67.497  1.00  0.00    -0.083 C  
BRANCH  15  16
HETATM   16  C   UNL     1      -8.289  11.456  67.119  1.00  0.00    -0.155 C  
BRANCH  16  17
HETATM   17  C   UNL     1      -9.155  11.904  68.319  1.00  0.00    -0.183 C  
BRANCH  17  18
HETATM   18  C   UNL     1     -10.594  11.340  68.480  1.00  0.00    -0.227 C  
HETATM   19  N   UNL     1     -12.132  13.438  69.068  1.00  0.00    -0.307 NA 
HETATM   20  C   UNL     1     -11.147  10.767  67.088  1.00  0.00    -0.297 C  
HETATM   21  C   UNL     1     -11.473  12.514  68.819  1.00  0.00    -0.310 C  
HETATM   22  C   UNL     1     -10.389   9.570  66.493  1.00  0.00    -0.263 C  
HETATM   23  C   UNL     1     -11.204  11.831  65.970  1.00  0.00    -0.352 C  
BRANCH  18  24
HETATM   24  C   UNL     1     -10.561  10.297  69.603  1.00  0.00    -0.288 A  
HETATM   25  C   UNL     1     -11.702   9.999  70.367  1.00  0.00    -0.365 A  
HETATM   26  C   UNL     1     -11.638   9.196  71.511  1.00  0.00    -0.368 A  
HETATM   27  C   UNL     1      -9.344   9.715  70.000  1.00  0.00    -0.276 A  
HETATM   28  C   UNL     1     -10.404   8.642  71.889  1.00  0.00    -0.335 A  
HETATM   29  C   UNL     1      -9.275   8.886  71.114  1.00  0.00    -0.324 A  
BRANCH  26  30
HETATM   30  O   UNL     1     -12.713   8.932  72.319  1.00  0.00    -0.376 OA 
HETATM   31  C   UNL     1     -13.977   8.759  71.687  1.00  0.00    -0.394 C  
ENDBRANCH  26  30
BRANCH  28  32
HETATM   32  O   UNL     1     -10.389   7.902  73.047  1.00  0.00    -0.314 OA 
HETATM   33  C   UNL     1      -9.150   7.834  73.745  1.00  0.00    -0.273 C  
ENDBRANCH  28  32
ENDBRANCH  18  24
ENDBRANCH  17  18
ENDBRANCH  16  17
ENDBRANCH  15  16
ENDBRANCH  13  15
ENDBRANCH  12  13
ENDBRANCH  11  12
ENDBRANCH   7  11
ENDBRANCH   2   3
TORSDOF 12
ENDMDL
MODEL      242
REMARK 921   NORMALIZED FREE ENERGY PREDICTED BY IDOCK:   -3.54 KCAL/MOL
REMARK 922        TOTAL FREE ENERGY PREDICTED BY IDOCK:   -8.24 KCAL/MOL
REMARK 923 INTER-LIGAND FREE ENERGY PREDICTED BY IDOCK:   -7.75 KCAL/MOL
REMARK 924 INTRA-LIGAND FREE ENERGY PREDICTED BY IDOCK:   -0.50 KCAL/MOL
REMARK 927      BINDING AFFINITY PREDICTED BY RF-SCORE:    0.00 PKD
ROOT
HETATM    1  C   UNL     1      -7.998  20.454  66.019  1.00  0.00    -0.007 C  
HETATM    2  O   UNL     1      -8.405  20.264  67.370  1.00  0.00    -0.331 OA 
ENDROOT
BRANCH   2   3
HETATM    3  C   UNL     1      -8.159  19.025  67.911  1.00  0.00    -0.278 A  
HETATM    4  C   UNL     1      -6.964  18.581  68.501  1.00  0.00    -0.269 A  
HETATM    5  C   UNL     1      -9.126  16.811  68.216  1.00  0.00    -0.228 A  
HETATM    6  C   UNL     1      -6.876  17.252  68.952  1.00  0.00    -0.226 A  
HETATM    7  C   UNL     1      -7.948  16.358  68.822  1.00  0.00    -0.233 A  
HETATM    8  C   UNL     1      -9.225  18.130  67.760  1.00  0.00    -0.265 A  
BRANCH   4   9
HETATM    9  O   UNL     1      -5.915  19.459  68.559  1.00  0.00    -0.211 OA 
HETATM   10  C   UNL     1      -5.372  19.758  69.838  1.00  0.00    -0.211 C  
ENDBRANCH   4   9
BRANCH   7  11
HETATM   11  C   UNL     1      -7.747  14.884  69.172  1.00  0.00    -0.164 C  
BRANCH  11  12
HETATM   12  C   UNL     1      -6.473  14.420  68.454  1.00  0.00    -0.102 C  
BRANCH  12  13
HETATM   13  N   UNL     1      -6.016  13.026  68.451  1.00  0.00    -0.071 NA 
HETATM   14  C   UNL     1      -6.151  12.384  69.757  1.00  0.00    -0.137 C  
BRANCH  13  15
HETATM   15  C   UNL     1      -6.693  12.221  67.399  1.00  0.00    -0.150 C  
BRANCH  15  16
HETATM   16  C   UNL     1      -8.231  11.961  67.467  1.00  0.00    -0.155 C  
BRANCH  16  17
HETATM   17  C   UNL     1      -8.634  10.502  67.777  1.00  0.00    -0.118 C  
BRANCH  17  18
HETATM   18  C   UNL     1      -9.864   9.876  67.063  1.00  0.00    -0.241 C  
HETATM   19  N   UNL     1     -11.703  11.804  66.965  1.00  0.00    -0.594 NA 
HETATM   20  C   UNL     1      -9.523   9.516  65.537  1.00  0.00    -0.334 C  
HETATM   21  C   UNL     1     -10.914  10.953  67.006  1.00  0.00    -0.247 C  
HETATM   22  C   UNL     1      -8.435   8.454  65.313  1.00  0.00    -0.189 C  
HETATM   23  C   UNL     1      -9.095  10.744  64.703  1.00  0.00    -0.223 C  
BRANCH  18  24
HETATM   24  C   UNL     1     -10.317   8.668  67.891  1.00  0.00    -0.286 A  
HETATM   25  C   UNL     1     -10.472   8.745  69.285  1.00  0.00    -0.228 A  
HETATM   26  C   UNL     1     -10.697   7.609  70.069  1.00  0.00    -0.241 A  
HETATM   27  C   UNL     1     -10.445   7.401  67.293  1.00  0.00    -0.385 A  
HETATM   28  C   UNL     1     -10.804   6.356  69.443  1.00  0.00    -0.321 A  
HETATM   29  C   UNL     1     -10.704   6.270  68.059  1.00  0.00    -0.369 A  
BRANCH  26  30
HETATM   30  O   UNL     1     -10.791   7.632  71.437  1.00  0.00    -0.224 OA 
HETATM   31  C   UNL     1     -11.950   8.237  72.000  1.00  0.00    -0.348 C  
ENDBRANCH  26  30
BRANCH  28  32
HETATM   32  O   UNL     1     -10.975   5.268  70.266  1.00  0.00    -0.166 OA 
HETATM   33  C   UNL     1      -9.909   4.327  70.308  1.00  0.00    -0.193 C  
ENDBRANCH  28  32
ENDBRANCH  18  24
ENDBRANCH  17  18
ENDBRANCH  16  17
ENDBRANCH  15  16
ENDBRANCH  13  15
ENDBRANCH  12  13
ENDBRANCH  11  12
ENDBRANCH   7  11
ENDBRANCH   2   3
TORSDOF 12
ENDMDL
MODEL      243
REMARK 921   NORMALIZED FREE ENERGY PREDICTED BY IDOCK:   -3.53 KCAL/MOL
REMARK 922        TOTAL FREE ENERGY PREDICTED BY IDOCK:   -8.23 KCAL/MOL
REMARK 923 INTER-LIGAND FREE ENERGY PREDICTED BY IDOCK:   -6.70 KCAL/MOL
REMARK 924 INTRA-LIGAND FREE ENERGY PREDICTED BY IDOCK:   -1.53 KCAL/MOL
REMARK 927      BINDING AFFINITY PREDICTED BY RF-SCORE:    0.00 PKD
ROOT
HETATM    1  C   UNL     1     -14.404  14.121  72.336  1.00  0.00    -0.310 C  
HETATM    2  O   UNL     1     -13.042  13.704  72.315  1.00  0.00    -0.388 OA 
ENDROOT
BRANCH   2   3
HETATM    3  C   UNL     1     -12.504  13.447  71.078  1.00  0.00    -0.353 A  
HETATM    4  C   UNL     1     -12.181  12.190  70.540  1.00  0.00    -0.304 A  
HETATM    5  C   UNL     1     -11.600  14.523  69.089  1.00  0.00    -0.331 A  
HETATM    6  C   UNL     1     -11.580  12.122  69.271  1.00  0.00    -0.377 A  
HETATM    7  C   UNL     1     -11.289  13.277  68.532  1.00  0.00    -0.319 A  
HETATM    8  C   UNL     1     -12.195  14.604  70.352  1.00  0.00    -0.391 A  
BRANCH   4   9
HETATM    9  O   UNL     1     -12.422  11.084  71.311  1.00  0.00    -0.370 OA 
HETATM   10  C   UNL     1     -11.785   9.869  70.942  1.00  0.00    -0.364 C  
ENDBRANCH   4   9
BRANCH   7  11
HETATM   11  C   UNL     1     -10.484  13.161  67.237  1.00  0.00    -0.243 C  
BRANCH  11  12
HETATM   12  C   UNL     1      -9.304  12.223  67.522  1.00  0.00    -0.183 C  
BRANCH  12  13
HETATM   13  N   UNL     1      -7.942  12.479  67.044  1.00  0.00    -0.131 NA 
HETATM   14  C   UNL     1      -7.401  13.746  67.533  1.00  0.00    -0.162 C  
BRANCH  13  15
HETATM   15  C   UNL     1      -7.019  11.358  67.365  1.00  0.00    -0.106 C  
BRANCH  15  16
HETATM   16  C   UNL     1      -7.484  10.188  68.288  1.00  0.00    -0.082 C  
BRANCH  16  17
HETATM   17  C   UNL     1      -7.015   8.782  67.848  1.00  0.00    -0.078 C  
BRANCH  17  18
HETATM   18  C   UNL     1      -8.064   7.659  67.617  1.00  0.00    -0.121 C  
HETATM   19  N   UNL     1     -10.327   8.907  66.958  1.00  0.00    -0.268 NA 
HETATM   20  C   UNL     1      -7.675   6.758  66.349  1.00  0.00    -0.098 C  
HETATM   21  C   UNL     1      -9.350   8.350  67.250  1.00  0.00    -0.146 C  
HETATM   22  C   UNL     1      -6.361   5.966  66.452  1.00  0.00    -0.038 C  
HETATM   23  C   UNL     1      -7.582   7.563  65.035  1.00  0.00    -0.098 C  
BRANCH  18  24
HETATM   24  C   UNL     1      -8.186   6.863  68.921  1.00  0.00    -0.121 A  
HETATM   25  C   UNL     1      -9.410   6.315  69.341  1.00  0.00    -0.145 A  
HETATM   26  C   UNL     1      -9.574   5.755  70.612  1.00  0.00    -0.174 A  
HETATM   27  C   UNL     1      -7.101   6.786  69.814  1.00  0.00    -0.068 A  
HETATM   28  C   UNL     1      -8.475   5.708  71.485  1.00  0.00    -0.128 A  
HETATM   29  C   UNL     1      -7.243   6.199  71.066  1.00  0.00    -0.075 A  
BRANCH  26  30
HETATM   30  O   UNL     1     -10.766   5.268  71.083  1.00  0.00    -0.206 OA 
HETATM   31  C   UNL     1     -11.505   6.100  71.970  1.00  0.00    -0.313 C  
ENDBRANCH  26  30
BRANCH  28  32
HETATM   32  O   UNL     1      -8.705   5.193  72.739  1.00  0.00    -0.119 OA 
HETATM   33  C   UNL     1      -7.886   4.101  73.141  1.00  0.00    -0.085 C  
ENDBRANCH  28  32
ENDBRANCH  18  24
ENDBRANCH  17  18
ENDBRANCH  16  17
ENDBRANCH  15  16
ENDBRANCH  13  15
ENDBRANCH  12  13
ENDBRANCH  11  12
ENDBRANCH   7  11
ENDBRANCH   2   3
TORSDOF 12
ENDMDL
MODEL      244
REMARK 921   NORMALIZED FREE ENERGY PREDICTED BY IDOCK:   -3.52 KCAL/MOL
REMARK 922        TOTAL FREE ENERGY PREDICTED BY IDOCK:   -8.21 KCAL/MOL
REMARK 923 INTER-LIGAND FREE ENERGY PREDICTED BY IDOCK:   -5.94 KCAL/MOL
REMARK 924 INTRA-LIGAND FREE ENERGY PREDICTED BY IDOCK:   -2.28 KCAL/MOL
REMARK 927      BINDING AFFINITY PREDICTED BY RF-SCORE:    0.00 PKD
ROOT
HETATM    1  C   UNL     1      -8.748   5.277  62.991  1.00  0.00    -0.015 C  
HETATM    2  O   UNL     1      -8.314   5.154  64.341  1.00  0.00    -0.128 OA 
ENDROOT
BRANCH   2   3
HETATM    3  C   UNL     1      -7.738   6.271  64.899  1.00  0.00    -0.099 A  
HETATM    4  C   UNL     1      -6.889   6.316  66.017  1.00  0.00    -0.057 A  
HETATM    5  C   UNL     1      -7.680   8.701  64.763  1.00  0.00    -0.108 A  
HETATM    6  C   UNL     1      -6.438   7.563  66.484  1.00  0.00    -0.049 A  
HETATM    7  C   UNL     1      -6.820   8.762  65.865  1.00  0.00    -0.068 A  
HETATM    8  C   UNL     1      -8.139   7.467  64.291  1.00  0.00    -0.055 A  
BRANCH   4   9
HETATM    9  O   UNL     1      -6.583   5.133  66.636  1.00  0.00    -0.046 OA 
HETATM   10  C   UNL     1      -6.036   5.195  67.945  1.00  0.00    -0.022 C  
ENDBRANCH   4   9
BRANCH   7  11
HETATM   11  C   UNL     1      -6.442  10.096  66.510  1.00  0.00    -0.076 C  
BRANCH  11  12
HETATM   12  C   UNL     1      -5.617   9.774  67.763  1.00  0.00    -0.039 C  
BRANCH  12  13
HETATM   13  N   UNL     1      -6.057  10.111  69.121  1.00  0.00    -0.040 NA 
HETATM   14  C   UNL     1      -7.040  11.192  69.145  1.00  0.00    -0.116 C  
BRANCH  13  15
HETATM   15  C   UNL     1      -6.569   8.920  69.850  1.00  0.00    -0.042 C  
BRANCH  15  16
HETATM   16  C   UNL     1      -8.100   8.744  70.105  1.00  0.00    -0.114 C  
BRANCH  16  17
HETATM   17  C   UNL     1      -8.785   7.661  69.242  1.00  0.00    -0.136 C  
BRANCH  17  18
HETATM   18  C   UNL     1     -10.290   7.807  68.878  1.00  0.00    -0.224 C  
HETATM   19  N   UNL     1     -10.662   6.298  66.712  1.00  0.00    -0.302 NA 
HETATM   20  C   UNL     1     -11.222   7.175  70.020  1.00  0.00    -0.271 C  
HETATM   21  C   UNL     1     -10.513   6.964  67.652  1.00  0.00    -0.228 C  
HETATM   22  C   UNL     1     -11.151   7.837  71.405  1.00  0.00    -0.268 C  
HETATM   23  C   UNL     1     -10.961   5.671  70.255  1.00  0.00    -0.287 C  
BRANCH  18  24
HETATM   24  C   UNL     1     -10.561   9.294  68.619  1.00  0.00    -0.219 A  
HETATM   25  C   UNL     1     -11.165  10.114  69.587  1.00  0.00    -0.310 A  
HETATM   26  C   UNL     1     -11.590  11.414  69.296  1.00  0.00    -0.317 A  
HETATM   27  C   UNL     1     -10.350   9.846  67.343  1.00  0.00    -0.301 A  
HETATM   28  C   UNL     1     -11.378  11.930  68.007  1.00  0.00    -0.288 A  
HETATM   29  C   UNL     1     -10.735  11.149  67.052  1.00  0.00    -0.316 A  
BRANCH  26  30
HETATM   30  O   UNL     1     -12.239  12.224  70.192  1.00  0.00    -0.292 OA 
HETATM   31  C   UNL     1     -12.906  11.591  71.278  1.00  0.00    -0.360 C  
ENDBRANCH  26  30
BRANCH  28  32
HETATM   32  O   UNL     1     -11.859  13.194  67.761  1.00  0.00    -0.344 OA 
HETATM   33  C   UNL     1     -12.238  13.483  66.420  1.00  0.00    -0.400 C  
ENDBRANCH  28  32
ENDBRANCH  18  24
ENDBRANCH  17  18
ENDBRANCH  16  17
ENDBRANCH  15  16
ENDBRANCH  13  15
ENDBRANCH  12  13
ENDBRANCH  11  12
ENDBRANCH   7  11
ENDBRANCH   2   3
TORSDOF 12
ENDMDL
MODEL      245
REMARK 921   NORMALIZED FREE ENERGY PREDICTED BY IDOCK:   -3.52 KCAL/MOL
REMARK 922        TOTAL FREE ENERGY PREDICTED BY IDOCK:   -8.21 KCAL/MOL
REMARK 923 INTER-LIGAND FREE ENERGY PREDICTED BY IDOCK:   -7.51 KCAL/MOL
REMARK 924 INTRA-LIGAND FREE ENERGY PREDICTED BY IDOCK:   -0.70 KCAL/MOL
REMARK 927      BINDING AFFINITY PREDICTED BY RF-SCORE:    0.00 PKD
ROOT
HETATM    1  C   UNL     1     -10.851   3.619  73.313  1.00  0.00    -0.193 C  
HETATM    2  O   UNL     1      -9.682   4.421  73.450  1.00  0.00    -0.123 OA 
ENDROOT
BRANCH   2   3
HETATM    3  C   UNL     1      -9.660   5.592  72.731  1.00  0.00    -0.152 A  
HETATM    4  C   UNL     1      -8.704   6.618  72.814  1.00  0.00    -0.122 A  
HETATM    5  C   UNL     1     -10.933   6.916  71.132  1.00  0.00    -0.284 A  
HETATM    6  C   UNL     1      -8.876   7.778  72.039  1.00  0.00    -0.169 A  
HETATM    7  C   UNL     1      -9.980   7.940  71.190  1.00  0.00    -0.198 A  
HETATM    8  C   UNL     1     -10.775   5.758  71.902  1.00  0.00    -0.297 A  
BRANCH   4   9
HETATM    9  O   UNL     1      -7.668   6.457  73.696  1.00  0.00    -0.093 OA 
HETATM   10  C   UNL     1      -6.473   7.186  73.453  1.00  0.00    -0.065 C  
ENDBRANCH   4   9
BRANCH   7  11
HETATM   11  C   UNL     1     -10.209   9.284  70.499  1.00  0.00    -0.309 C  
BRANCH  11  12
HETATM   12  C   UNL     1     -11.530   9.848  71.038  1.00  0.00    -0.388 C  
BRANCH  12  13
HETATM   13  N   UNL     1     -12.349  10.816  70.300  1.00  0.00    -0.329 NA 
HETATM   14  C   UNL     1     -12.448  12.107  70.980  1.00  0.00    -0.269 C  
BRANCH  13  15
HETATM   15  C   UNL     1     -11.874  10.996  68.902  1.00  0.00    -0.308 C  
BRANCH  15  16
HETATM   16  C   UNL     1     -11.501  12.414  68.367  1.00  0.00    -0.356 C  
BRANCH  16  17
HETATM   17  C   UNL     1     -11.845  12.663  66.881  1.00  0.00    -0.425 C  
BRANCH  17  18
HETATM   18  C   UNL     1     -10.704  12.950  65.866  1.00  0.00    -0.291 C  
HETATM   19  N   UNL     1     -10.987  11.141  63.927  1.00  0.00    -0.312 NA 
HETATM   20  C   UNL     1     -10.901  14.379  65.166  1.00  0.00    -0.397 C  
HETATM   21  C   UNL     1     -10.849  11.931  64.768  1.00  0.00    -0.307 C  
HETATM   22  C   UNL     1     -10.838  15.607  66.089  1.00  0.00    -0.264 C  
HETATM   23  C   UNL     1     -12.231  14.500  64.391  1.00  0.00    -0.480 C  
BRANCH  18  24
HETATM   24  C   UNL     1      -9.373  12.812  66.614  1.00  0.00    -0.242 A  
HETATM   25  C   UNL     1      -8.781  11.558  66.842  1.00  0.00    -0.181 A  
HETATM   26  C   UNL     1      -7.674  11.404  67.683  1.00  0.00    -0.121 A  
HETATM   27  C   UNL     1      -8.780  13.930  67.227  1.00  0.00    -0.225 A  
HETATM   28  C   UNL     1      -7.114  12.539  68.292  1.00  0.00    -0.104 A  
HETATM   29  C   UNL     1      -7.657  13.794  68.036  1.00  0.00    -0.145 A  
BRANCH  26  30
HETATM   30  O   UNL     1      -7.105  10.192  67.982  1.00  0.00    -0.082 OA 
HETATM   31  C   UNL     1      -6.140   9.683  67.069  1.00  0.00    -0.063 C  
ENDBRANCH  26  30
BRANCH  28  32
HETATM   32  O   UNL     1      -6.060  12.324  69.147  1.00  0.00    -0.070 OA 
HETATM   33  C   UNL     1      -5.867  13.286  70.177  1.00  0.00    -0.147 C  
ENDBRANCH  28  32
ENDBRANCH  18  24
ENDBRANCH  17  18
ENDBRANCH  16  17
ENDBRANCH  15  16
ENDBRANCH  13  15
ENDBRANCH  12  13
ENDBRANCH  11  12
ENDBRANCH   7  11
ENDBRANCH   2   3
TORSDOF 12
ENDMDL
MODEL      246
REMARK 921   NORMALIZED FREE ENERGY PREDICTED BY IDOCK:   -3.52 KCAL/MOL
REMARK 922        TOTAL FREE ENERGY PREDICTED BY IDOCK:   -8.21 KCAL/MOL
REMARK 923 INTER-LIGAND FREE ENERGY PREDICTED BY IDOCK:   -6.01 KCAL/MOL
REMARK 924 INTRA-LIGAND FREE ENERGY PREDICTED BY IDOCK:   -2.20 KCAL/MOL
REMARK 927      BINDING AFFINITY PREDICTED BY RF-SCORE:    0.00 PKD
ROOT
HETATM    1  C   UNL     1     -10.343   8.548  71.873  1.00  0.00    -0.308 C  
HETATM    2  O   UNL     1     -11.324   8.790  70.869  1.00  0.00    -0.262 OA 
ENDROOT
BRANCH   2   3
HETATM    3  C   UNL     1     -11.827  10.067  70.805  1.00  0.00    -0.346 A  
HETATM    4  C   UNL     1     -11.506  11.057  69.862  1.00  0.00    -0.320 A  
HETATM    5  C   UNL     1     -13.258  11.653  71.975  1.00  0.00    -0.443 A  
HETATM    6  C   UNL     1     -12.081  12.334  69.987  1.00  0.00    -0.346 A  
HETATM    7  C   UNL     1     -12.961  12.645  71.033  1.00  0.00    -0.156 A  
HETATM    8  C   UNL     1     -12.689  10.379  71.862  1.00  0.00    -0.459 A  
BRANCH   4   9
HETATM    9  O   UNL     1     -10.597  10.741  68.887  1.00  0.00    -0.191 OA 
HETATM   10  C   UNL     1     -11.089  10.502  67.576  1.00  0.00    -0.290 C  
ENDBRANCH   4   9
BRANCH   7  11
HETATM   11  C   UNL     1     -13.425  14.089  71.222  1.00  0.00    -0.308 C  
BRANCH  11  12
HETATM   12  C   UNL     1     -12.847  14.906  70.060  1.00  0.00    -0.076 C  
BRANCH  12  13
HETATM   13  N   UNL     1     -12.196  16.208  70.239  1.00  0.00    -0.077 NA 
HETATM   14  C   UNL     1     -11.761  16.437  71.616  1.00  0.00    -0.307 C  
BRANCH  13  15
HETATM   15  C   UNL     1     -11.064  16.399  69.294  1.00  0.00    -0.297 C  
BRANCH  15  16
HETATM   16  C   UNL     1     -10.611  15.237  68.355  1.00  0.00    -0.246 C  
BRANCH  16  17
HETATM   17  C   UNL     1      -9.209  14.660  68.660  1.00  0.00    -0.194 C  
BRANCH  17  18
HETATM   18  C   UNL     1      -8.314  14.159  67.492  1.00  0.00    -0.194 C  
HETATM   19  N   UNL     1      -9.920  13.990  65.370  1.00  0.00    -0.298 NA 
HETATM   20  C   UNL     1      -7.199  15.247  67.113  1.00  0.00    -0.139 C  
HETATM   21  C   UNL     1      -9.210  14.053  66.288  1.00  0.00    -0.102 C  
HETATM   22  C   UNL     1      -6.166  15.575  68.204  1.00  0.00    -0.139 C  
HETATM   23  C   UNL     1      -7.795  16.602  66.673  1.00  0.00    -0.316 C  
BRANCH  18  24
HETATM   24  C   UNL     1      -7.732  12.802  67.904  1.00  0.00    -0.143 A  
HETATM   25  C   UNL     1      -7.391  11.826  66.952  1.00  0.00    -0.104 A  
HETATM   26  C   UNL     1      -7.042  10.523  67.320  1.00  0.00    -0.088 A  
HETATM   27  C   UNL     1      -7.661  12.438  69.260  1.00  0.00     0.415 A  
HETATM   28  C   UNL     1      -6.996  10.186  68.684  1.00  0.00    -0.062 A  
HETATM   29  C   UNL     1      -7.280  11.156  69.640  1.00  0.00    -0.016 A  
BRANCH  26  30
HETATM   30  O   UNL     1      -6.765   9.524  66.423  1.00  0.00    -0.073 OA 
HETATM   31  C   UNL     1      -5.399   9.157  66.258  1.00  0.00    -0.040 C  
ENDBRANCH  26  30
BRANCH  28  32
HETATM   32  O   UNL     1      -6.696   8.880  68.987  1.00  0.00    -0.050 OA 
HETATM   33  C   UNL     1      -6.115   8.638  70.263  1.00  0.00    -0.033 C  
ENDBRANCH  28  32
ENDBRANCH  18  24
ENDBRANCH  17  18
ENDBRANCH  16  17
ENDBRANCH  15  16
ENDBRANCH  13  15
ENDBRANCH  12  13
ENDBRANCH  11  12
ENDBRANCH   7  11
ENDBRANCH   2   3
TORSDOF 12
ENDMDL
MODEL      247
REMARK 921   NORMALIZED FREE ENERGY PREDICTED BY IDOCK:   -3.52 KCAL/MOL
REMARK 922        TOTAL FREE ENERGY PREDICTED BY IDOCK:   -8.21 KCAL/MOL
REMARK 923 INTER-LIGAND FREE ENERGY PREDICTED BY IDOCK:   -6.97 KCAL/MOL
REMARK 924 INTRA-LIGAND FREE ENERGY PREDICTED BY IDOCK:   -1.23 KCAL/MOL
REMARK 927      BINDING AFFINITY PREDICTED BY RF-SCORE:    0.00 PKD
ROOT
HETATM    1  C   UNL     1      -8.532   6.437  65.357  1.00  0.00    -0.123 C  
HETATM    2  O   UNL     1      -7.795   7.630  65.603  1.00  0.00    -0.096 OA 
ENDROOT
BRANCH   2   3
HETATM    3  C   UNL     1      -7.890   8.153  66.871  1.00  0.00    -0.096 A  
HETATM    4  C   UNL     1      -8.282   9.455  67.220  1.00  0.00    -0.117 A  
HETATM    5  C   UNL     1      -7.457   7.659  69.215  1.00  0.00    -0.094 A  
HETATM    6  C   UNL     1      -8.265   9.835  68.574  1.00  0.00    -0.106 A  
HETATM    7  C   UNL     1      -7.862   8.948  69.582  1.00  0.00    -0.090 A  
HETATM    8  C   UNL     1      -7.466   7.271  67.871  1.00  0.00    -0.102 A  
BRANCH   4   9
HETATM    9  O   UNL     1      -8.613  10.317  66.209  1.00  0.00    -0.133 OA 
HETATM   10  C   UNL     1      -9.992  10.569  65.978  1.00  0.00    -0.237 C  
ENDBRANCH   4   9
BRANCH   7  11
HETATM   11  C   UNL     1      -7.699   9.458  71.014  1.00  0.00    -0.031 C  
BRANCH  11  12
HETATM   12  C   UNL     1      -7.119   8.304  71.841  1.00  0.00    -0.087 C  
BRANCH  12  13
HETATM   13  N   UNL     1      -7.939   7.436  72.694  1.00  0.00    -0.097 NA 
HETATM   14  C   UNL     1      -8.222   8.031  73.998  1.00  0.00    -0.259 C  
BRANCH  13  15
HETATM   15  C   UNL     1      -9.199   7.025  72.020  1.00  0.00    -0.138 C  
BRANCH  15  16
HETATM   16  C   UNL     1     -10.584   7.443  72.607  1.00  0.00    -0.322 C  
BRANCH  16  17
HETATM   17  C   UNL     1     -11.064   8.857  72.205  1.00  0.00    -0.355 C  
BRANCH  17  18
HETATM   18  C   UNL     1     -12.082   9.020  71.041  1.00  0.00    -0.304 C  
HETATM   19  N   UNL     1     -11.000   7.767  68.951  1.00  0.00     0.021 NA 
HETATM   20  C   UNL     1     -13.449   8.245  71.359  1.00  0.00    -0.247 C  
HETATM   21  C   UNL     1     -11.480   8.322  69.852  1.00  0.00     0.181 C  
HETATM   22  C   UNL     1     -14.252   8.743  72.572  1.00  0.00    -0.394 C  
HETATM   23  C   UNL     1     -13.253   6.728  71.574  1.00  0.00    -0.222 C  
BRANCH  18  24
HETATM   24  C   UNL     1     -12.271  10.522  70.799  1.00  0.00    -0.468 A  
HETATM   25  C   UNL     1     -11.683  11.172  69.699  1.00  0.00    -0.410 A  
HETATM   26  C   UNL     1     -11.689  12.564  69.573  1.00  0.00    -0.309 A  
HETATM   27  C   UNL     1     -12.918  11.324  71.756  1.00  0.00    -0.519 A  
HETATM   28  C   UNL     1     -12.331  13.338  70.555  1.00  0.00    -0.316 A  
HETATM   29  C   UNL     1     -12.961  12.707  71.622  1.00  0.00    -0.400 A  
BRANCH  26  30
HETATM   30  O   UNL     1     -11.074  13.241  68.551  1.00  0.00    -0.240 OA 
HETATM   31  C   UNL     1      -9.659  13.124  68.452  1.00  0.00    -0.186 C  
ENDBRANCH  26  30
BRANCH  28  32
HETATM   32  O   UNL     1     -12.263  14.702  70.407  1.00  0.00    -0.289 OA 
HETATM   33  C   UNL     1     -11.410  15.400  71.307  1.00  0.00    -0.387 C  
ENDBRANCH  28  32
ENDBRANCH  18  24
ENDBRANCH  17  18
ENDBRANCH  16  17
ENDBRANCH  15  16
ENDBRANCH  13  15
ENDBRANCH  12  13
ENDBRANCH  11  12
ENDBRANCH   7  11
ENDBRANCH   2   3
TORSDOF 12
ENDMDL
MODEL      248
REMARK 921   NORMALIZED FREE ENERGY PREDICTED BY IDOCK:   -3.51 KCAL/MOL
REMARK 922        TOTAL FREE ENERGY PREDICTED BY IDOCK:   -8.19 KCAL/MOL
REMARK 923 INTER-LIGAND FREE ENERGY PREDICTED BY IDOCK:   -7.91 KCAL/MOL
REMARK 924 INTRA-LIGAND FREE ENERGY PREDICTED BY IDOCK:   -0.28 KCAL/MOL
REMARK 927      BINDING AFFINITY PREDICTED BY RF-SCORE:    0.00 PKD
ROOT
HETATM    1  C   UNL     1     -10.604  15.476  65.035  1.00  0.00    -0.409 C  
HETATM    2  O   UNL     1      -9.618  14.839  65.840  1.00  0.00    -0.309 OA 
ENDROOT
BRANCH   2   3
HETATM    3  C   UNL     1     -10.074  13.891  66.724  1.00  0.00    -0.265 A  
HETATM    4  C   UNL     1      -9.302  12.963  67.443  1.00  0.00    -0.194 A  
HETATM    5  C   UNL     1     -12.103  12.905  67.641  1.00  0.00    -0.239 A  
HETATM    6  C   UNL     1      -9.951  12.023  68.264  1.00  0.00    -0.203 A  
HETATM    7  C   UNL     1     -11.347  11.985  68.378  1.00  0.00    -0.332 A  
HETATM    8  C   UNL     1     -11.470  13.842  66.818  1.00  0.00    -0.369 A  
BRANCH   4   9
HETATM    9  O   UNL     1      -7.945  12.986  67.264  1.00  0.00    -0.172 OA 
HETATM   10  C   UNL     1      -7.295  11.756  66.974  1.00  0.00    -0.133 C  
ENDBRANCH   4   9
BRANCH   7  11
HETATM   11  C   UNL     1     -12.010  10.842  69.146  1.00  0.00    -0.359 C  
BRANCH  11  12
HETATM   12  C   UNL     1     -10.937  10.227  70.055  1.00  0.00    -0.311 C  
BRANCH  12  13
HETATM   13  N   UNL     1     -11.186   9.852  71.451  1.00  0.00    -0.302 NA 
HETATM   14  C   UNL     1     -12.569   9.442  71.687  1.00  0.00    -0.375 C  
BRANCH  13  15
HETATM   15  C   UNL     1     -10.242   8.804  71.922  1.00  0.00    -0.345 C  
BRANCH  15  16
HETATM   16  C   UNL     1      -9.443   7.938  70.898  1.00  0.00    -0.167 C  
BRANCH  16  17
HETATM   17  C   UNL     1      -8.666   6.751  71.512  1.00  0.00    -0.127 C  
BRANCH  17  18
HETATM   18  C   UNL     1      -9.162   5.298  71.265  1.00  0.00    -0.178 C  
HETATM   19  N   UNL     1      -7.214   3.707  72.150  1.00  0.00    -0.049 NA 
HETATM   20  C   UNL     1     -10.445   4.966  72.168  1.00  0.00    -0.257 C  
HETATM   21  C   UNL     1      -8.068   4.389  71.755  1.00  0.00    -0.097 C  
HETATM   22  C   UNL     1     -11.709   5.798  71.892  1.00  0.00    -0.117 C  
HETATM   23  C   UNL     1     -10.174   5.097  73.682  1.00  0.00    -0.237 C  
BRANCH  18  24
HETATM   24  C   UNL     1      -9.415   5.144  69.761  1.00  0.00    -0.210 A  
HETATM   25  C   UNL     1     -10.015   6.166  69.004  1.00  0.00    -0.188 A  
HETATM   26  C   UNL     1     -10.423   5.966  67.682  1.00  0.00    -0.238 A  
HETATM   27  C   UNL     1      -9.188   3.912  69.121  1.00  0.00    -0.222 A  
HETATM   28  C   UNL     1     -10.196   4.718  67.077  1.00  0.00    -0.158 A  
HETATM   29  C   UNL     1      -9.556   3.713  67.796  1.00  0.00    -0.189 A  
BRANCH  26  30
HETATM   30  O   UNL     1     -11.068   6.914  66.930  1.00  0.00    -0.379 OA 
HETATM   31  C   UNL     1     -10.490   8.213  66.884  1.00  0.00    -0.309 C  
ENDBRANCH  26  30
BRANCH  28  32
HETATM   32  O   UNL     1     -10.661   4.561  65.794  1.00  0.00    -0.285 OA 
HETATM   33  C   UNL     1      -9.897   3.720  64.936  1.00  0.00    -0.183 C  
ENDBRANCH  28  32
ENDBRANCH  18  24
ENDBRANCH  17  18
ENDBRANCH  16  17
ENDBRANCH  15  16
ENDBRANCH  13  15
ENDBRANCH  12  13
ENDBRANCH  11  12
ENDBRANCH   7  11
ENDBRANCH   2   3
TORSDOF 12
ENDMDL
MODEL      249
REMARK 921   NORMALIZED FREE ENERGY PREDICTED BY IDOCK:   -3.49 KCAL/MOL
REMARK 922        TOTAL FREE ENERGY PREDICTED BY IDOCK:   -8.17 KCAL/MOL
REMARK 923 INTER-LIGAND FREE ENERGY PREDICTED BY IDOCK:   -7.04 KCAL/MOL
REMARK 924 INTRA-LIGAND FREE ENERGY PREDICTED BY IDOCK:   -1.13 KCAL/MOL
REMARK 927      BINDING AFFINITY PREDICTED BY RF-SCORE:    0.00 PKD
ROOT
HETATM    1  C   UNL     1      -7.964   1.981  74.065  1.00  0.00    -0.050 C  
HETATM    2  O   UNL     1      -9.339   2.233  73.791  1.00  0.00    -0.078 OA 
ENDROOT
BRANCH   2   3
HETATM    3  C   UNL     1      -9.603   3.146  72.799  1.00  0.00    -0.112 A  
HETATM    4  C   UNL     1      -9.540   2.930  71.412  1.00  0.00    -0.153 A  
HETATM    5  C   UNL     1     -10.137   5.489  72.405  1.00  0.00    -0.218 A  
HETATM    6  C   UNL     1      -9.790   4.005  70.541  1.00  0.00    -0.214 A  
HETATM    7  C   UNL     1     -10.095   5.286  71.020  1.00  0.00    -0.289 A  
HETATM    8  C   UNL     1      -9.887   4.429  73.282  1.00  0.00    -0.167 A  
BRANCH   4   9
HETATM    9  O   UNL     1      -9.181   1.683  70.975  1.00  0.00    -0.078 OA 
HETATM   10  C   UNL     1      -8.926   1.517  69.587  1.00  0.00    -0.079 C  
ENDBRANCH   4   9
BRANCH   7  11
HETATM   11  C   UNL     1     -10.192   6.455  70.039  1.00  0.00    -0.221 C  
BRANCH  11  12
HETATM   12  C   UNL     1     -11.126   7.496  70.669  1.00  0.00    -0.265 C  
BRANCH  12  13
HETATM   13  N   UNL     1     -11.136   8.908  70.273  1.00  0.00    -0.244 NA 
HETATM   14  C   UNL     1     -10.116   9.696  70.963  1.00  0.00    -0.130 C  
BRANCH  13  15
HETATM   15  C   UNL     1     -11.017   9.074  68.799  1.00  0.00     0.072 C  
BRANCH  15  16
HETATM   16  C   UNL     1     -10.112  10.195  68.198  1.00  0.00    -0.178 C  
BRANCH  16  17
HETATM   17  C   UNL     1     -10.649  10.841  66.900  1.00  0.00    -0.312 C  
BRANCH  17  18
HETATM   18  C   UNL     1      -9.830  11.967  66.208  1.00  0.00    -0.246 C  
HETATM   19  N   UNL     1      -7.282  11.194  66.337  1.00  0.00    -0.125 NA 
HETATM   20  C   UNL     1     -10.183  12.059  64.646  1.00  0.00    -0.313 C  
HETATM   21  C   UNL     1      -8.387  11.546  66.279  1.00  0.00    -0.076 C  
HETATM   22  C   UNL     1     -11.631  12.438  64.294  1.00  0.00    -0.436 C  
HETATM   23  C   UNL     1      -9.889  10.752  63.877  1.00  0.00    -0.389 C  
BRANCH  18  24
HETATM   24  C   UNL     1     -10.094  13.269  66.973  1.00  0.00    -0.242 A  
HETATM   25  C   UNL     1     -11.076  13.350  67.976  1.00  0.00    -0.281 A  
HETATM   26  C   UNL     1     -11.455  14.570  68.543  1.00  0.00    -0.301 A  
HETATM   27  C   UNL     1      -9.460  14.464  66.588  1.00  0.00    -0.300 A  
HETATM   28  C   UNL     1     -10.813  15.748  68.125  1.00  0.00    -0.307 A  
HETATM   29  C   UNL     1      -9.803  15.678  67.171  1.00  0.00    -0.229 A  
BRANCH  26  30
HETATM   30  O   UNL     1     -12.451  14.702  69.477  1.00  0.00    -0.239 OA 
HETATM   31  C   UNL     1     -12.222  14.126  70.758  1.00  0.00    -0.365 C  
ENDBRANCH  26  30
BRANCH  28  32
HETATM   32  O   UNL     1     -11.259  16.924  68.680  1.00  0.00    -0.258 OA 
HETATM   33  C   UNL     1     -10.267  17.800  69.202  1.00  0.00    -0.211 C  
ENDBRANCH  28  32
ENDBRANCH  18  24
ENDBRANCH  17  18
ENDBRANCH  16  17
ENDBRANCH  15  16
ENDBRANCH  13  15
ENDBRANCH  12  13
ENDBRANCH  11  12
ENDBRANCH   7  11
ENDBRANCH   2   3
TORSDOF 12
ENDMDL
MODEL      250
REMARK 921   NORMALIZED FREE ENERGY PREDICTED BY IDOCK:   -3.48 KCAL/MOL
REMARK 922        TOTAL FREE ENERGY PREDICTED BY IDOCK:   -8.15 KCAL/MOL
REMARK 923 INTER-LIGAND FREE ENERGY PREDICTED BY IDOCK:   -7.11 KCAL/MOL
REMARK 924 INTRA-LIGAND FREE ENERGY PREDICTED BY IDOCK:   -1.04 KCAL/MOL
REMARK 927      BINDING AFFINITY PREDICTED BY RF-SCORE:    0.00 PKD
ROOT
HETATM    1  C   UNL     1     -12.481  11.255  69.996  1.00  0.00    -0.182 C  
HETATM    2  O   UNL     1     -11.911  12.278  69.184  1.00  0.00    -0.300 OA 
ENDROOT
BRANCH   2   3
HETATM    3  C   UNL     1     -11.341  11.870  68.002  1.00  0.00    -0.288 A  
HETATM    4  C   UNL     1     -11.508  12.456  66.737  1.00  0.00    -0.362 A  
HETATM    5  C   UNL     1      -9.972  10.119  67.007  1.00  0.00    -0.249 A  
HETATM    6  C   UNL     1     -10.888  11.863  65.622  1.00  0.00    -0.333 A  
HETATM    7  C   UNL     1     -10.114  10.701  65.741  1.00  0.00    -0.327 A  
HETATM    8  C   UNL     1     -10.587  10.697  68.123  1.00  0.00    -0.237 A  
BRANCH   4   9
HETATM    9  O   UNL     1     -12.318  13.555  66.642  1.00  0.00    -0.376 OA 
HETATM   10  C   UNL     1     -12.618  14.046  65.343  1.00  0.00    -0.505 C  
ENDBRANCH   4   9
BRANCH   7  11
HETATM   11  C   UNL     1      -9.603  10.003  64.481  1.00  0.00    -0.346 C  
BRANCH  11  12
HETATM   12  C   UNL     1      -8.108   9.730  64.690  1.00  0.00    -0.148 C  
BRANCH  12  13
HETATM   13  N   UNL     1      -7.554   8.384  64.864  1.00  0.00    -0.094 NA 
HETATM   14  C   UNL     1      -6.194   8.397  65.398  1.00  0.00    -0.045 C  
BRANCH  13  15
HETATM   15  C   UNL     1      -8.436   7.523  65.697  1.00  0.00    -0.132 C  
BRANCH  15  16
HETATM   16  C   UNL     1      -7.939   6.131  66.200  1.00  0.00    -0.108 C  
BRANCH  16  17
HETATM   17  C   UNL     1      -7.903   5.967  67.737  1.00  0.00    -0.105 C  
BRANCH  17  18
HETATM   18  C   UNL     1      -9.140   5.385  68.476  1.00  0.00    -0.121 C  
HETATM   19  N   UNL     1     -11.270   6.304  67.160  1.00  0.00    -0.281 NA 
HETATM   20  C   UNL     1      -9.194   3.788  68.339  1.00  0.00    -0.213 C  
HETATM   21  C   UNL     1     -10.351   5.901  67.746  1.00  0.00    -0.210 C  
HETATM   22  C   UNL     1      -8.032   3.008  68.975  1.00  0.00    -0.065 C  
HETATM   23  C   UNL     1      -9.278   3.305  66.875  1.00  0.00    -0.196 C  
BRANCH  18  24
HETATM   24  C   UNL     1      -9.085   5.874  69.928  1.00  0.00    -0.156 A  
HETATM   25  C   UNL     1     -10.123   5.605  70.837  1.00  0.00    -0.263 A  
HETATM   26  C   UNL     1     -10.174   6.204  72.100  1.00  0.00    -0.186 A  
HETATM   27  C   UNL     1      -8.059   6.737  70.352  1.00  0.00    -0.116 A  
HETATM   28  C   UNL     1      -9.141   7.074  72.487  1.00  0.00    -0.128 A  
HETATM   29  C   UNL     1      -8.080   7.309  71.619  1.00  0.00    -0.100 A  
BRANCH  26  30
HETATM   30  O   UNL     1     -11.200   6.019  72.992  1.00  0.00    -0.254 OA 
HETATM   31  C   UNL     1     -11.604   4.680  73.251  1.00  0.00    -0.180 C  
ENDBRANCH  26  30
BRANCH  28  32
HETATM   32  O   UNL     1      -9.267   7.672  73.718  1.00  0.00    -0.250 OA 
HETATM   33  C   UNL     1      -8.082   8.215  74.288  1.00  0.00    -0.251 C  
ENDBRANCH  28  32
ENDBRANCH  18  24
ENDBRANCH  17  18
ENDBRANCH  16  17
ENDBRANCH  15  16
ENDBRANCH  13  15
ENDBRANCH  12  13
ENDBRANCH  11  12
ENDBRANCH   7  11
ENDBRANCH   2   3
TORSDOF 12
ENDMDL
MODEL      251
REMARK 921   NORMALIZED FREE ENERGY PREDICTED BY IDOCK:   -3.45 KCAL/MOL
REMARK 922        TOTAL FREE ENERGY PREDICTED BY IDOCK:   -8.10 KCAL/MOL
REMARK 923 INTER-LIGAND FREE ENERGY PREDICTED BY IDOCK:   -6.62 KCAL/MOL
REMARK 924 INTRA-LIGAND FREE ENERGY PREDICTED BY IDOCK:   -1.48 KCAL/MOL
REMARK 927      BINDING AFFINITY PREDICTED BY RF-SCORE:    0.00 PKD
ROOT
HETATM    1  C   UNL     1     -12.469  12.596  63.428  1.00  0.00    -0.372 C  
HETATM    2  O   UNL     1     -11.589  13.455  64.147  1.00  0.00    -0.382 OA 
ENDROOT
BRANCH   2   3
HETATM    3  C   UNL     1     -10.812  12.859  65.111  1.00  0.00    -0.296 A  
HETATM    4  C   UNL     1     -10.123  13.498  66.155  1.00  0.00    -0.304 A  
HETATM    5  C   UNL     1      -9.873  10.723  65.805  1.00  0.00    -0.292 A  
HETATM    6  C   UNL     1      -9.325  12.729  67.020  1.00  0.00    -0.229 A  
HETATM    7  C   UNL     1      -9.194  11.342  66.862  1.00  0.00    -0.184 A  
HETATM    8  C   UNL     1     -10.668  11.478  64.937  1.00  0.00    -0.357 A  
BRANCH   4   9
HETATM    9  O   UNL     1     -10.222  14.861  66.247  1.00  0.00    -0.272 OA 
HETATM   10  C   UNL     1      -9.065  15.630  65.949  1.00  0.00    -0.242 C  
ENDBRANCH   4   9
BRANCH   7  11
HETATM   11  C   UNL     1      -8.186  10.577  67.719  1.00  0.00    -0.107 C  
BRANCH  11  12
HETATM   12  C   UNL     1      -6.951  10.323  66.845  1.00  0.00    -0.091 C  
BRANCH  12  13
HETATM   13  N   UNL     1      -6.773   9.110  66.040  1.00  0.00    -0.075 NA 
HETATM   14  C   UNL     1      -5.663   9.216  65.095  1.00  0.00    -0.054 C  
BRANCH  13  15
HETATM   15  C   UNL     1      -6.624   7.897  66.888  1.00  0.00    -0.059 C  
BRANCH  15  16
HETATM   16  C   UNL     1      -7.579   6.677  66.702  1.00  0.00    -0.094 C  
BRANCH  16  17
HETATM   17  C   UNL     1      -7.862   5.866  67.987  1.00  0.00    -0.104 C  
BRANCH  17  18
HETATM   18  C   UNL     1      -9.331   5.599  68.419  1.00  0.00    -0.133 C  
HETATM   19  N   UNL     1     -10.765   7.593  67.381  1.00  0.00    -0.274 NA 
HETATM   20  C   UNL     1      -9.895   4.257  67.747  1.00  0.00    -0.132 C  
HETATM   21  C   UNL     1     -10.152   6.722  67.844  1.00  0.00    -0.159 C  
HETATM   22  C   UNL     1      -9.192   2.947  68.141  1.00  0.00    -0.248 C  
HETATM   23  C   UNL     1      -9.881   4.296  66.203  1.00  0.00    -0.232 C  
BRANCH  18  24
HETATM   24  C   UNL     1      -9.367   5.579  69.951  1.00  0.00    -0.186 A  
HETATM   25  C   UNL     1     -10.489   6.026  70.669  1.00  0.00    -0.305 A  
HETATM   26  C   UNL     1     -10.463   6.192  72.058  1.00  0.00    -0.211 A  
HETATM   27  C   UNL     1      -8.215   5.250  70.688  1.00  0.00    -0.109 A  
HETATM   28  C   UNL     1      -9.291   5.869  72.763  1.00  0.00    -0.145 A  
HETATM   29  C   UNL     1      -8.188   5.376  72.073  1.00  0.00    -0.115 A  
BRANCH  26  30
HETATM   30  O   UNL     1     -11.513   6.685  72.789  1.00  0.00    -0.227 OA 
HETATM   31  C   UNL     1     -12.152   7.859  72.300  1.00  0.00    -0.315 C  
ENDBRANCH  26  30
BRANCH  28  32
HETATM   32  O   UNL     1      -9.303   6.098  74.118  1.00  0.00    -0.130 OA 
HETATM   33  C   UNL     1      -8.710   7.311  74.566  1.00  0.00    -0.179 C  
ENDBRANCH  28  32
ENDBRANCH  18  24
ENDBRANCH  17  18
ENDBRANCH  16  17
ENDBRANCH  15  16
ENDBRANCH  13  15
ENDBRANCH  12  13
ENDBRANCH  11  12
ENDBRANCH   7  11
ENDBRANCH   2   3
TORSDOF 12
ENDMDL
MODEL      252
REMARK 921   NORMALIZED FREE ENERGY PREDICTED BY IDOCK:   -3.43 KCAL/MOL
REMARK 922        TOTAL FREE ENERGY PREDICTED BY IDOCK:   -8.06 KCAL/MOL
REMARK 923 INTER-LIGAND FREE ENERGY PREDICTED BY IDOCK:   -6.42 KCAL/MOL
REMARK 924 INTRA-LIGAND FREE ENERGY PREDICTED BY IDOCK:   -1.64 KCAL/MOL
REMARK 927      BINDING AFFINITY PREDICTED BY RF-SCORE:    0.00 PKD
ROOT
HETATM    1  C   UNL     1      -9.775  20.071  67.062  1.00  0.00    -0.421 C  
HETATM    2  O   UNL     1      -8.756  19.082  67.168  1.00  0.00    -0.279 OA 
ENDROOT
BRANCH   2   3
HETATM    3  C   UNL     1      -9.130  17.880  67.719  1.00  0.00    -0.258 A  
HETATM    4  C   UNL     1      -8.368  17.069  68.576  1.00  0.00    -0.260 A  
HETATM    5  C   UNL     1     -10.897  16.205  67.714  1.00  0.00    -0.318 A  
HETATM    6  C   UNL     1      -8.894  15.835  68.998  1.00  0.00    -0.236 A  
HETATM    7  C   UNL     1     -10.157  15.393  68.581  1.00  0.00    -0.212 A  
HETATM    8  C   UNL     1     -10.383  17.433  67.284  1.00  0.00    -0.336 A  
BRANCH   4   9
HETATM    9  O   UNL     1      -7.113  17.500  68.917  1.00  0.00    -0.241 OA 
HETATM   10  C   UNL     1      -6.070  16.536  68.954  1.00  0.00    -0.147 C  
ENDBRANCH   4   9
BRANCH   7  11
HETATM   11  C   UNL     1     -10.612  13.976  68.930  1.00  0.00    -0.241 C  
BRANCH  11  12
HETATM   12  C   UNL     1     -11.873  13.690  68.104  1.00  0.00    -0.372 C  
BRANCH  12  13
HETATM   13  N   UNL     1     -11.978  12.572  67.160  1.00  0.00    -0.516 NA 
HETATM   14  C   UNL     1     -11.327  12.849  65.881  1.00  0.00    -0.312 C  
BRANCH  13  15
HETATM   15  C   UNL     1     -11.468  11.302  67.744  1.00  0.00    -0.275 C  
BRANCH  15  16
HETATM   16  C   UNL     1     -10.017  10.814  67.435  1.00  0.00    -0.214 C  
BRANCH  16  17
HETATM   17  C   UNL     1      -9.312  10.083  68.600  1.00  0.00    -0.156 C  
BRANCH  17  18
HETATM   18  C   UNL     1      -8.092   9.166  68.305  1.00  0.00    -0.104 C  
HETATM   19  N   UNL     1      -6.728  10.378  66.360  1.00  0.00    -0.099 NA 
HETATM   20  C   UNL     1      -7.100   9.103  69.564  1.00  0.00    -0.059 C  
HETATM   21  C   UNL     1      -7.316   9.836  67.203  1.00  0.00    -0.087 C  
HETATM   22  C   UNL     1      -7.671   8.490  70.853  1.00  0.00    -0.092 C  
HETATM   23  C   UNL     1      -6.537  10.484  69.965  1.00  0.00    -0.144 C  
BRANCH  18  24
HETATM   24  C   UNL     1      -8.634   7.796  67.883  1.00  0.00    -0.122 A  
HETATM   25  C   UNL     1      -7.957   6.989  66.952  1.00  0.00    -0.115 A  
HETATM   26  C   UNL     1      -8.533   5.832  66.418  1.00  0.00    -0.122 A  
HETATM   27  C   UNL     1      -9.907   7.371  68.304  1.00  0.00    -0.173 A  
HETATM   28  C   UNL     1      -9.813   5.443  66.849  1.00  0.00    -0.166 A  
HETATM   29  C   UNL     1     -10.474   6.203  67.807  1.00  0.00    -0.290 A  
BRANCH  26  30
HETATM   30  O   UNL     1      -7.934   5.051  65.463  1.00  0.00    -0.100 OA 
HETATM   31  C   UNL     1      -7.712   5.641  64.186  1.00  0.00    -0.098 C  
ENDBRANCH  26  30
BRANCH  28  32
HETATM   32  O   UNL     1     -10.351   4.326  66.255  1.00  0.00    -0.189 OA 
HETATM   33  C   UNL     1     -11.285   4.549  65.205  1.00  0.00     0.335 C  
ENDBRANCH  28  32
ENDBRANCH  18  24
ENDBRANCH  17  18
ENDBRANCH  16  17
ENDBRANCH  15  16
ENDBRANCH  13  15
ENDBRANCH  12  13
ENDBRANCH  11  12
ENDBRANCH   7  11
ENDBRANCH   2   3
TORSDOF 12
ENDMDL
MODEL      253
REMARK 921   NORMALIZED FREE ENERGY PREDICTED BY IDOCK:   -3.43 KCAL/MOL
REMARK 922        TOTAL FREE ENERGY PREDICTED BY IDOCK:   -8.05 KCAL/MOL
REMARK 923 INTER-LIGAND FREE ENERGY PREDICTED BY IDOCK:   -6.71 KCAL/MOL
REMARK 924 INTRA-LIGAND FREE ENERGY PREDICTED BY IDOCK:   -1.34 KCAL/MOL
REMARK 927      BINDING AFFINITY PREDICTED BY RF-SCORE:    0.00 PKD
ROOT
HETATM    1  C   UNL     1      -8.355  17.141  67.480  1.00  0.00    -0.190 C  
HETATM    2  O   UNL     1      -8.348  16.167  66.442  1.00  0.00    -0.286 OA 
ENDROOT
BRANCH   2   3
HETATM    3  C   UNL     1      -8.521  14.860  66.832  1.00  0.00    -0.223 A  
HETATM    4  C   UNL     1      -9.709  14.114  66.784  1.00  0.00    -0.277 A  
HETATM    5  C   UNL     1      -7.388  12.981  67.887  1.00  0.00    -0.128 A  
HETATM    6  C   UNL     1      -9.712  12.799  67.284  1.00  0.00    -0.206 A  
HETATM    7  C   UNL     1      -8.560  12.217  67.832  1.00  0.00    -0.169 A  
HETATM    8  C   UNL     1      -7.374  14.291  67.397  1.00  0.00    -0.152 A  
BRANCH   4   9
HETATM    9  O   UNL     1     -10.832  14.729  66.299  1.00  0.00    -0.309 OA 
HETATM   10  C   UNL     1     -11.988  13.929  66.092  1.00  0.00    -0.423 C  
ENDBRANCH   4   9
BRANCH   7  11
HETATM   11  C   UNL     1      -8.656  10.852  68.512  1.00  0.00    -0.152 C  
BRANCH  11  12
HETATM   12  C   UNL     1      -7.531  10.786  69.553  1.00  0.00    -0.110 C  
BRANCH  12  13
HETATM   13  N   UNL     1      -6.599   9.658  69.656  1.00  0.00    -0.045 NA 
HETATM   14  C   UNL     1      -6.685   8.971  70.943  1.00  0.00    -0.080 C  
BRANCH  13  15
HETATM   15  C   UNL     1      -6.766   8.694  68.536  1.00  0.00    -0.060 C  
BRANCH  15  16
HETATM   16  C   UNL     1      -7.139   7.205  68.819  1.00  0.00    -0.088 C  
BRANCH  16  17
HETATM   17  C   UNL     1      -7.660   6.417  67.596  1.00  0.00    -0.101 C  
BRANCH  17  18
HETATM   18  C   UNL     1      -9.174   6.456  67.245  1.00  0.00    -0.122 C  
HETATM   19  N   UNL     1      -9.569   8.781  65.999  1.00  0.00    -0.246 NA 
HETATM   20  C   UNL     1      -9.548   5.318  66.179  1.00  0.00    -0.176 C  
HETATM   21  C   UNL     1      -9.412   7.767  66.546  1.00  0.00    -0.201 C  
HETATM   22  C   UNL     1      -9.352   3.863  66.637  1.00  0.00    -0.201 C  
HETATM   23  C   UNL     1      -8.775   5.451  64.849  1.00  0.00    -0.097 C  
BRANCH  18  24
HETATM   24  C   UNL     1      -9.957   6.348  68.558  1.00  0.00    -0.155 A  
HETATM   25  C   UNL     1     -10.660   7.442  69.091  1.00  0.00    -0.213 A  
HETATM   26  C   UNL     1     -11.214   7.412  70.375  1.00  0.00    -0.262 A  
HETATM   27  C   UNL     1      -9.870   5.187  69.347  1.00  0.00    -0.269 A  
HETATM   28  C   UNL     1     -11.097   6.241  71.143  1.00  0.00    -0.298 A  
HETATM   29  C   UNL     1     -10.449   5.132  70.610  1.00  0.00    -0.269 A  
BRANCH  26  30
HETATM   30  O   UNL     1     -11.852   8.477  70.956  1.00  0.00    -0.284 OA 
HETATM   31  C   UNL     1     -11.058   9.611  71.285  1.00  0.00    -0.355 C  
ENDBRANCH  26  30
BRANCH  28  32
HETATM   32  O   UNL     1     -11.616   6.284  72.415  1.00  0.00    -0.291 OA 
HETATM   33  C   UNL     1     -10.956   5.498  73.400  1.00  0.00    -0.275 C  
ENDBRANCH  28  32
ENDBRANCH  18  24
ENDBRANCH  17  18
ENDBRANCH  16  17
ENDBRANCH  15  16
ENDBRANCH  13  15
ENDBRANCH  12  13
ENDBRANCH  11  12
ENDBRANCH   7  11
ENDBRANCH   2   3
TORSDOF 12
ENDMDL
MODEL      254
REMARK 921   NORMALIZED FREE ENERGY PREDICTED BY IDOCK:   -3.41 KCAL/MOL
REMARK 922        TOTAL FREE ENERGY PREDICTED BY IDOCK:   -8.03 KCAL/MOL
REMARK 923 INTER-LIGAND FREE ENERGY PREDICTED BY IDOCK:   -7.98 KCAL/MOL
REMARK 924 INTRA-LIGAND FREE ENERGY PREDICTED BY IDOCK:   -0.06 KCAL/MOL
REMARK 927      BINDING AFFINITY PREDICTED BY RF-SCORE:    0.00 PKD
ROOT
HETATM    1  C   UNL     1     -14.200   7.312  71.109  1.00  0.00    -0.071 C  
HETATM    2  O   UNL     1     -12.999   6.950  71.783  1.00  0.00    -0.363 OA 
ENDROOT
BRANCH   2   3
HETATM    3  C   UNL     1     -11.844   7.540  71.328  1.00  0.00    -0.294 A  
HETATM    4  C   UNL     1     -10.713   6.892  70.805  1.00  0.00    -0.233 A  
HETATM    5  C   UNL     1     -10.703   9.682  71.130  1.00  0.00    -0.365 A  
HETATM    6  C   UNL     1      -9.593   7.659  70.441  1.00  0.00    -0.168 A  
HETATM    7  C   UNL     1      -9.574   9.053  70.591  1.00  0.00    -0.289 A  
HETATM    8  C   UNL     1     -11.822   8.929  71.500  1.00  0.00    -0.402 A  
BRANCH   4   9
HETATM    9  O   UNL     1     -10.738   5.525  70.727  1.00  0.00    -0.261 OA 
HETATM   10  C   UNL     1     -10.532   4.790  71.925  1.00  0.00    -0.130 C  
ENDBRANCH   4   9
BRANCH   7  11
HETATM   11  C   UNL     1      -8.277   9.821  70.339  1.00  0.00    -0.119 C  
BRANCH  11  12
HETATM   12  C   UNL     1      -8.442  10.564  69.007  1.00  0.00    -0.157 C  
BRANCH  12  13
HETATM   13  N   UNL     1      -7.408  10.587  67.968  1.00  0.00    -0.088 NA 
HETATM   14  C   UNL     1      -7.585   9.532  66.971  1.00  0.00    -0.091 C  
BRANCH  13  15
HETATM   15  C   UNL     1      -7.311  11.918  67.310  1.00  0.00    -0.146 C  
BRANCH  15  16
HETATM   16  C   UNL     1      -8.199  13.108  67.792  1.00  0.00    -0.168 C  
BRANCH  16  17
HETATM   17  C   UNL     1      -7.622  14.512  67.504  1.00  0.00    -0.211 C  
BRANCH  17  18
HETATM   18  C   UNL     1      -8.328  15.767  68.089  1.00  0.00    -0.160 C  
HETATM   19  N   UNL     1      -6.494  17.002  69.580  1.00  0.00    -0.236 NA 
HETATM   20  C   UNL     1      -8.720  16.802  66.928  1.00  0.00    -0.242 C  
HETATM   21  C   UNL     1      -7.304  16.471  68.938  1.00  0.00    -0.219 C  
HETATM   22  C   UNL     1      -9.736  16.306  65.886  1.00  0.00    -0.354 C  
HETATM   23  C   UNL     1      -7.501  17.306  66.125  1.00  0.00    -0.321 C  
BRANCH  18  24
HETATM   24  C   UNL     1      -9.529  15.283  68.909  1.00  0.00    -0.218 A  
HETATM   25  C   UNL     1     -10.192  14.081  68.609  1.00  0.00    -0.233 A  
HETATM   26  C   UNL     1     -11.397  13.726  69.223  1.00  0.00    -0.273 A  
HETATM   27  C   UNL     1     -10.097  16.107  69.898  1.00  0.00    -0.074 A  
HETATM   28  C   UNL     1     -11.946  14.579  70.196  1.00  0.00    -0.315 A  
HETATM   29  C   UNL     1     -11.276  15.747  70.541  1.00  0.00    -0.392 A  
BRANCH  26  30
HETATM   30  O   UNL     1     -12.108  12.595  68.913  1.00  0.00    -0.262 OA 
HETATM   31  C   UNL     1     -11.748  11.905  67.722  1.00  0.00    -0.292 C  
ENDBRANCH  26  30
BRANCH  28  32
HETATM   32  O   UNL     1     -13.156  14.206  70.731  1.00  0.00    -0.321 OA 
HETATM   33  C   UNL     1     -13.806  15.159  71.564  1.00  0.00    -0.508 C  
ENDBRANCH  28  32
ENDBRANCH  18  24
ENDBRANCH  17  18
ENDBRANCH  16  17
ENDBRANCH  15  16
ENDBRANCH  13  15
ENDBRANCH  12  13
ENDBRANCH  11  12
ENDBRANCH   7  11
ENDBRANCH   2   3
TORSDOF 12
ENDMDL
MODEL      255
REMARK 921   NORMALIZED FREE ENERGY PREDICTED BY IDOCK:   -3.41 KCAL/MOL
REMARK 922        TOTAL FREE ENERGY PREDICTED BY IDOCK:   -8.03 KCAL/MOL
REMARK 923 INTER-LIGAND FREE ENERGY PREDICTED BY IDOCK:   -7.29 KCAL/MOL
REMARK 924 INTRA-LIGAND FREE ENERGY PREDICTED BY IDOCK:   -0.74 KCAL/MOL
REMARK 927      BINDING AFFINITY PREDICTED BY RF-SCORE:    0.00 PKD
ROOT
HETATM    1  C   UNL     1      -7.040   3.313  69.991  1.00  0.00    -0.041 C  
HETATM    2  O   UNL     1      -7.675   3.490  71.253  1.00  0.00    -0.053 OA 
ENDROOT
BRANCH   2   3
HETATM    3  C   UNL     1      -8.255   4.716  71.476  1.00  0.00    -0.103 A  
HETATM    4  C   UNL     1      -9.420   4.979  72.215  1.00  0.00    -0.139 A  
HETATM    5  C   UNL     1      -8.103   7.074  70.888  1.00  0.00    -0.109 A  
HETATM    6  C   UNL     1      -9.902   6.298  72.288  1.00  0.00    -0.175 A  
HETATM    7  C   UNL     1      -9.252   7.355  71.636  1.00  0.00    -0.154 A  
HETATM    8  C   UNL     1      -7.616   5.765  70.806  1.00  0.00    -0.092 A  
BRANCH   4   9
HETATM    9  O   UNL     1     -10.065   3.917  72.790  1.00  0.00    -0.148 OA 
HETATM   10  C   UNL     1     -11.220   4.189  73.573  1.00  0.00    -0.250 C  
ENDBRANCH   4   9
BRANCH   7  11
HETATM   11  C   UNL     1      -9.906   8.736  71.605  1.00  0.00    -0.378 C  
BRANCH  11  12
HETATM   12  C   UNL     1      -9.246   9.523  70.465  1.00  0.00    -0.225 C  
BRANCH  12  13
HETATM   13  N   UNL     1      -9.953   9.905  69.239  1.00  0.00    -0.194 NA 
HETATM   14  C   UNL     1     -10.204   8.769  68.354  1.00  0.00    -0.196 C  
BRANCH  13  15
HETATM   15  C   UNL     1     -11.218  10.632  69.529  1.00  0.00    -0.272 C  
BRANCH  15  16
HETATM   16  C   UNL     1     -11.286  12.186  69.401  1.00  0.00    -0.311 C  
BRANCH  16  17
HETATM   17  C   UNL     1     -12.033  12.707  68.152  1.00  0.00    -0.274 C  
BRANCH  17  18
HETATM   18  C   UNL     1     -11.260  13.524  67.080  1.00  0.00    -0.330 C  
HETATM   19  N   UNL     1     -13.068  14.201  65.241  1.00  0.00    -0.729 NA 
HETATM   20  C   UNL     1     -10.715  14.904  67.689  1.00  0.00    -0.270 C  
HETATM   21  C   UNL     1     -12.269  13.908  66.031  1.00  0.00    -0.462 C  
HETATM   22  C   UNL     1      -9.685  14.790  68.824  1.00  0.00    -0.222 C  
HETATM   23  C   UNL     1     -11.838  15.818  68.227  1.00  0.00    -0.116 C  
BRANCH  18  24
HETATM   24  C   UNL     1     -10.154  12.623  66.519  1.00  0.00    -0.257 A  
HETATM   25  C   UNL     1     -10.381  11.771  65.424  1.00  0.00    -0.311 A  
HETATM   26  C   UNL     1      -9.444  10.811  65.027  1.00  0.00    -0.241 A  
HETATM   27  C   UNL     1      -8.918  12.513  67.181  1.00  0.00    -0.200 A  
HETATM   28  C   UNL     1      -8.225  10.717  65.720  1.00  0.00    -0.161 A  
HETATM   29  C   UNL     1      -7.965  11.587  66.772  1.00  0.00    -0.152 A  
BRANCH  26  30
HETATM   30  O   UNL     1      -9.651   9.918  64.007  1.00  0.00    -0.253 OA 
HETATM   31  C   UNL     1      -9.481  10.397  62.678  1.00  0.00    -0.294 C  
ENDBRANCH  26  30
BRANCH  28  32
HETATM   32  O   UNL     1      -7.363   9.724  65.320  1.00  0.00    -0.108 OA 
HETATM   33  C   UNL     1      -6.904   8.832  66.329  1.00  0.00    -0.074 C  
ENDBRANCH  28  32
ENDBRANCH  18  24
ENDBRANCH  17  18
ENDBRANCH  16  17
ENDBRANCH  15  16
ENDBRANCH  13  15
ENDBRANCH  12  13
ENDBRANCH  11  12
ENDBRANCH   7  11
ENDBRANCH   2   3
TORSDOF 12
ENDMDL
MODEL      256
REMARK 921   NORMALIZED FREE ENERGY PREDICTED BY IDOCK:   -3.40 KCAL/MOL
REMARK 922        TOTAL FREE ENERGY PREDICTED BY IDOCK:   -8.01 KCAL/MOL
REMARK 923 INTER-LIGAND FREE ENERGY PREDICTED BY IDOCK:   -6.20 KCAL/MOL
REMARK 924 INTRA-LIGAND FREE ENERGY PREDICTED BY IDOCK:   -1.80 KCAL/MOL
REMARK 927      BINDING AFFINITY PREDICTED BY RF-SCORE:    0.00 PKD
ROOT
HETATM    1  C   UNL     1      -9.168  15.763  69.218  1.00  0.00    -0.266 C  
HETATM    2  O   UNL     1      -7.856  15.541  68.712  1.00  0.00    -0.138 OA 
ENDROOT
BRANCH   2   3
HETATM    3  C   UNL     1      -7.192  14.443  69.204  1.00  0.00    -0.118 A  
HETATM    4  C   UNL     1      -7.329  13.111  68.781  1.00  0.00    -0.068 A  
HETATM    5  C   UNL     1      -5.644  13.725  70.942  1.00  0.00    -0.198 A  
HETATM    6  C   UNL     1      -6.606  12.104  69.444  1.00  0.00    -0.090 A  
HETATM    7  C   UNL     1      -5.756  12.395  70.520  1.00  0.00    -0.162 A  
HETATM    8  C   UNL     1      -6.361  14.736  70.292  1.00  0.00    -0.162 A  
BRANCH   4   9
HETATM    9  O   UNL     1      -8.212  12.850  67.767  1.00  0.00    -0.147 OA 
HETATM   10  C   UNL     1      -7.735  12.119  66.646  1.00  0.00     0.127 C  
ENDBRANCH   4   9
BRANCH   7  11
HETATM   11  C   UNL     1      -5.126  11.251  71.314  1.00  0.00    -0.093 C  
BRANCH  11  12
HETATM   12  C   UNL     1      -5.885   9.971  70.941  1.00  0.00    -0.088 C  
BRANCH  12  13
HETATM   13  N   UNL     1      -6.226   8.928  71.914  1.00  0.00    -0.077 NA 
HETATM   14  C   UNL     1      -6.326   9.441  73.279  1.00  0.00     0.547 C  
BRANCH  13  15
HETATM   15  C   UNL     1      -7.466   8.199  71.536  1.00  0.00    -0.081 C  
BRANCH  15  16
HETATM   16  C   UNL     1      -8.270   8.609  70.262  1.00  0.00    -0.119 C  
BRANCH  16  17
HETATM   17  C   UNL     1      -9.451   9.573  70.516  1.00  0.00    -0.306 C  
BRANCH  17  18
HETATM   18  C   UNL     1     -10.769   9.401  69.711  1.00  0.00    -0.250 C  
HETATM   19  N   UNL     1     -10.461   7.170  68.283  1.00  0.00    -0.195 NA 
HETATM   20  C   UNL     1     -12.010   9.128  70.690  1.00  0.00    -0.171 C  
HETATM   21  C   UNL     1     -10.606   8.147  68.895  1.00  0.00    -0.140 C  
HETATM   22  C   UNL     1     -12.367  10.256  71.671  1.00  0.00    -0.445 C  
HETATM   23  C   UNL     1     -11.840   7.856  71.549  1.00  0.00    -0.322 C  
BRANCH  18  24
HETATM   24  C   UNL     1     -10.943  10.646  68.834  1.00  0.00    -0.296 A  
HETATM   25  C   UNL     1     -11.266  11.898  69.385  1.00  0.00    -0.278 A  
HETATM   26  C   UNL     1     -11.613  12.992  68.586  1.00  0.00    -0.318 A  
HETATM   27  C   UNL     1     -10.931  10.539  67.432  1.00  0.00    -0.352 A  
HETATM   28  C   UNL     1     -11.606  12.847  67.188  1.00  0.00    -0.363 A  
HETATM   29  C   UNL     1     -11.239  11.629  66.626  1.00  0.00    -0.362 A  
BRANCH  26  30
HETATM   30  O   UNL     1     -11.996  14.211  69.084  1.00  0.00    -0.324 OA 
HETATM   31  C   UNL     1     -12.704  14.217  70.318  1.00  0.00    -0.229 C  
ENDBRANCH  26  30
BRANCH  28  32
HETATM   32  O   UNL     1     -12.003  13.938  66.453  1.00  0.00    -0.390 OA 
HETATM   33  C   UNL     1     -11.474  14.048  65.137  1.00  0.00    -0.328 C  
ENDBRANCH  28  32
ENDBRANCH  18  24
ENDBRANCH  17  18
ENDBRANCH  16  17
ENDBRANCH  15  16
ENDBRANCH  13  15
ENDBRANCH  12  13
ENDBRANCH  11  12
ENDBRANCH   7  11
ENDBRANCH   2   3
TORSDOF 12
ENDMDL
MODEL      257
REMARK 921   NORMALIZED FREE ENERGY PREDICTED BY IDOCK:   -3.37 KCAL/MOL
REMARK 922        TOTAL FREE ENERGY PREDICTED BY IDOCK:   -7.96 KCAL/MOL
REMARK 923 INTER-LIGAND FREE ENERGY PREDICTED BY IDOCK:   -6.08 KCAL/MOL
REMARK 924 INTRA-LIGAND FREE ENERGY PREDICTED BY IDOCK:   -1.88 KCAL/MOL
REMARK 927      BINDING AFFINITY PREDICTED BY RF-SCORE:    0.00 PKD
ROOT
HETATM    1  C   UNL     1     -11.058   5.478  73.440  1.00  0.00    -0.228 C  
HETATM    2  O   UNL     1     -10.741   6.826  73.769  1.00  0.00    -0.325 OA 
ENDROOT
BRANCH   2   3
HETATM    3  C   UNL     1     -10.559   7.684  72.711  1.00  0.00    -0.325 A  
HETATM    4  C   UNL     1      -9.346   7.998  72.075  1.00  0.00    -0.178 A  
HETATM    5  C   UNL     1     -11.714   9.285  71.285  1.00  0.00    -0.416 A  
HETATM    6  C   UNL     1      -9.343   8.948  71.039  1.00  0.00    -0.313 A  
HETATM    7  C   UNL     1     -10.517   9.595  70.629  1.00  0.00    -0.379 A  
HETATM    8  C   UNL     1     -11.730   8.343  72.320  1.00  0.00    -0.453 A  
BRANCH   4   9
HETATM    9  O   UNL     1      -8.207   7.395  72.538  1.00  0.00    -0.101 OA 
HETATM   10  C   UNL     1      -7.461   8.071  73.540  1.00  0.00    -0.148 C  
ENDBRANCH   4   9
BRANCH   7  11
HETATM   11  C   UNL     1     -10.434  10.739  69.619  1.00  0.00    -0.183 C  
BRANCH  11  12
HETATM   12  C   UNL     1     -11.131  10.261  68.338  1.00  0.00    -0.247 C  
BRANCH  12  13
HETATM   13  N   UNL     1     -10.461   9.453  67.314  1.00  0.00    -0.265 NA 
HETATM   14  C   UNL     1      -9.126   9.949  66.986  1.00  0.00    -0.138 C  
BRANCH  13  15
HETATM   15  C   UNL     1     -10.407   8.014  67.688  1.00  0.00    -0.246 C  
BRANCH  15  16
HETATM   16  C   UNL     1     -10.488   6.906  66.590  1.00  0.00    -0.213 C  
BRANCH  16  17
HETATM   17  C   UNL     1      -9.134   6.266  66.208  1.00  0.00    -0.166 C  
BRANCH  17  18
HETATM   18  C   UNL     1      -9.044   4.728  65.998  1.00  0.00    -0.133 C  
HETATM   19  N   UNL     1     -11.235   4.053  64.637  1.00  0.00    -0.206 NA 
HETATM   20  C   UNL     1      -7.805   4.347  65.054  1.00  0.00    -0.089 C  
HETATM   21  C   UNL     1     -10.279   4.332  65.235  1.00  0.00    -0.217 C  
HETATM   22  C   UNL     1      -6.406   4.690  65.591  1.00  0.00    -0.039 C  
HETATM   23  C   UNL     1      -7.889   4.987  63.651  1.00  0.00    -0.088 C  
BRANCH  18  24
HETATM   24  C   UNL     1      -8.983   4.074  67.383  1.00  0.00    -0.146 A  
HETATM   25  C   UNL     1      -8.391   4.724  68.480  1.00  0.00    -0.083 A  
HETATM   26  C   UNL     1      -8.159   4.066  69.693  1.00  0.00    -0.054 A  
HETATM   27  C   UNL     1      -9.386   2.739  67.561  1.00  0.00    -0.201 A  
HETATM   28  C   UNL     1      -8.560   2.727  69.832  1.00  0.00    -0.059 A  
HETATM   29  C   UNL     1      -9.194   2.086  68.773  1.00  0.00    -0.218 A  
BRANCH  26  30
HETATM   30  O   UNL     1      -7.528   4.643  70.765  1.00  0.00    -0.051 OA 
HETATM   31  C   UNL     1      -6.310   5.333  70.511  1.00  0.00    -0.023 C  
ENDBRANCH  26  30
BRANCH  28  32
HETATM   32  O   UNL     1      -8.263   2.115  71.027  1.00  0.00    -0.049 OA 
HETATM   33  C   UNL     1      -9.303   2.070  71.997  1.00  0.00    -0.094 C  
ENDBRANCH  28  32
ENDBRANCH  18  24
ENDBRANCH  17  18
ENDBRANCH  16  17
ENDBRANCH  15  16
ENDBRANCH  13  15
ENDBRANCH  12  13
ENDBRANCH  11  12
ENDBRANCH   7  11
ENDBRANCH   2   3
TORSDOF 12
ENDMDL
MODEL      258
REMARK 921   NORMALIZED FREE ENERGY PREDICTED BY IDOCK:   -3.37 KCAL/MOL
REMARK 922        TOTAL FREE ENERGY PREDICTED BY IDOCK:   -7.95 KCAL/MOL
REMARK 923 INTER-LIGAND FREE ENERGY PREDICTED BY IDOCK:   -6.30 KCAL/MOL
REMARK 924 INTRA-LIGAND FREE ENERGY PREDICTED BY IDOCK:   -1.66 KCAL/MOL
REMARK 927      BINDING AFFINITY PREDICTED BY RF-SCORE:    0.00 PKD
ROOT
HETATM    1  C   UNL     1     -10.220  17.481  69.032  1.00  0.00    -0.314 C  
HETATM    2  O   UNL     1      -9.009  17.417  68.286  1.00  0.00    -0.252 OA 
ENDROOT
BRANCH   2   3
HETATM    3  C   UNL     1      -8.166  16.373  68.582  1.00  0.00    -0.223 A  
HETATM    4  C   UNL     1      -8.333  15.024  68.225  1.00  0.00    -0.145 A  
HETATM    5  C   UNL     1      -6.153  15.790  69.822  1.00  0.00    -0.165 A  
HETATM    6  C   UNL     1      -7.392  14.078  68.668  1.00  0.00    -0.120 A  
HETATM    7  C   UNL     1      -6.295  14.445  69.460  1.00  0.00    -0.128 A  
HETATM    8  C   UNL     1      -7.084  16.741  69.391  1.00  0.00    -0.143 A  
BRANCH   4   9
HETATM    9  O   UNL     1      -9.446  14.687  67.502  1.00  0.00    -0.194 OA 
HETATM   10  C   UNL     1      -9.362  14.759  66.086  1.00  0.00    -0.257 C  
ENDBRANCH   4   9
BRANCH   7  11
HETATM   11  C   UNL     1      -5.397  13.360  70.054  1.00  0.00    -0.096 C  
BRANCH  11  12
HETATM   12  C   UNL     1      -5.952  12.009  69.586  1.00  0.00    -0.120 C  
BRANCH  12  13
HETATM   13  N   UNL     1      -5.320  10.726  69.911  1.00  0.00    -0.040 NA 
HETATM   14  C   UNL     1      -5.177  10.516  71.351  1.00  0.00    -0.074 C  
BRANCH  13  15
HETATM   15  C   UNL     1      -6.031   9.580  69.283  1.00  0.00    -0.034 C  
BRANCH  15  16
HETATM   16  C   UNL     1      -7.218   9.827  68.300  1.00  0.00    -0.078 C  
BRANCH  16  17
HETATM   17  C   UNL     1      -8.315   8.738  68.314  1.00  0.00    -0.126 C  
BRANCH  17  18
HETATM   18  C   UNL     1      -8.881   8.201  66.969  1.00  0.00    -0.143 C  
HETATM   19  N   UNL     1      -6.759   7.482  65.524  1.00  0.00    -0.045 NA 
HETATM   20  C   UNL     1      -9.733   6.862  67.196  1.00  0.00    -0.197 C  
HETATM   21  C   UNL     1      -7.692   7.797  66.140  1.00  0.00    -0.089 C  
HETATM   22  C   UNL     1     -10.999   6.995  68.059  1.00  0.00    -0.185 C  
HETATM   23  C   UNL     1      -8.910   5.716  67.826  1.00  0.00    -0.105 C  
BRANCH  18  24
HETATM   24  C   UNL     1      -9.683   9.335  66.319  1.00  0.00    -0.340 A  
HETATM   25  C   UNL     1      -9.574   9.625  64.948  1.00  0.00    -0.244 A  
HETATM   26  C   UNL     1     -10.149  10.768  64.385  1.00  0.00    -0.353 A  
HETATM   27  C   UNL     1     -10.442  10.216  67.110  1.00  0.00    -0.305 A  
HETATM   28  C   UNL     1     -10.888  11.637  65.205  1.00  0.00    -0.283 A  
HETATM   29  C   UNL     1     -11.049  11.337  66.554  1.00  0.00    -0.280 A  
BRANCH  26  30
HETATM   30  O   UNL     1     -10.013  11.121  63.067  1.00  0.00    -0.326 OA 
HETATM   31  C   UNL     1      -8.696  11.130  62.528  1.00  0.00    -0.252 C  
ENDBRANCH  26  30
BRANCH  28  32
HETATM   32  O   UNL     1     -11.389  12.770  64.611  1.00  0.00    -0.300 OA 
HETATM   33  C   UNL     1     -12.775  13.030  64.798  1.00  0.00    -0.342 C  
ENDBRANCH  28  32
ENDBRANCH  18  24
ENDBRANCH  17  18
ENDBRANCH  16  17
ENDBRANCH  15  16
ENDBRANCH  13  15
ENDBRANCH  12  13
ENDBRANCH  11  12
ENDBRANCH   7  11
ENDBRANCH   2   3
TORSDOF 12
ENDMDL
MODEL      259
REMARK 921   NORMALIZED FREE ENERGY PREDICTED BY IDOCK:   -3.35 KCAL/MOL
REMARK 922        TOTAL FREE ENERGY PREDICTED BY IDOCK:   -7.93 KCAL/MOL
REMARK 923 INTER-LIGAND FREE ENERGY PREDICTED BY IDOCK:   -5.24 KCAL/MOL
REMARK 924 INTRA-LIGAND FREE ENERGY PREDICTED BY IDOCK:   -2.68 KCAL/MOL
REMARK 927      BINDING AFFINITY PREDICTED BY RF-SCORE:    0.00 PKD
ROOT
HETATM    1  C   UNL     1      -7.175   7.439  63.376  1.00  0.00    -0.079 C  
HETATM    2  O   UNL     1      -5.947   7.354  64.093  1.00  0.00    -0.040 OA 
ENDROOT
BRANCH   2   3
HETATM    3  C   UNL     1      -5.910   7.987  65.312  1.00  0.00    -0.041 A  
HETATM    4  C   UNL     1      -5.629   7.405  66.559  1.00  0.00    -0.024 A  
HETATM    5  C   UNL     1      -6.328  10.121  66.408  1.00  0.00    -0.077 A  
HETATM    6  C   UNL     1      -5.693   8.201  67.716  1.00  0.00    -0.039 A  
HETATM    7  C   UNL     1      -6.035   9.560  67.657  1.00  0.00    -0.052 A  
HETATM    8  C   UNL     1      -6.272   9.337  65.250  1.00  0.00    -0.064 A  
BRANCH   4   9
HETATM    9  O   UNL     1      -5.358   6.063  66.593  1.00  0.00    -0.008 OA 
HETATM   10  C   UNL     1      -6.223   5.232  67.354  1.00  0.00    -0.035 C  
ENDBRANCH   4   9
BRANCH   7  11
HETATM   11  C   UNL     1      -6.254  10.339  68.953  1.00  0.00    -0.047 C  
BRANCH  11  12
HETATM   12  C   UNL     1      -5.694  11.750  68.732  1.00  0.00    -0.049 C  
BRANCH  12  13
HETATM   13  N   UNL     1      -6.288  12.952  69.328  1.00  0.00    -0.103 NA 
HETATM   14  C   UNL     1      -5.304  13.787  70.014  1.00  0.00    -0.098 C  
BRANCH  13  15
HETATM   15  C   UNL     1      -7.048  13.750  68.330  1.00  0.00    -0.109 C  
BRANCH  15  16
HETATM   16  C   UNL     1      -8.573  13.498  68.109  1.00  0.00    -0.173 C  
BRANCH  16  17
HETATM   17  C   UNL     1      -8.922  12.653  66.862  1.00  0.00    -0.213 C  
BRANCH  17  18
HETATM   18  C   UNL     1     -10.310  11.960  66.769  1.00  0.00    -0.238 C  
HETATM   19  N   UNL     1     -12.101  13.839  67.377  1.00  0.00    -0.379 NA 
HETATM   20  C   UNL     1     -10.632  11.518  65.261  1.00  0.00    -0.339 C  
HETATM   21  C   UNL     1     -11.331  13.009  67.116  1.00  0.00    -0.305 C  
HETATM   22  C   UNL     1      -9.696  10.467  64.642  1.00  0.00    -0.369 C  
HETATM   23  C   UNL     1     -10.654  12.702  64.270  1.00  0.00    -0.408 C  
BRANCH  18  24
HETATM   24  C   UNL     1     -10.314  10.794  67.764  1.00  0.00    -0.226 A  
HETATM   25  C   UNL     1      -9.697   9.567  67.465  1.00  0.00    -0.194 A  
HETATM   26  C   UNL     1      -9.858   8.440  68.278  1.00  0.00    -0.169 A  
HETATM   27  C   UNL     1     -11.066  10.870  68.949  1.00  0.00    -0.307 A  
HETATM   28  C   UNL     1     -10.629   8.545  69.448  1.00  0.00    -0.195 A  
HETATM   29  C   UNL     1     -11.203   9.767  69.784  1.00  0.00    -0.242 A  
BRANCH  26  30
HETATM   30  O   UNL     1      -9.327   7.209  67.990  1.00  0.00    -0.130 OA 
HETATM   31  C   UNL     1      -9.351   6.791  66.630  1.00  0.00    -0.165 C  
ENDBRANCH  26  30
BRANCH  28  32
HETATM   32  O   UNL     1     -10.794   7.396  70.183  1.00  0.00    -0.247 OA 
HETATM   33  C   UNL     1     -12.069   6.768  70.108  1.00  0.00    -0.079 C  
ENDBRANCH  28  32
ENDBRANCH  18  24
ENDBRANCH  17  18
ENDBRANCH  16  17
ENDBRANCH  15  16
ENDBRANCH  13  15
ENDBRANCH  12  13
ENDBRANCH  11  12
ENDBRANCH   7  11
ENDBRANCH   2   3
TORSDOF 12
ENDMDL
MODEL      260
REMARK 921   NORMALIZED FREE ENERGY PREDICTED BY IDOCK:   -3.35 KCAL/MOL
REMARK 922        TOTAL FREE ENERGY PREDICTED BY IDOCK:   -7.93 KCAL/MOL
REMARK 923 INTER-LIGAND FREE ENERGY PREDICTED BY IDOCK:   -6.40 KCAL/MOL
REMARK 924 INTRA-LIGAND FREE ENERGY PREDICTED BY IDOCK:   -1.52 KCAL/MOL
REMARK 927      BINDING AFFINITY PREDICTED BY RF-SCORE:    0.00 PKD
ROOT
HETATM    1  C   UNL     1      -8.786   4.759  71.111  1.00  0.00    -0.119 C  
HETATM    2  O   UNL     1      -8.059   4.451  69.926  1.00  0.00    -0.062 OA 
ENDROOT
BRANCH   2   3
HETATM    3  C   UNL     1      -7.858   5.490  69.049  1.00  0.00    -0.091 A  
HETATM    4  C   UNL     1      -8.784   6.012  68.131  1.00  0.00    -0.113 A  
HETATM    5  C   UNL     1      -6.163   7.019  68.202  1.00  0.00    -0.035 A  
HETATM    6  C   UNL     1      -8.382   7.045  67.266  1.00  0.00    -0.122 A  
HETATM    7  C   UNL     1      -7.079   7.563  67.293  1.00  0.00    -0.085 A  
HETATM    8  C   UNL     1      -6.551   5.989  69.065  1.00  0.00    -0.051 A  
BRANCH   4   9
HETATM    9  O   UNL     1     -10.030   5.446  68.086  1.00  0.00    -0.141 OA 
HETATM   10  C   UNL     1     -11.153   6.303  68.239  1.00  0.00    -0.269 C  
ENDBRANCH   4   9
BRANCH   7  11
HETATM   11  C   UNL     1      -6.643   8.564  66.224  1.00  0.00    -0.061 C  
BRANCH  11  12
HETATM   12  C   UNL     1      -7.566   8.364  65.015  1.00  0.00    -0.094 C  
BRANCH  12  13
HETATM   13  N   UNL     1      -8.437   9.419  64.486  1.00  0.00    -0.166 NA 
HETATM   14  C   UNL     1      -8.681   9.284  63.052  1.00  0.00    -0.196 C  
BRANCH  13  15
HETATM   15  C   UNL     1      -9.721   9.506  65.231  1.00  0.00    -0.198 C  
BRANCH  15  16
HETATM   16  C   UNL     1     -10.119  10.819  65.976  1.00  0.00    -0.305 C  
BRANCH  16  17
HETATM   17  C   UNL     1      -8.941  11.760  66.316  1.00  0.00    -0.176 C  
BRANCH  17  18
HETATM   18  C   UNL     1      -8.946  12.543  67.658  1.00  0.00    -0.185 C  
HETATM   19  N   UNL     1     -10.901  11.466  69.118  1.00  0.00    -0.223 NA 
HETATM   20  C   UNL     1      -7.593  12.288  68.480  1.00  0.00    -0.118 C  
HETATM   21  C   UNL     1     -10.050  11.949  68.491  1.00  0.00    -0.206 C  
HETATM   22  C   UNL     1      -6.291  12.772  67.820  1.00  0.00    -0.137 C  
HETATM   23  C   UNL     1      -7.363  10.801  68.828  1.00  0.00    -0.104 C  
BRANCH  18  24
HETATM   24  C   UNL     1      -9.196  14.020  67.332  1.00  0.00    -0.216 A  
HETATM   25  C   UNL     1     -10.043  14.411  66.281  1.00  0.00    -0.308 A  
HETATM   26  C   UNL     1     -10.128  15.740  65.854  1.00  0.00    -0.356 A  
HETATM   27  C   UNL     1      -8.464  15.029  67.984  1.00  0.00    -0.149 A  
HETATM   28  C   UNL     1      -9.372  16.721  66.516  1.00  0.00    -0.264 A  
HETATM   29  C   UNL     1      -8.568  16.358  67.591  1.00  0.00    -0.181 A  
BRANCH  26  30
HETATM   30  O   UNL     1     -10.892  16.153  64.793  1.00  0.00    -0.634 OA 
HETATM   31  C   UNL     1     -11.880  15.249  64.310  1.00  0.00    -0.225 C  
ENDBRANCH  26  30
BRANCH  28  32
HETATM   32  O   UNL     1      -9.455  18.001  66.023  1.00  0.00    -0.504 OA 
HETATM   33  C   UNL     1      -9.323  19.058  66.966  1.00  0.00    -0.309 C  
ENDBRANCH  28  32
ENDBRANCH  18  24
ENDBRANCH  17  18
ENDBRANCH  16  17
ENDBRANCH  15  16
ENDBRANCH  13  15
ENDBRANCH  12  13
ENDBRANCH  11  12
ENDBRANCH   7  11
ENDBRANCH   2   3
TORSDOF 12
ENDMDL
MODEL      261
REMARK 921   NORMALIZED FREE ENERGY PREDICTED BY IDOCK:   -3.35 KCAL/MOL
REMARK 922        TOTAL FREE ENERGY PREDICTED BY IDOCK:   -7.92 KCAL/MOL
REMARK 923 INTER-LIGAND FREE ENERGY PREDICTED BY IDOCK:   -6.55 KCAL/MOL
REMARK 924 INTRA-LIGAND FREE ENERGY PREDICTED BY IDOCK:   -1.37 KCAL/MOL
REMARK 927      BINDING AFFINITY PREDICTED BY RF-SCORE:    0.00 PKD
ROOT
HETATM    1  C   UNL     1     -11.250   1.701  73.097  1.00  0.00    -0.158 C  
HETATM    2  O   UNL     1     -10.075   2.374  73.538  1.00  0.00    -0.095 OA 
ENDROOT
BRANCH   2   3
HETATM    3  C   UNL     1      -9.943   3.686  73.149  1.00  0.00    -0.133 A  
HETATM    4  C   UNL     1      -8.860   4.259  72.461  1.00  0.00    -0.108 A  
HETATM    5  C   UNL     1     -10.997   5.875  73.304  1.00  0.00    -0.267 A  
HETATM    6  C   UNL     1      -8.872   5.639  72.196  1.00  0.00    -0.137 A  
HETATM    7  C   UNL     1      -9.934   6.459  72.605  1.00  0.00    -0.184 A  
HETATM    8  C   UNL     1     -10.995   4.503  73.577  1.00  0.00    -0.387 A  
BRANCH   4   9
HETATM    9  O   UNL     1      -7.811   3.445  72.128  1.00  0.00    -0.057 OA 
HETATM   10  C   UNL     1      -6.728   3.353  73.044  1.00  0.00    -0.034 C  
ENDBRANCH   4   9
BRANCH   7  11
HETATM   11  C   UNL     1      -9.822   7.974  72.443  1.00  0.00    -0.313 C  
BRANCH  11  12
HETATM   12  C   UNL     1      -8.338   8.336  72.585  1.00  0.00    -0.173 C  
BRANCH  12  13
HETATM   13  N   UNL     1      -7.631   9.212  71.645  1.00  0.00    -0.340 NA 
HETATM   14  C   UNL     1      -6.178   9.076  71.728  1.00  0.00    -0.065 C  
BRANCH  13  15
HETATM   15  C   UNL     1      -8.096   9.017  70.246  1.00  0.00    -0.136 C  
BRANCH  15  16
HETATM   16  C   UNL     1      -7.461   9.835  69.078  1.00  0.00    -0.080 C  
BRANCH  16  17
HETATM   17  C   UNL     1      -8.277   9.840  67.765  1.00  0.00    -0.114 C  
BRANCH  17  18
HETATM   18  C   UNL     1      -8.235  11.089  66.840  1.00  0.00    -0.140 C  
HETATM   19  N   UNL     1      -5.654  11.693  66.554  1.00  0.00    -0.251 NA 
HETATM   20  C   UNL     1      -8.769  10.735  65.370  1.00  0.00    -0.190 C  
HETATM   21  C   UNL     1      -6.782  11.445  66.675  1.00  0.00    -0.112 C  
HETATM   22  C   UNL     1     -10.238  10.294  65.264  1.00  0.00    -0.308 C  
HETATM   23  C   UNL     1      -7.944   9.631  64.672  1.00  0.00    -0.135 C  
BRANCH  18  24
HETATM   24  C   UNL     1      -9.031  12.203  67.529  1.00  0.00    -0.177 A  
HETATM   25  C   UNL     1     -10.163  11.924  68.315  1.00  0.00    -0.207 A  
HETATM   26  C   UNL     1     -11.004  12.936  68.788  1.00  0.00    -0.254 A  
HETATM   27  C   UNL     1      -8.739  13.554  67.271  1.00  0.00    -0.228 A  
HETATM   28  C   UNL     1     -10.692  14.275  68.499  1.00  0.00    -0.255 A  
HETATM   29  C   UNL     1      -9.547  14.571  67.766  1.00  0.00    -0.215 A  
BRANCH  26  30
HETATM   30  O   UNL     1     -12.151  12.704  69.503  1.00  0.00    -0.271 OA 
HETATM   31  C   UNL     1     -12.147  11.599  70.399  1.00  0.00    -0.373 C  
ENDBRANCH  26  30
BRANCH  28  32
HETATM   32  O   UNL     1     -11.579  15.225  68.945  1.00  0.00    -0.310 OA 
HETATM   33  C   UNL     1     -11.282  15.838  70.195  1.00  0.00    -0.349 C  
ENDBRANCH  28  32
ENDBRANCH  18  24
ENDBRANCH  17  18
ENDBRANCH  16  17
ENDBRANCH  15  16
ENDBRANCH  13  15
ENDBRANCH  12  13
ENDBRANCH  11  12
ENDBRANCH   7  11
ENDBRANCH   2   3
TORSDOF 12
ENDMDL
MODEL      262
REMARK 921   NORMALIZED FREE ENERGY PREDICTED BY IDOCK:   -3.33 KCAL/MOL
REMARK 922        TOTAL FREE ENERGY PREDICTED BY IDOCK:   -7.89 KCAL/MOL
REMARK 923 INTER-LIGAND FREE ENERGY PREDICTED BY IDOCK:   -6.09 KCAL/MOL
REMARK 924 INTRA-LIGAND FREE ENERGY PREDICTED BY IDOCK:   -1.80 KCAL/MOL
REMARK 927      BINDING AFFINITY PREDICTED BY RF-SCORE:    0.00 PKD
ROOT
HETATM    1  C   UNL     1      -8.675   3.932  69.974  1.00  0.00    -0.068 C  
HETATM    2  O   UNL     1      -9.849   3.970  69.168  1.00  0.00    -0.153 OA 
ENDROOT
BRANCH   2   3
HETATM    3  C   UNL     1     -10.058   5.124  68.452  1.00  0.00    -0.138 A  
HETATM    4  C   UNL     1      -9.685   5.373  67.121  1.00  0.00    -0.146 A  
HETATM    5  C   UNL     1     -10.883   7.407  68.642  1.00  0.00    -0.073 A  
HETATM    6  C   UNL     1      -9.931   6.642  66.567  1.00  0.00    -0.148 A  
HETATM    7  C   UNL     1     -10.534   7.666  67.312  1.00  0.00    -0.396 A  
HETATM    8  C   UNL     1     -10.640   6.149  69.205  1.00  0.00    -0.348 A  
BRANCH   4   9
HETATM    9  O   UNL     1      -9.044   4.373  66.438  1.00  0.00    -0.117 OA 
HETATM   10  C   UNL     1      -9.046   4.435  65.019  1.00  0.00    -0.150 C  
ENDBRANCH   4   9
BRANCH   7  11
HETATM   11  C   UNL     1     -10.625   9.072  66.722  1.00  0.00    -0.201 C  
BRANCH  11  12
HETATM   12  C   UNL     1      -9.564   9.170  65.618  1.00  0.00    -0.217 C  
BRANCH  12  13
HETATM   13  N   UNL     1      -9.477  10.299  64.686  1.00  0.00    -0.268 NA 
HETATM   14  C   UNL     1      -8.998   9.904  63.363  1.00  0.00    -0.256 C  
BRANCH  13  15
HETATM   15  C   UNL     1     -10.766  11.033  64.579  1.00  0.00    -0.264 C  
BRANCH  15  16
HETATM   16  C   UNL     1     -11.123  12.160  65.599  1.00  0.00    -0.360 C  
BRANCH  16  17
HETATM   17  C   UNL     1      -9.960  13.115  65.951  1.00  0.00    -0.275 C  
BRANCH  17  18
HETATM   18  C   UNL     1      -9.579  13.345  67.441  1.00  0.00    -0.223 C  
HETATM   19  N   UNL     1      -8.386  15.728  67.525  1.00  0.00    -0.159 NA 
HETATM   20  C   UNL     1     -10.889  13.477  68.356  1.00  0.00    -0.286 C  
HETATM   21  C   UNL     1      -8.899  14.685  67.502  1.00  0.00    -0.185 C  
HETATM   22  C   UNL     1     -11.796  12.238  68.434  1.00  0.00    -0.358 C  
HETATM   23  C   UNL     1     -11.807  14.648  67.942  1.00  0.00    -0.352 C  
BRANCH  18  24
HETATM   24  C   UNL     1      -8.649  12.202  67.863  1.00  0.00    -0.167 A  
HETATM   25  C   UNL     1      -7.481  11.896  67.144  1.00  0.00    -0.146 A  
HETATM   26  C   UNL     1      -6.731  10.745  67.404  1.00  0.00    -0.076 A  
HETATM   27  C   UNL     1      -9.019  11.326  68.900  1.00  0.00    -0.054 A  
HETATM   28  C   UNL     1      -7.136   9.883  68.436  1.00  0.00    -0.072 A  
HETATM   29  C   UNL     1      -8.261  10.198  69.191  1.00  0.00    -0.145 A  
BRANCH  26  30
HETATM   30  O   UNL     1      -5.622  10.377  66.685  1.00  0.00    -0.048 OA 
HETATM   31  C   UNL     1      -5.792  10.169  65.287  1.00  0.00    -0.105 C  
ENDBRANCH  26  30
BRANCH  28  32
HETATM   32  O   UNL     1      -6.392   8.741  68.615  1.00  0.00    -0.052 OA 
HETATM   33  C   UNL     1      -7.115   7.537  68.840  1.00  0.00    -0.080 C  
ENDBRANCH  28  32
ENDBRANCH  18  24
ENDBRANCH  17  18
ENDBRANCH  16  17
ENDBRANCH  15  16
ENDBRANCH  13  15
ENDBRANCH  12  13
ENDBRANCH  11  12
ENDBRANCH   7  11
ENDBRANCH   2   3
TORSDOF 12
ENDMDL
MODEL      263
REMARK 921   NORMALIZED FREE ENERGY PREDICTED BY IDOCK:   -3.32 KCAL/MOL
REMARK 922        TOTAL FREE ENERGY PREDICTED BY IDOCK:   -7.88 KCAL/MOL
REMARK 923 INTER-LIGAND FREE ENERGY PREDICTED BY IDOCK:   -6.33 KCAL/MOL
REMARK 924 INTRA-LIGAND FREE ENERGY PREDICTED BY IDOCK:   -1.54 KCAL/MOL
REMARK 927      BINDING AFFINITY PREDICTED BY RF-SCORE:    0.00 PKD
ROOT
HETATM    1  C   UNL     1      -6.464   5.974  65.982  1.00  0.00    -0.046 C  
HETATM    2  O   UNL     1      -5.982   6.816  64.939  1.00  0.00    -0.034 OA 
ENDROOT
BRANCH   2   3
HETATM    3  C   UNL     1      -6.907   7.643  64.349  1.00  0.00    -0.058 A  
HETATM    4  C   UNL     1      -7.509   7.478  63.091  1.00  0.00    -0.104 A  
HETATM    5  C   UNL     1      -8.069   9.766  64.619  1.00  0.00    -0.148 A  
HETATM    6  C   UNL     1      -8.396   8.463  62.621  1.00  0.00    -0.150 A  
HETATM    7  C   UNL     1      -8.690   9.608  63.375  1.00  0.00    -0.237 A  
HETATM    8  C   UNL     1      -7.181   8.795  65.095  1.00  0.00    -0.087 A  
BRANCH   4   9
HETATM    9  O   UNL     1      -7.156   6.380  62.352  1.00  0.00    -0.038 OA 
HETATM   10  C   UNL     1      -8.055   5.280  62.331  1.00  0.00    -0.091 C  
ENDBRANCH   4   9
BRANCH   7  11
HETATM   11  C   UNL     1      -9.525  10.726  62.752  1.00  0.00    -0.358 C  
BRANCH  11  12
HETATM   12  C   UNL     1     -10.736  10.950  63.668  1.00  0.00    -0.052 C  
BRANCH  12  13
HETATM   13  N   UNL     1     -11.416  12.243  63.798  1.00  0.00    -0.424 NA 
HETATM   14  C   UNL     1     -12.595  12.177  64.660  1.00  0.00    -0.175 C  
BRANCH  13  15
HETATM   15  C   UNL     1     -10.491  13.314  64.256  1.00  0.00    -0.352 C  
BRANCH  15  16
HETATM   16  C   UNL     1     -10.308  13.606  65.778  1.00  0.00    -0.304 C  
BRANCH  16  17
HETATM   17  C   UNL     1      -9.555  12.511  66.567  1.00  0.00    -0.242 C  
BRANCH  17  18
HETATM   18  C   UNL     1      -9.687  12.452  68.115  1.00  0.00    -0.214 C  
HETATM   19  N   UNL     1     -12.011  11.237  68.599  1.00  0.00    -0.537 NA 
HETATM   20  C   UNL     1      -8.557  11.509  68.754  1.00  0.00    -0.055 C  
HETATM   21  C   UNL     1     -10.998  11.773  68.402  1.00  0.00    -0.231 C  
HETATM   22  C   UNL     1      -7.100  11.963  68.563  1.00  0.00    -0.089 C  
HETATM   23  C   UNL     1      -8.617  10.054  68.242  1.00  0.00    -0.115 C  
BRANCH  18  24
HETATM   24  C   UNL     1      -9.651  13.892  68.639  1.00  0.00    -0.142 A  
HETATM   25  C   UNL     1     -10.684  14.413  69.437  1.00  0.00    -0.184 A  
HETATM   26  C   UNL     1     -10.757  15.772  69.759  1.00  0.00    -0.316 A  
HETATM   27  C   UNL     1      -8.652  14.784  68.208  1.00  0.00    -0.164 A  
HETATM   28  C   UNL     1      -9.752  16.639  69.301  1.00  0.00    -0.173 A  
HETATM   29  C   UNL     1      -8.695  16.130  68.552  1.00  0.00    -0.200 A  
BRANCH  26  30
HETATM   30  O   UNL     1     -11.780  16.331  70.482  1.00  0.00    -0.303 OA 
HETATM   31  C   UNL     1     -12.812  15.460  70.932  1.00  0.00    -0.476 C  
ENDBRANCH  26  30
BRANCH  28  32
HETATM   32  O   UNL     1      -9.900  17.971  69.604  1.00  0.00     0.148 OA 
HETATM   33  C   UNL     1      -9.646  18.897  68.554  1.00  0.00    -0.380 C  
ENDBRANCH  28  32
ENDBRANCH  18  24
ENDBRANCH  17  18
ENDBRANCH  16  17
ENDBRANCH  15  16
ENDBRANCH  13  15
ENDBRANCH  12  13
ENDBRANCH  11  12
ENDBRANCH   7  11
ENDBRANCH   2   3
TORSDOF 12
ENDMDL
MODEL      264
REMARK 921   NORMALIZED FREE ENERGY PREDICTED BY IDOCK:   -3.32 KCAL/MOL
REMARK 922        TOTAL FREE ENERGY PREDICTED BY IDOCK:   -7.87 KCAL/MOL
REMARK 923 INTER-LIGAND FREE ENERGY PREDICTED BY IDOCK:   -7.36 KCAL/MOL
REMARK 924 INTRA-LIGAND FREE ENERGY PREDICTED BY IDOCK:   -0.51 KCAL/MOL
REMARK 927      BINDING AFFINITY PREDICTED BY RF-SCORE:    0.00 PKD
ROOT
HETATM    1  C   UNL     1     -13.043   7.181  71.509  1.00  0.00    -0.375 C  
HETATM    2  O   UNL     1     -11.739   6.643  71.703  1.00  0.00    -0.284 OA 
ENDROOT
BRANCH   2   3
HETATM    3  C   UNL     1     -10.726   7.229  70.982  1.00  0.00    -0.231 A  
HETATM    4  C   UNL     1      -9.926   6.622  70.000  1.00  0.00    -0.172 A  
HETATM    5  C   UNL     1      -9.430   9.279  70.764  1.00  0.00    -0.336 A  
HETATM    6  C   UNL     1      -8.891   7.366  69.405  1.00  0.00    -0.137 A  
HETATM    7  C   UNL     1      -8.635   8.695  69.771  1.00  0.00    -0.131 A  
HETATM    8  C   UNL     1     -10.460   8.549  71.366  1.00  0.00    -0.305 A  
BRANCH   4   9
HETATM    9  O   UNL     1     -10.161   5.305  69.707  1.00  0.00    -0.248 OA 
HETATM   10  C   UNL     1      -9.856   4.855  68.394  1.00  0.00    -0.136 C  
ENDBRANCH   4   9
BRANCH   7  11
HETATM   11  C   UNL     1      -7.398   9.403  69.220  1.00  0.00    -0.071 C  
BRANCH  11  12
HETATM   12  C   UNL     1      -7.882  10.683  68.526  1.00  0.00    -0.115 C  
BRANCH  12  13
HETATM   13  N   UNL     1      -7.311  11.179  67.269  1.00  0.00    -0.111 NA 
HETATM   14  C   UNL     1      -7.964  10.613  66.090  1.00  0.00    -0.151 C  
BRANCH  13  15
HETATM   15  C   UNL     1      -7.314  12.665  67.206  1.00  0.00    -0.104 C  
BRANCH  15  16
HETATM   16  C   UNL     1      -8.650  13.463  67.338  1.00  0.00    -0.204 C  
BRANCH  16  17
HETATM   17  C   UNL     1      -9.334  13.816  65.998  1.00  0.00    -0.042 C  
BRANCH  17  18
HETATM   18  C   UNL     1     -10.762  14.430  66.004  1.00  0.00    -0.302 C  
HETATM   19  N   UNL     1     -10.627  16.593  64.450  1.00  0.00    -0.101 NA 
HETATM   20  C   UNL     1     -11.815  13.447  65.298  1.00  0.00    -0.373 C  
HETATM   21  C   UNL     1     -10.699  15.656  65.134  1.00  0.00    -0.443 C  
HETATM   22  C   UNL     1     -12.039  12.085  65.976  1.00  0.00     0.062 C  
HETATM   23  C   UNL     1     -11.466  13.136  63.827  1.00  0.00    -0.426 C  
BRANCH  18  24
HETATM   24  C   UNL     1     -11.116  14.766  67.457  1.00  0.00    -0.323 A  
HETATM   25  C   UNL     1     -10.694  15.963  68.061  1.00  0.00    -0.301 A  
HETATM   26  C   UNL     1     -10.846  16.193  69.433  1.00  0.00    -0.320 A  
HETATM   27  C   UNL     1     -11.750  13.814  68.276  1.00  0.00    -0.394 A  
HETATM   28  C   UNL     1     -11.469  15.215  70.226  1.00  0.00    -0.282 A  
HETATM   29  C   UNL     1     -11.938  14.047  69.633  1.00  0.00    -0.393 A  
BRANCH  26  30
HETATM   30  O   UNL     1     -10.392  17.318  70.073  1.00  0.00     0.106 OA 
HETATM   31  C   UNL     1      -9.899  18.376  69.259  1.00  0.00    -0.043 C  
ENDBRANCH  26  30
BRANCH  28  32
HETATM   32  O   UNL     1     -11.546  15.471  71.574  1.00  0.00    -0.345 OA 
HETATM   33  C   UNL     1     -12.578  14.805  72.292  1.00  0.00    -0.335 C  
ENDBRANCH  28  32
ENDBRANCH  18  24
ENDBRANCH  17  18
ENDBRANCH  16  17
ENDBRANCH  15  16
ENDBRANCH  13  15
ENDBRANCH  12  13
ENDBRANCH  11  12
ENDBRANCH   7  11
ENDBRANCH   2   3
TORSDOF 12
ENDMDL
MODEL      265
REMARK 921   NORMALIZED FREE ENERGY PREDICTED BY IDOCK:   -3.31 KCAL/MOL
REMARK 922        TOTAL FREE ENERGY PREDICTED BY IDOCK:   -7.86 KCAL/MOL
REMARK 923 INTER-LIGAND FREE ENERGY PREDICTED BY IDOCK:   -6.98 KCAL/MOL
REMARK 924 INTRA-LIGAND FREE ENERGY PREDICTED BY IDOCK:   -0.87 KCAL/MOL
REMARK 927      BINDING AFFINITY PREDICTED BY RF-SCORE:    0.00 PKD
ROOT
HETATM    1  C   UNL     1      -6.108  18.838  65.008  1.00  0.00    -0.262 C  
HETATM    2  O   UNL     1      -6.740  18.770  66.282  1.00  0.00    -0.197 OA 
ENDROOT
BRANCH   2   3
HETATM    3  C   UNL     1      -7.907  18.048  66.344  1.00  0.00    -0.269 A  
HETATM    4  C   UNL     1      -9.215  18.557  66.392  1.00  0.00    -0.277 A  
HETATM    5  C   UNL     1      -8.786  15.787  66.558  1.00  0.00    -0.354 A  
HETATM    6  C   UNL     1     -10.294  17.663  66.513  1.00  0.00    -0.337 A  
HETATM    7  C   UNL     1     -10.097  16.277  66.591  1.00  0.00    -0.283 A  
HETATM    8  C   UNL     1      -7.704  16.666  66.443  1.00  0.00    -0.328 A  
BRANCH   4   9
HETATM    9  O   UNL     1      -9.373  19.918  66.375  1.00  0.00    -0.367 OA 
HETATM   10  C   UNL     1      -9.902  20.537  67.539  1.00  0.00    -0.394 C  
ENDBRANCH   4   9
BRANCH   7  11
HETATM   11  C   UNL     1     -11.284  15.363  66.890  1.00  0.00    -0.214 C  
BRANCH  11  12
HETATM   12  C   UNL     1     -11.126  14.116  66.009  1.00  0.00    -0.314 C  
BRANCH  12  13
HETATM   13  N   UNL     1     -12.096  13.016  65.995  1.00  0.00    -0.432 NA 
HETATM   14  C   UNL     1     -12.636  12.756  64.662  1.00  0.00    -0.419 C  
BRANCH  13  15
HETATM   15  C   UNL     1     -11.533  11.771  66.584  1.00  0.00    -0.267 C  
BRANCH  15  16
HETATM   16  C   UNL     1     -10.009  11.457  66.466  1.00  0.00    -0.243 C  
BRANCH  16  17
HETATM   17  C   UNL     1      -9.265  11.314  67.814  1.00  0.00    -0.156 C  
BRANCH  17  18
HETATM   18  C   UNL     1      -8.395  10.054  68.082  1.00  0.00    -0.113 C  
HETATM   19  N   UNL     1      -6.283  10.912  69.464  1.00  0.00    -0.062 NA 
HETATM   20  C   UNL     1      -9.159   9.021  69.042  1.00  0.00    -0.143 C  
HETATM   21  C   UNL     1      -7.195  10.525  68.857  1.00  0.00    -0.086 C  
HETATM   22  C   UNL     1     -10.461   8.414  68.494  1.00  0.00    -0.201 C  
HETATM   23  C   UNL     1      -9.517   9.620  70.419  1.00  0.00    -0.280 C  
BRANCH  18  24
HETATM   24  C   UNL     1      -8.011   9.459  66.722  1.00  0.00    -0.108 A  
HETATM   25  C   UNL     1      -8.412   8.166  66.343  1.00  0.00    -0.133 A  
HETATM   26  C   UNL     1      -7.912   7.543  65.195  1.00  0.00    -0.128 A  
HETATM   27  C   UNL     1      -7.116  10.135  65.874  1.00  0.00    -0.121 A  
HETATM   28  C   UNL     1      -7.007   8.240  64.377  1.00  0.00    -0.073 A  
HETATM   29  C   UNL     1      -6.640   9.539  64.712  1.00  0.00    -0.088 A  
BRANCH  26  30
HETATM   30  O   UNL     1      -8.228   6.261  64.823  1.00  0.00    -0.137 OA 
HETATM   31  C   UNL     1      -7.901   5.219  65.735  1.00  0.00    -0.099 C  
ENDBRANCH  26  30
BRANCH  28  32
HETATM   32  O   UNL     1      -6.510   7.562  63.290  1.00  0.00    -0.053 OA 
HETATM   33  C   UNL     1      -5.151   7.812  62.950  1.00  0.00    -0.045 C  
ENDBRANCH  28  32
ENDBRANCH  18  24
ENDBRANCH  17  18
ENDBRANCH  16  17
ENDBRANCH  15  16
ENDBRANCH  13  15
ENDBRANCH  12  13
ENDBRANCH  11  12
ENDBRANCH   7  11
ENDBRANCH   2   3
TORSDOF 12
ENDMDL
MODEL      266
REMARK 921   NORMALIZED FREE ENERGY PREDICTED BY IDOCK:   -3.31 KCAL/MOL
REMARK 922        TOTAL FREE ENERGY PREDICTED BY IDOCK:   -7.85 KCAL/MOL
REMARK 923 INTER-LIGAND FREE ENERGY PREDICTED BY IDOCK:   -7.09 KCAL/MOL
REMARK 924 INTRA-LIGAND FREE ENERGY PREDICTED BY IDOCK:   -0.76 KCAL/MOL
REMARK 927      BINDING AFFINITY PREDICTED BY RF-SCORE:    0.00 PKD
ROOT
HETATM    1  C   UNL     1     -11.231  15.664  64.483  1.00  0.00    -0.325 C  
HETATM    2  O   UNL     1     -10.127  15.164  65.229  1.00  0.00    -0.348 OA 
ENDROOT
BRANCH   2   3
HETATM    3  C   UNL     1     -10.429  14.326  66.276  1.00  0.00    -0.291 A  
HETATM    4  C   UNL     1      -9.524  13.721  67.163  1.00  0.00    -0.244 A  
HETATM    5  C   UNL     1     -12.267  13.149  67.355  1.00  0.00    -0.195 A  
HETATM    6  C   UNL     1     -10.014  12.841  68.145  1.00  0.00    -0.229 A  
HETATM    7  C   UNL     1     -11.381  12.550  68.258  1.00  0.00    -0.331 A  
HETATM    8  C   UNL     1     -11.792  14.022  66.371  1.00  0.00    -0.437 A  
BRANCH   4   9
HETATM    9  O   UNL     1      -8.190  13.977  66.991  1.00  0.00    -0.158 OA 
HETATM   10  C   UNL     1      -7.370  14.022  68.150  1.00  0.00    -0.128 C  
ENDBRANCH   4   9
BRANCH   7  11
HETATM   11  C   UNL     1     -11.843  11.463  69.228  1.00  0.00    -0.417 C  
BRANCH  11  12
HETATM   12  C   UNL     1     -10.714  10.428  69.317  1.00  0.00    -0.237 C  
BRANCH  12  13
HETATM   13  N   UNL     1     -10.154   9.959  70.589  1.00  0.00    -0.176 NA 
HETATM   14  C   UNL     1     -11.159   9.352  71.459  1.00  0.00    -0.376 C  
BRANCH  13  15
HETATM   15  C   UNL     1      -9.010   9.031  70.384  1.00  0.00    -0.205 C  
BRANCH  15  16
HETATM   16  C   UNL     1      -9.007   8.027  69.188  1.00  0.00    -0.145 C  
BRANCH  16  17
HETATM   17  C   UNL     1      -8.224   6.718  69.437  1.00  0.00    -0.128 C  
BRANCH  17  18
HETATM   18  C   UNL     1      -8.926   5.349  69.213  1.00  0.00    -0.122 C  
HETATM   19  N   UNL     1      -7.579   3.592  70.699  1.00  0.00    -0.041 NA 
HETATM   20  C   UNL     1     -10.420   5.365  69.797  1.00  0.00    -0.378 C  
HETATM   21  C   UNL     1      -8.171   4.346  70.043  1.00  0.00    -0.062 C  
HETATM   22  C   UNL     1     -11.400   6.351  69.140  1.00  0.00    -0.366 C  
HETATM   23  C   UNL     1     -10.478   5.657  71.312  1.00  0.00    -0.299 C  
BRANCH  18  24
HETATM   24  C   UNL     1      -8.857   5.032  67.715  1.00  0.00    -0.106 A  
HETATM   25  C   UNL     1      -8.364   5.964  66.785  1.00  0.00    -0.109 A  
HETATM   26  C   UNL     1      -8.474   5.763  65.405  1.00  0.00    -0.151 A  
HETATM   27  C   UNL     1      -9.428   3.851  67.208  1.00  0.00    -0.235 A  
HETATM   28  C   UNL     1      -9.063   4.579  64.932  1.00  0.00    -0.152 A  
HETATM   29  C   UNL     1      -9.509   3.624  65.839  1.00  0.00    -0.163 A  
BRANCH  26  30
HETATM   30  O   UNL     1      -8.064   6.674  64.466  1.00  0.00    -0.122 OA 
HETATM   31  C   UNL     1      -7.112   7.649  64.876  1.00  0.00    -0.063 C  
ENDBRANCH  26  30
BRANCH  28  32
HETATM   32  O   UNL     1      -9.190   4.455  63.569  1.00  0.00    -0.145 OA 
HETATM   33  C   UNL     1     -10.346   3.775  63.095  1.00  0.00    -0.207 C  
ENDBRANCH  28  32
ENDBRANCH  18  24
ENDBRANCH  17  18
ENDBRANCH  16  17
ENDBRANCH  15  16
ENDBRANCH  13  15
ENDBRANCH  12  13
ENDBRANCH  11  12
ENDBRANCH   7  11
ENDBRANCH   2   3
TORSDOF 12
ENDMDL
MODEL      267
REMARK 921   NORMALIZED FREE ENERGY PREDICTED BY IDOCK:   -3.31 KCAL/MOL
REMARK 922        TOTAL FREE ENERGY PREDICTED BY IDOCK:   -7.85 KCAL/MOL
REMARK 923 INTER-LIGAND FREE ENERGY PREDICTED BY IDOCK:   -7.71 KCAL/MOL
REMARK 924 INTRA-LIGAND FREE ENERGY PREDICTED BY IDOCK:   -0.14 KCAL/MOL
REMARK 927      BINDING AFFINITY PREDICTED BY RF-SCORE:    0.00 PKD
ROOT
HETATM    1  C   UNL     1     -10.282  19.417  68.591  1.00  0.00    -0.371 C  
HETATM    2  O   UNL     1      -9.369  18.381  68.240  1.00  0.00    -0.304 OA 
ENDROOT
BRANCH   2   3
HETATM    3  C   UNL     1      -9.917  17.244  67.699  1.00  0.00    -0.297 A  
HETATM    4  C   UNL     1      -9.646  16.693  66.436  1.00  0.00    -0.285 A  
HETATM    5  C   UNL     1     -11.591  15.518  68.086  1.00  0.00    -0.313 A  
HETATM    6  C   UNL     1     -10.350  15.548  66.023  1.00  0.00    -0.342 A  
HETATM    7  C   UNL     1     -11.319  14.946  66.838  1.00  0.00    -0.338 A  
HETATM    8  C   UNL     1     -10.900  16.659  68.507  1.00  0.00    -0.356 A  
BRANCH   4   9
HETATM    9  O   UNL     1      -8.738  17.337  65.638  1.00  0.00    -0.473 OA 
HETATM   10  C   UNL     1      -7.363  17.233  65.982  1.00  0.00    -0.190 C  
ENDBRANCH   4   9
BRANCH   7  11
HETATM   11  C   UNL     1     -12.174  13.809  66.278  1.00  0.00    -0.489 C  
BRANCH  11  12
HETATM   12  C   UNL     1     -11.210  12.742  65.743  1.00  0.00    -0.307 C  
BRANCH  12  13
HETATM   13  N   UNL     1     -11.481  11.947  64.540  1.00  0.00    -0.317 NA 
HETATM   14  C   UNL     1     -12.144  12.719  63.491  1.00  0.00    -0.559 C  
BRANCH  13  15
HETATM   15  C   UNL     1     -10.251  11.297  64.014  1.00  0.00    -0.348 C  
BRANCH  15  16
HETATM   16  C   UNL     1      -9.214  10.655  64.990  1.00  0.00    -0.245 C  
BRANCH  16  17
HETATM   17  C   UNL     1      -9.290   9.116  65.103  1.00  0.00    -0.180 C  
BRANCH  17  18
HETATM   18  C   UNL     1      -8.073   8.325  65.659  1.00  0.00    -0.124 C  
HETATM   19  N   UNL     1      -7.671   6.318  63.950  1.00  0.00    -0.102 NA 
HETATM   20  C   UNL     1      -6.739   9.215  65.613  1.00  0.00    -0.072 C  
HETATM   21  C   UNL     1      -7.839   7.184  64.706  1.00  0.00    -0.126 C  
HETATM   22  C   UNL     1      -6.734  10.484  66.481  1.00  0.00    -0.105 C  
HETATM   23  C   UNL     1      -6.363   9.676  64.188  1.00  0.00    -0.109 C  
BRANCH  18  24
HETATM   24  C   UNL     1      -8.438   7.841  67.067  1.00  0.00    -0.124 A  
HETATM   25  C   UNL     1      -8.147   6.535  67.496  1.00  0.00    -0.121 A  
HETATM   26  C   UNL     1      -8.642   6.024  68.700  1.00  0.00    -0.112 A  
HETATM   27  C   UNL     1      -9.213   8.647  67.920  1.00  0.00    -0.148 A  
HETATM   28  C   UNL     1      -9.426   6.850  69.523  1.00  0.00    -0.146 A  
HETATM   29  C   UNL     1      -9.680   8.161  69.136  1.00  0.00    -0.163 A  
BRANCH  26  30
HETATM   30  O   UNL     1      -8.435   4.737  69.126  1.00  0.00    -0.080 OA 
HETATM   31  C   UNL     1      -7.534   3.937  68.369  1.00  0.00    -0.058 C  
ENDBRANCH  26  30
BRANCH  28  32
HETATM   32  O   UNL     1      -9.928   6.281  70.669  1.00  0.00    -0.182 OA 
HETATM   33  C   UNL     1     -10.722   7.118  71.502  1.00  0.00    -0.223 C  
ENDBRANCH  28  32
ENDBRANCH  18  24
ENDBRANCH  17  18
ENDBRANCH  16  17
ENDBRANCH  15  16
ENDBRANCH  13  15
ENDBRANCH  12  13
ENDBRANCH  11  12
ENDBRANCH   7  11
ENDBRANCH   2   3
TORSDOF 12
ENDMDL
MODEL      268
REMARK 921   NORMALIZED FREE ENERGY PREDICTED BY IDOCK:   -3.30 KCAL/MOL
REMARK 922        TOTAL FREE ENERGY PREDICTED BY IDOCK:   -7.83 KCAL/MOL
REMARK 923 INTER-LIGAND FREE ENERGY PREDICTED BY IDOCK:   -7.08 KCAL/MOL
REMARK 924 INTRA-LIGAND FREE ENERGY PREDICTED BY IDOCK:   -0.75 KCAL/MOL
REMARK 927      BINDING AFFINITY PREDICTED BY RF-SCORE:    0.00 PKD
ROOT
HETATM    1  C   UNL     1     -11.426   4.858  73.226  1.00  0.00    -0.274 C  
HETATM    2  O   UNL     1     -10.013   4.683  73.203  1.00  0.00    -0.143 OA 
ENDROOT
BRANCH   2   3
HETATM    3  C   UNL     1      -9.294   5.633  72.519  1.00  0.00    -0.142 A  
HETATM    4  C   UNL     1      -8.966   5.626  71.154  1.00  0.00    -0.138 A  
HETATM    5  C   UNL     1      -8.007   7.680  72.811  1.00  0.00    -0.140 A  
HETATM    6  C   UNL     1      -8.167   6.661  70.636  1.00  0.00    -0.124 A  
HETATM    7  C   UNL     1      -7.686   7.696  71.449  1.00  0.00    -0.081 A  
HETATM    8  C   UNL     1      -8.797   6.653  73.339  1.00  0.00    -0.138 A  
BRANCH   4   9
HETATM    9  O   UNL     1      -9.400   4.570  70.397  1.00  0.00    -0.120 OA 
HETATM   10  C   UNL     1      -9.694   4.812  69.029  1.00  0.00    -0.178 C  
ENDBRANCH   4   9
BRANCH   7  11
HETATM   11  C   UNL     1      -6.686   8.701  70.877  1.00  0.00    -0.052 C  
BRANCH  11  12
HETATM   12  C   UNL     1      -7.486   9.938  70.447  1.00  0.00    -0.122 C  
BRANCH  12  13
HETATM   13  N   UNL     1      -6.885  11.078  69.746  1.00  0.00    -0.136 NA 
HETATM   14  C   UNL     1      -5.773  11.673  70.484  1.00  0.00    -0.148 C  
BRANCH  13  15
HETATM   15  C   UNL     1      -6.466  10.722  68.364  1.00  0.00    -0.054 C  
BRANCH  15  16
HETATM   16  C   UNL     1      -7.356   9.794  67.479  1.00  0.00    -0.090 C  
BRANCH  16  17
HETATM   17  C   UNL     1      -7.991  10.478  66.247  1.00  0.00    -0.144 C  
BRANCH  17  18
HETATM   18  C   UNL     1      -9.478  10.195  65.893  1.00  0.00    -0.249 C  
HETATM   19  N   UNL     1      -9.573  10.041  63.233  1.00  0.00    -0.191 NA 
HETATM   20  C   UNL     1      -9.935   8.755  66.433  1.00  0.00    -0.346 C  
HETATM   21  C   UNL     1      -9.547  10.112  64.392  1.00  0.00    -0.302 C  
HETATM   22  C   UNL     1      -9.916   8.560  67.958  1.00  0.00    -0.221 C  
HETATM   23  C   UNL     1      -9.105   7.593  65.846  1.00  0.00    -0.101 C  
BRANCH  18  24
HETATM   24  C   UNL     1     -10.315  11.352  66.450  1.00  0.00    -0.284 A  
HETATM   25  C   UNL     1     -11.310  11.981  65.680  1.00  0.00    -0.381 A  
HETATM   26  C   UNL     1     -11.944  13.153  66.104  1.00  0.00    -0.422 A  
HETATM   27  C   UNL     1     -10.009  11.919  67.700  1.00  0.00    -0.197 A  
HETATM   28  C   UNL     1     -11.603  13.702  67.352  1.00  0.00    -0.356 A  
HETATM   29  C   UNL     1     -10.658  13.063  68.148  1.00  0.00    -0.257 A  
BRANCH  26  30
HETATM   30  O   UNL     1     -12.872  13.832  65.357  1.00  0.00    -0.650 OA 
HETATM   31  C   UNL     1     -12.382  14.701  64.342  1.00  0.00    -0.398 C  
ENDBRANCH  26  30
BRANCH  28  32
HETATM   32  O   UNL     1     -12.220  14.880  67.697  1.00  0.00    -0.159 OA 
HETATM   33  C   UNL     1     -11.388  15.905  68.229  1.00  0.00    -0.342 C  
ENDBRANCH  28  32
ENDBRANCH  18  24
ENDBRANCH  17  18
ENDBRANCH  16  17
ENDBRANCH  15  16
ENDBRANCH  13  15
ENDBRANCH  12  13
ENDBRANCH  11  12
ENDBRANCH   7  11
ENDBRANCH   2   3
TORSDOF 12
ENDMDL
MODEL      269
REMARK 921   NORMALIZED FREE ENERGY PREDICTED BY IDOCK:   -3.26 KCAL/MOL
REMARK 922        TOTAL FREE ENERGY PREDICTED BY IDOCK:   -7.77 KCAL/MOL
REMARK 923 INTER-LIGAND FREE ENERGY PREDICTED BY IDOCK:   -6.95 KCAL/MOL
REMARK 924 INTRA-LIGAND FREE ENERGY PREDICTED BY IDOCK:   -0.82 KCAL/MOL
REMARK 927      BINDING AFFINITY PREDICTED BY RF-SCORE:    0.00 PKD
ROOT
HETATM    1  C   UNL     1     -11.581   7.584  70.856  1.00  0.00    -0.286 C  
HETATM    2  O   UNL     1     -10.298   6.968  70.817  1.00  0.00    -0.205 OA 
ENDROOT
BRANCH   2   3
HETATM    3  C   UNL     1      -9.305   7.671  70.178  1.00  0.00    -0.157 A  
HETATM    4  C   UNL     1      -8.451   8.633  70.742  1.00  0.00    -0.158 A  
HETATM    5  C   UNL     1      -8.308   8.076  67.993  1.00  0.00    -0.126 A  
HETATM    6  C   UNL     1      -7.527   9.296  69.916  1.00  0.00    -0.085 A  
HETATM    7  C   UNL     1      -7.439   9.025  68.544  1.00  0.00    -0.085 A  
HETATM    8  C   UNL     1      -9.235   7.412  68.804  1.00  0.00    -0.144 A  
BRANCH   4   9
HETATM    9  O   UNL     1      -8.602   8.920  72.073  1.00  0.00    -0.367 OA 
HETATM   10  C   UNL     1      -7.883   8.126  73.006  1.00  0.00    -0.154 C  
ENDBRANCH   4   9
BRANCH   7  11
HETATM   11  C   UNL     1      -6.538   9.889  67.661  1.00  0.00    -0.068 C  
BRANCH  11  12
HETATM   12  C   UNL     1      -6.315  11.213  68.402  1.00  0.00    -0.049 C  
BRANCH  12  13
HETATM   13  N   UNL     1      -7.161  12.395  68.207  1.00  0.00    -0.094 NA 
HETATM   14  C   UNL     1      -6.433  13.648  68.396  1.00  0.00    -0.095 C  
BRANCH  13  15
HETATM   15  C   UNL     1      -7.842  12.379  66.885  1.00  0.00    -0.011 C  
BRANCH  15  16
HETATM   16  C   UNL     1      -9.362  12.719  66.772  1.00  0.00    -0.241 C  
BRANCH  16  17
HETATM   17  C   UNL     1      -9.713  13.803  65.727  1.00  0.00    -0.175 C  
BRANCH  17  18
HETATM   18  C   UNL     1     -10.615  15.001  66.138  1.00  0.00    -0.314 C  
HETATM   19  N   UNL     1     -12.239  15.427  64.066  1.00  0.00    -0.562 NA 
HETATM   20  C   UNL     1     -11.566  14.611  67.369  1.00  0.00    -0.408 C  
HETATM   21  C   UNL     1     -11.534  15.256  64.974  1.00  0.00    -0.300 C  
HETATM   22  C   UNL     1     -10.863  14.259  68.690  1.00  0.00    -0.265 C  
HETATM   23  C   UNL     1     -12.506  13.426  67.061  1.00  0.00    -0.071 C  
BRANCH  18  24
HETATM   24  C   UNL     1      -9.697  16.194  66.426  1.00  0.00    -0.308 A  
HETATM   25  C   UNL     1     -10.211  17.483  66.653  1.00  0.00    -0.332 A  
HETATM   26  C   UNL     1      -9.384  18.608  66.726  1.00  0.00    -0.308 A  
HETATM   27  C   UNL     1      -8.301  16.063  66.322  1.00  0.00    -0.287 A  
HETATM   28  C   UNL     1      -7.994  18.444  66.603  1.00  0.00    -0.258 A  
HETATM   29  C   UNL     1      -7.466  17.169  66.430  1.00  0.00    -0.341 A  
BRANCH  26  30
HETATM   30  O   UNL     1      -9.848  19.889  66.883  1.00  0.00    -0.358 OA 
HETATM   31  C   UNL     1     -10.755  20.377  65.900  1.00  0.00     0.157 C  
ENDBRANCH  26  30
BRANCH  28  32
HETATM   32  O   UNL     1      -7.233  19.588  66.633  1.00  0.00    -0.210 OA 
HETATM   33  C   UNL     1      -6.588  19.957  65.419  1.00  0.00    -0.280 C  
ENDBRANCH  28  32
ENDBRANCH  18  24
ENDBRANCH  17  18
ENDBRANCH  16  17
ENDBRANCH  15  16
ENDBRANCH  13  15
ENDBRANCH  12  13
ENDBRANCH  11  12
ENDBRANCH   7  11
ENDBRANCH   2   3
TORSDOF 12
ENDMDL
MODEL      270
REMARK 921   NORMALIZED FREE ENERGY PREDICTED BY IDOCK:   -3.25 KCAL/MOL
REMARK 922        TOTAL FREE ENERGY PREDICTED BY IDOCK:   -7.76 KCAL/MOL
REMARK 923 INTER-LIGAND FREE ENERGY PREDICTED BY IDOCK:   -6.91 KCAL/MOL
REMARK 924 INTRA-LIGAND FREE ENERGY PREDICTED BY IDOCK:   -0.85 KCAL/MOL
REMARK 927      BINDING AFFINITY PREDICTED BY RF-SCORE:    0.00 PKD
ROOT
HETATM    1  C   UNL     1     -10.405  18.215  66.160  1.00  0.00    -0.385 C  
HETATM    2  O   UNL     1     -10.562  16.933  65.561  1.00  0.00    -0.523 OA 
ENDROOT
BRANCH   2   3
HETATM    3  C   UNL     1      -9.950  15.883  66.202  1.00  0.00    -0.314 A  
HETATM    4  C   UNL     1     -10.517  14.636  66.515  1.00  0.00    -0.290 A  
HETATM    5  C   UNL     1      -7.899  15.229  67.339  1.00  0.00    -0.220 A  
HETATM    6  C   UNL     1      -9.753  13.697  67.230  1.00  0.00    -0.243 A  
HETATM    7  C   UNL     1      -8.443  13.976  67.644  1.00  0.00    -0.193 A  
HETATM    8  C   UNL     1      -8.650  16.173  66.631  1.00  0.00    -0.311 A  
BRANCH   4   9
HETATM    9  O   UNL     1     -11.819  14.416  66.151  1.00  0.00    -0.381 OA 
HETATM   10  C   UNL     1     -12.057  13.709  64.942  1.00  0.00    -0.397 C  
ENDBRANCH   4   9
BRANCH   7  11
HETATM   11  C   UNL     1      -7.716  12.993  68.561  1.00  0.00    -0.111 C  
BRANCH  11  12
HETATM   12  C   UNL     1      -7.545  11.686  67.776  1.00  0.00    -0.121 C  
BRANCH  12  13
HETATM   13  N   UNL     1      -7.022  10.453  68.375  1.00  0.00    -0.068 NA 
HETATM   14  C   UNL     1      -5.593  10.268  68.132  1.00  0.00    -0.037 C  
BRANCH  13  15
HETATM   15  C   UNL     1      -7.321  10.371  69.830  1.00  0.00    -0.154 C  
BRANCH  15  16
HETATM   16  C   UNL     1      -7.506   8.985  70.524  1.00  0.00    -0.099 C  
BRANCH  16  17
HETATM   17  C   UNL     1      -8.674   8.911  71.534  1.00  0.00    -0.232 C  
BRANCH  17  18
HETATM   18  C   UNL     1      -9.858   7.940  71.268  1.00  0.00    -0.198 C  
HETATM   19  N   UNL     1     -10.930   7.434  73.657  1.00  0.00    -0.244 NA 
HETATM   20  C   UNL     1     -11.010   8.656  70.412  1.00  0.00    -0.256 C  
HETATM   21  C   UNL     1     -10.469   7.641  72.610  1.00  0.00    -0.287 C  
HETATM   22  C   UNL     1     -10.627   9.106  68.993  1.00  0.00    -0.219 C  
HETATM   23  C   UNL     1     -11.599   9.903  71.107  1.00  0.00    -0.468 C  
BRANCH  18  24
HETATM   24  C   UNL     1      -9.287   6.685  70.598  1.00  0.00    -0.164 A  
HETATM   25  C   UNL     1      -9.806   6.194  69.387  1.00  0.00    -0.191 A  
HETATM   26  C   UNL     1      -9.424   4.952  68.868  1.00  0.00    -0.143 A  
HETATM   27  C   UNL     1      -8.321   5.901  71.255  1.00  0.00    -0.124 A  
HETATM   28  C   UNL     1      -8.469   4.187  69.557  1.00  0.00    -0.068 A  
HETATM   29  C   UNL     1      -7.908   4.682  70.730  1.00  0.00    -0.072 A  
BRANCH  26  30
HETATM   30  O   UNL     1      -9.952   4.408  67.725  1.00  0.00    -0.130 OA 
HETATM   31  C   UNL     1      -9.567   4.994  66.487  1.00  0.00    -0.161 C  
ENDBRANCH  26  30
BRANCH  28  32
HETATM   32  O   UNL     1      -8.168   2.954  69.029  1.00  0.00    -0.058 OA 
HETATM   33  C   UNL     1      -8.448   1.824  69.847  1.00  0.00    -0.047 C  
ENDBRANCH  28  32
ENDBRANCH  18  24
ENDBRANCH  17  18
ENDBRANCH  16  17
ENDBRANCH  15  16
ENDBRANCH  13  15
ENDBRANCH  12  13
ENDBRANCH  11  12
ENDBRANCH   7  11
ENDBRANCH   2   3
TORSDOF 12
ENDMDL
MODEL      271
REMARK 921   NORMALIZED FREE ENERGY PREDICTED BY IDOCK:   -3.23 KCAL/MOL
REMARK 922        TOTAL FREE ENERGY PREDICTED BY IDOCK:   -7.72 KCAL/MOL
REMARK 923 INTER-LIGAND FREE ENERGY PREDICTED BY IDOCK:   -7.26 KCAL/MOL
REMARK 924 INTRA-LIGAND FREE ENERGY PREDICTED BY IDOCK:   -0.47 KCAL/MOL
REMARK 927      BINDING AFFINITY PREDICTED BY RF-SCORE:    0.00 PKD
ROOT
HETATM    1  C   UNL     1     -11.348  15.786  65.376  1.00  0.00    -0.032 C  
HETATM    2  O   UNL     1     -10.563  15.733  66.563  1.00  0.00    -0.306 OA 
ENDROOT
BRANCH   2   3
HETATM    3  C   UNL     1     -10.972  14.839  67.523  1.00  0.00    -0.304 A  
HETATM    4  C   UNL     1     -11.063  13.443  67.394  1.00  0.00    -0.278 A  
HETATM    5  C   UNL     1     -11.892  14.686  69.772  1.00  0.00    -0.366 A  
HETATM    6  C   UNL     1     -11.560  12.688  68.471  1.00  0.00    -0.363 A  
HETATM    7  C   UNL     1     -11.972  13.293  69.666  1.00  0.00    -0.376 A  
HETATM    8  C   UNL     1     -11.402  15.449  68.706  1.00  0.00    -0.328 A  
BRANCH   4   9
HETATM    9  O   UNL     1     -10.710  12.887  66.194  1.00  0.00    -0.268 OA 
HETATM   10  C   UNL     1     -10.563  11.475  66.136  1.00  0.00    -0.266 C  
ENDBRANCH   4   9
BRANCH   7  11
HETATM   11  C   UNL     1     -12.661  12.450  70.739  1.00  0.00    -0.298 C  
BRANCH  11  12
HETATM   12  C   UNL     1     -12.259  10.990  70.493  1.00  0.00    -0.381 C  
BRANCH  12  13
HETATM   13  N   UNL     1     -12.058  10.019  71.575  1.00  0.00    -0.395 NA 
HETATM   14  C   UNL     1     -13.046   8.942  71.558  1.00  0.00    -0.329 C  
BRANCH  13  15
HETATM   15  C   UNL     1     -10.678   9.465  71.576  1.00  0.00    -0.297 C  
BRANCH  15  16
HETATM   16  C   UNL     1     -10.155   8.638  70.359  1.00  0.00    -0.213 C  
BRANCH  16  17
HETATM   17  C   UNL     1      -8.914   7.764  70.649  1.00  0.00    -0.145 C  
BRANCH  17  18
HETATM   18  C   UNL     1      -8.963   6.238  70.353  1.00  0.00    -0.154 C  
HETATM   19  N   UNL     1      -7.624   5.071  72.342  1.00  0.00    -0.093 NA 
HETATM   20  C   UNL     1     -10.464   5.681  70.447  1.00  0.00    -0.355 C  
HETATM   21  C   UNL     1      -8.205   5.567  71.466  1.00  0.00    -0.119 C  
HETATM   22  C   UNL     1     -11.468   6.247  69.430  1.00  0.00    -0.348 C  
HETATM   23  C   UNL     1     -11.105   5.890  71.836  1.00  0.00    -0.325 C  
BRANCH  18  24
HETATM   24  C   UNL     1      -8.309   6.010  68.985  1.00  0.00    -0.111 A  
HETATM   25  C   UNL     1      -7.793   7.075  68.227  1.00  0.00    -0.118 A  
HETATM   26  C   UNL     1      -7.370   6.906  66.905  1.00  0.00    -0.082 A  
HETATM   27  C   UNL     1      -8.342   4.740  68.381  1.00  0.00    -0.090 A  
HETATM   28  C   UNL     1      -7.431   5.627  66.326  1.00  0.00    -0.083 A  
HETATM   29  C   UNL     1      -7.891   4.553  67.080  1.00  0.00    -0.098 A  
BRANCH  26  30
HETATM   30  O   UNL     1      -6.920   7.929  66.110  1.00  0.00    -0.060 OA 
HETATM   31  C   UNL     1      -7.778   9.053  65.948  1.00  0.00    -0.094 C  
ENDBRANCH  26  30
BRANCH  28  32
HETATM   32  O   UNL     1      -7.050   5.528  65.009  1.00  0.00    -0.058 OA 
HETATM   33  C   UNL     1      -8.095   5.417  64.049  1.00  0.00    -0.123 C  
ENDBRANCH  28  32
ENDBRANCH  18  24
ENDBRANCH  17  18
ENDBRANCH  16  17
ENDBRANCH  15  16
ENDBRANCH  13  15
ENDBRANCH  12  13
ENDBRANCH  11  12
ENDBRANCH   7  11
ENDBRANCH   2   3
TORSDOF 12
ENDMDL
MODEL      272
REMARK 921   NORMALIZED FREE ENERGY PREDICTED BY IDOCK:   -3.23 KCAL/MOL
REMARK 922        TOTAL FREE ENERGY PREDICTED BY IDOCK:   -7.72 KCAL/MOL
REMARK 923 INTER-LIGAND FREE ENERGY PREDICTED BY IDOCK:   -5.55 KCAL/MOL
REMARK 924 INTRA-LIGAND FREE ENERGY PREDICTED BY IDOCK:   -2.18 KCAL/MOL
REMARK 927      BINDING AFFINITY PREDICTED BY RF-SCORE:    0.00 PKD
ROOT
HETATM    1  C   UNL     1     -13.440   7.301  71.505  1.00  0.00    -0.363 C  
HETATM    2  O   UNL     1     -12.263   6.718  72.054  1.00  0.00    -0.321 OA 
ENDROOT
BRANCH   2   3
HETATM    3  C   UNL     1     -11.207   6.552  71.191  1.00  0.00    -0.302 A  
HETATM    4  C   UNL     1      -9.878   6.243  71.528  1.00  0.00    -0.173 A  
HETATM    5  C   UNL     1     -10.566   6.723  68.848  1.00  0.00    -0.257 A  
HETATM    6  C   UNL     1      -8.913   6.169  70.509  1.00  0.00    -0.148 A  
HETATM    7  C   UNL     1      -9.241   6.399  69.166  1.00  0.00    -0.133 A  
HETATM    8  C   UNL     1     -11.535   6.804  69.854  1.00  0.00    -0.355 A  
BRANCH   4   9
HETATM    9  O   UNL     1      -9.576   6.083  72.855  1.00  0.00    -0.155 OA 
HETATM   10  C   UNL     1      -8.206   5.960  73.210  1.00  0.00    -0.116 C  
ENDBRANCH   4   9
BRANCH   7  11
HETATM   11  C   UNL     1      -8.130   6.472  68.120  1.00  0.00    -0.113 C  
BRANCH  11  12
HETATM   12  C   UNL     1      -8.540   5.556  66.960  1.00  0.00    -0.109 C  
BRANCH  12  13
HETATM   13  N   UNL     1      -8.477   5.966  65.553  1.00  0.00    -0.151 NA 
HETATM   14  C   UNL     1      -8.657   4.846  64.630  1.00  0.00    -0.149 C  
BRANCH  13  15
HETATM   15  C   UNL     1      -9.442   7.056  65.247  1.00  0.00     0.985 C  
BRANCH  15  16
HETATM   16  C   UNL     1      -9.070   8.546  65.529  1.00  0.00    -0.150 C  
BRANCH  16  17
HETATM   17  C   UNL     1     -10.196   9.391  66.165  1.00  0.00    -0.264 C  
BRANCH  17  18
HETATM   18  C   UNL     1      -9.929  10.879  66.528  1.00  0.00    -0.255 C  
HETATM   19  N   UNL     1      -7.284  11.096  66.790  1.00  0.00    -0.139 NA 
HETATM   20  C   UNL     1     -10.331  11.849  65.317  1.00  0.00    -0.316 C  
HETATM   21  C   UNL     1      -8.438  11.014  66.685  1.00  0.00    -0.153 C  
HETATM   22  C   UNL     1     -11.817  11.868  64.921  1.00  0.00    -0.236 C  
HETATM   23  C   UNL     1      -9.551  11.557  64.017  1.00  0.00    -0.189 C  
BRANCH  18  24
HETATM   24  C   UNL     1     -10.679  11.180  67.831  1.00  0.00    -0.261 A  
HETATM   25  C   UNL     1     -10.805  12.490  68.324  1.00  0.00    -0.258 A  
HETATM   26  C   UNL     1     -11.317  12.756  69.598  1.00  0.00    -0.099 A  
HETATM   27  C   UNL     1     -11.136  10.133  68.650  1.00  0.00    -0.254 A  
HETATM   28  C   UNL     1     -11.750  11.686  70.398  1.00  0.00    -0.199 A  
HETATM   29  C   UNL     1     -11.680  10.387  69.904  1.00  0.00    -0.341 A  
BRANCH  26  30
HETATM   30  O   UNL     1     -11.398  14.013  70.141  1.00  0.00    -0.178 OA 
HETATM   31  C   UNL     1     -11.391  15.114  69.240  1.00  0.00    -0.300 C  
ENDBRANCH  26  30
BRANCH  28  32
HETATM   32  O   UNL     1     -12.197  11.999  71.659  1.00  0.00     0.098 OA 
HETATM   33  C   UNL     1     -13.469  11.482  72.032  1.00  0.00    -0.193 C  
ENDBRANCH  28  32
ENDBRANCH  18  24
ENDBRANCH  17  18
ENDBRANCH  16  17
ENDBRANCH  15  16
ENDBRANCH  13  15
ENDBRANCH  12  13
ENDBRANCH  11  12
ENDBRANCH   7  11
ENDBRANCH   2   3
TORSDOF 12
ENDMDL
MODEL      273
REMARK 921   NORMALIZED FREE ENERGY PREDICTED BY IDOCK:   -3.16 KCAL/MOL
REMARK 922        TOTAL FREE ENERGY PREDICTED BY IDOCK:   -7.61 KCAL/MOL
REMARK 923 INTER-LIGAND FREE ENERGY PREDICTED BY IDOCK:   -5.83 KCAL/MOL
REMARK 924 INTRA-LIGAND FREE ENERGY PREDICTED BY IDOCK:   -1.78 KCAL/MOL
REMARK 927      BINDING AFFINITY PREDICTED BY RF-SCORE:    0.00 PKD
ROOT
HETATM    1  C   UNL     1     -11.727   5.022  72.743  1.00  0.00    -0.059 C  
HETATM    2  O   UNL     1     -11.351   6.207  73.438  1.00  0.00    -0.060 OA 
ENDROOT
BRANCH   2   3
HETATM    3  C   UNL     1     -11.168   7.331  72.669  1.00  0.00    -0.313 A  
HETATM    4  C   UNL     1     -10.029   8.152  72.629  1.00  0.00    -0.301 A  
HETATM    5  C   UNL     1     -12.298   8.833  71.121  1.00  0.00    -0.258 A  
HETATM    6  C   UNL     1     -10.042   9.302  71.820  1.00  0.00    -0.129 A  
HETATM    7  C   UNL     1     -11.165   9.652  71.057  1.00  0.00    -0.445 A  
HETATM    8  C   UNL     1     -12.299   7.688  71.926  1.00  0.00    -0.337 A  
BRANCH   4   9
HETATM    9  O   UNL     1      -8.971   7.817  73.432  1.00  0.00    -0.201 OA 
HETATM   10  C   UNL     1      -8.221   6.660  73.089  1.00  0.00    -0.112 C  
ENDBRANCH   4   9
BRANCH   7  11
HETATM   11  C   UNL     1     -11.191  10.995  70.329  1.00  0.00    -0.199 C  
BRANCH  11  12
HETATM   12  C   UNL     1     -12.151  10.846  69.141  1.00  0.00    -0.221 C  
BRANCH  12  13
HETATM   13  N   UNL     1     -11.696  10.671  67.758  1.00  0.00    -0.426 NA 
HETATM   14  C   UNL     1     -11.492  11.941  67.065  1.00  0.00    -0.316 C  
BRANCH  13  15
HETATM   15  C   UNL     1     -10.473   9.828  67.678  1.00  0.00    -0.251 C  
BRANCH  15  16
HETATM   16  C   UNL     1     -10.586   8.282  67.496  1.00  0.00    -0.291 C  
BRANCH  16  17
HETATM   17  C   UNL     1      -9.508   7.650  66.586  1.00  0.00    -0.255 C  
BRANCH  17  18
HETATM   18  C   UNL     1      -8.107   7.318  67.172  1.00  0.00    -0.114 C  
HETATM   19  N   UNL     1      -8.538   6.551  69.689  1.00  0.00    -0.131 NA 
HETATM   20  C   UNL     1      -7.459   6.051  66.431  1.00  0.00    -0.086 C  
HETATM   21  C   UNL     1      -8.335   6.888  68.596  1.00  0.00    -0.121 C  
HETATM   22  C   UNL     1      -7.160   6.216  64.932  1.00  0.00    -0.060 C  
HETATM   23  C   UNL     1      -8.313   4.771  66.555  1.00  0.00    -0.107 C  
BRANCH  18  24
HETATM   24  C   UNL     1      -7.252   8.587  67.077  1.00  0.00    -0.079 A  
HETATM   25  C   UNL     1      -6.556   9.091  68.189  1.00  0.00    -0.060 A  
HETATM   26  C   UNL     1      -5.933  10.343  68.166  1.00  0.00    -0.044 A  
HETATM   27  C   UNL     1      -7.261   9.368  65.908  1.00  0.00    -0.092 A  
HETATM   28  C   UNL     1      -5.973  11.106  66.987  1.00  0.00    -0.091 A  
HETATM   29  C   UNL     1      -6.615  10.598  65.862  1.00  0.00    -0.118 A  
BRANCH  26  30
HETATM   30  O   UNL     1      -5.298  10.900  69.247  1.00  0.00    -0.041 OA 
HETATM   31  C   UNL     1      -5.995  10.891  70.487  1.00  0.00    -0.121 C  
ENDBRANCH  26  30
BRANCH  28  32
HETATM   32  O   UNL     1      -5.388  12.349  67.036  1.00  0.00    -0.300 OA 
HETATM   33  C   UNL     1      -6.194  13.415  67.521  1.00  0.00    -0.085 C  
ENDBRANCH  28  32
ENDBRANCH  18  24
ENDBRANCH  17  18
ENDBRANCH  16  17
ENDBRANCH  15  16
ENDBRANCH  13  15
ENDBRANCH  12  13
ENDBRANCH  11  12
ENDBRANCH   7  11
ENDBRANCH   2   3
TORSDOF 12
ENDMDL
MODEL      274
REMARK 921   NORMALIZED FREE ENERGY PREDICTED BY IDOCK:   -3.15 KCAL/MOL
REMARK 922        TOTAL FREE ENERGY PREDICTED BY IDOCK:   -7.58 KCAL/MOL
REMARK 923 INTER-LIGAND FREE ENERGY PREDICTED BY IDOCK:   -6.14 KCAL/MOL
REMARK 924 INTRA-LIGAND FREE ENERGY PREDICTED BY IDOCK:   -1.44 KCAL/MOL
REMARK 927      BINDING AFFINITY PREDICTED BY RF-SCORE:    0.00 PKD
ROOT
HETATM    1  C   UNL     1      -7.222  14.008  68.628  1.00  0.00    -0.114 C  
HETATM    2  O   UNL     1      -5.864  13.599  68.759  1.00  0.00    -0.078 OA 
ENDROOT
BRANCH   2   3
HETATM    3  C   UNL     1      -5.654  12.280  69.082  1.00  0.00    -0.066 A  
HETATM    4  C   UNL     1      -5.406  11.221  68.195  1.00  0.00    -0.042 A  
HETATM    5  C   UNL     1      -5.649  10.713  70.946  1.00  0.00    -0.098 A  
HETATM    6  C   UNL     1      -5.272   9.917  68.705  1.00  0.00    -0.036 A  
HETATM    7  C   UNL     1      -5.385   9.649  70.076  1.00  0.00    -0.032 A  
HETATM    8  C   UNL     1      -5.788  12.014  70.450  1.00  0.00    -0.157 A  
BRANCH   4   9
HETATM    9  O   UNL     1      -5.361  11.505  66.856  1.00  0.00    -0.090 OA 
HETATM   10  C   UNL     1      -6.403  10.994  66.036  1.00  0.00    -0.060 C  
ENDBRANCH   4   9
BRANCH   7  11
HETATM   11  C   UNL     1      -5.400   8.199  70.562  1.00  0.00    -0.022 C  
BRANCH  11  12
HETATM   12  C   UNL     1      -5.787   7.325  69.362  1.00  0.00    -0.026 C  
BRANCH  12  13
HETATM   13  N   UNL     1      -6.465   6.032  69.497  1.00  0.00    -0.041 NA 
HETATM   14  C   UNL     1      -7.164   5.891  70.773  1.00  0.00    -0.080 C  
BRANCH  13  15
HETATM   15  C   UNL     1      -7.388   5.766  68.362  1.00  0.00    -0.080 C  
BRANCH  15  16
HETATM   16  C   UNL     1      -7.795   6.914  67.385  1.00  0.00    -0.111 C  
BRANCH  16  17
HETATM   17  C   UNL     1      -8.392   8.168  68.064  1.00  0.00    -0.129 C  
BRANCH  17  18
HETATM   18  C   UNL     1      -9.892   8.516  67.851  1.00  0.00    -0.208 C  
HETATM   19  N   UNL     1     -11.013   6.309  66.860  1.00  0.00    -0.365 NA 
HETATM   20  C   UNL     1     -10.624   8.790  69.252  1.00  0.00    -0.210 C  
HETATM   21  C   UNL     1     -10.536   7.279  67.286  1.00  0.00    -0.325 C  
HETATM   22  C   UNL     1     -10.117   9.993  70.063  1.00  0.00    -0.289 C  
HETATM   23  C   UNL     1     -10.574   7.581  70.212  1.00  0.00    -0.235 C  
BRANCH  18  24
HETATM   24  C   UNL     1      -9.960   9.701  66.882  1.00  0.00    -0.272 A  
HETATM   25  C   UNL     1     -10.372  10.977  67.304  1.00  0.00    -0.249 A  
HETATM   26  C   UNL     1     -10.621  12.012  66.397  1.00  0.00    -0.243 A  
HETATM   27  C   UNL     1      -9.755   9.509  65.504  1.00  0.00    -0.344 A  
HETATM   28  C   UNL     1     -10.421  11.783  65.025  1.00  0.00    -0.285 A  
HETATM   29  C   UNL     1      -9.964  10.541  64.596  1.00  0.00    -0.415 A  
BRANCH  26  30
HETATM   30  O   UNL     1     -11.085  13.251  66.760  1.00  0.00    -0.283 OA 
HETATM   31  C   UNL     1     -12.068  13.302  67.788  1.00  0.00    -0.237 C  
ENDBRANCH  26  30
BRANCH  28  32
HETATM   32  O   UNL     1     -10.729  12.818  64.175  1.00  0.00    -0.362 OA 
HETATM   33  C   UNL     1     -11.962  12.722  63.472  1.00  0.00    -0.555 C  
ENDBRANCH  28  32
ENDBRANCH  18  24
ENDBRANCH  17  18
ENDBRANCH  16  17
ENDBRANCH  15  16
ENDBRANCH  13  15
ENDBRANCH  12  13
ENDBRANCH  11  12
ENDBRANCH   7  11
ENDBRANCH   2   3
TORSDOF 12
ENDMDL
MODEL      275
REMARK 921   NORMALIZED FREE ENERGY PREDICTED BY IDOCK:   -3.14 KCAL/MOL
REMARK 922        TOTAL FREE ENERGY PREDICTED BY IDOCK:   -7.57 KCAL/MOL
REMARK 923 INTER-LIGAND FREE ENERGY PREDICTED BY IDOCK:   -6.12 KCAL/MOL
REMARK 924 INTRA-LIGAND FREE ENERGY PREDICTED BY IDOCK:   -1.45 KCAL/MOL
REMARK 927      BINDING AFFINITY PREDICTED BY RF-SCORE:    0.00 PKD
ROOT
HETATM    1  C   UNL     1     -10.138  20.459  67.591  1.00  0.00    -0.336 C  
HETATM    2  O   UNL     1      -8.885  19.787  67.505  1.00  0.00    -0.307 OA 
ENDROOT
BRANCH   2   3
HETATM    3  C   UNL     1      -8.923  18.416  67.586  1.00  0.00    -0.274 A  
HETATM    4  C   UNL     1      -7.837  17.550  67.794  1.00  0.00    -0.207 A  
HETATM    5  C   UNL     1     -10.403  16.496  67.355  1.00  0.00    -0.290 A  
HETATM    6  C   UNL     1      -8.058  16.162  67.789  1.00  0.00    -0.157 A  
HETATM    7  C   UNL     1      -9.334  15.620  67.578  1.00  0.00    -0.206 A  
HETATM    8  C   UNL     1     -10.195  17.879  67.353  1.00  0.00    -0.363 A  
BRANCH   4   9
HETATM    9  O   UNL     1      -6.594  18.107  67.937  1.00  0.00    -0.189 OA 
HETATM   10  C   UNL     1      -6.022  18.122  69.238  1.00  0.00    -0.235 C  
ENDBRANCH   4   9
BRANCH   7  11
HETATM   11  C   UNL     1      -9.493  14.109  67.415  1.00  0.00    -0.220 C  
BRANCH  11  12
HETATM   12  C   UNL     1     -10.947  13.850  66.998  1.00  0.00    -0.295 C  
BRANCH  12  13
HETATM   13  N   UNL     1     -11.343  12.758  66.103  1.00  0.00    -0.312 NA 
HETATM   14  C   UNL     1     -10.708  12.846  64.789  1.00  0.00    -0.333 C  
BRANCH  13  15
HETATM   15  C   UNL     1     -11.102  11.423  66.713  1.00  0.00    -0.281 C  
BRANCH  15  16
HETATM   16  C   UNL     1      -9.783  10.642  66.416  1.00  0.00    -0.241 C  
BRANCH  16  17
HETATM   17  C   UNL     1      -8.900  10.358  67.652  1.00  0.00    -0.124 C  
BRANCH  17  18
HETATM   18  C   UNL     1      -7.719   9.354  67.537  1.00  0.00    -0.091 C  
HETATM   19  N   UNL     1      -8.203   7.913  65.347  1.00  0.00    -0.133 NA 
HETATM   20  C   UNL     1      -6.336  10.119  67.263  1.00  0.00    -0.066 C  
HETATM   21  C   UNL     1      -7.983   8.529  66.307  1.00  0.00    -0.102 C  
HETATM   22  C   UNL     1      -5.853  11.073  68.367  1.00  0.00    -0.042 C  
HETATM   23  C   UNL     1      -6.348  10.949  65.961  1.00  0.00    -0.102 C  
BRANCH  18  24
HETATM   24  C   UNL     1      -7.707   8.505  68.814  1.00  0.00    -0.102 A  
HETATM   25  C   UNL     1      -8.657   8.691  69.833  1.00  0.00    -0.131 A  
HETATM   26  C   UNL     1      -8.542   8.060  71.076  1.00  0.00    -0.133 A  
HETATM   27  C   UNL     1      -6.649   7.613  69.068  1.00  0.00    -0.048 A  
HETATM   28  C   UNL     1      -7.465   7.187  71.303  1.00  0.00    -0.080 A  
HETATM   29  C   UNL     1      -6.545   6.953  70.287  1.00  0.00    -0.048 A  
BRANCH  26  30
HETATM   30  O   UNL     1      -9.411   8.263  72.118  1.00  0.00    -0.185 OA 
HETATM   31  C   UNL     1     -10.776   8.498  71.792  1.00  0.00    -0.303 C  
ENDBRANCH  26  30
BRANCH  28  32
HETATM   32  O   UNL     1      -7.374   6.634  72.558  1.00  0.00    -0.086 OA 
HETATM   33  C   UNL     1      -7.754   5.268  72.682  1.00  0.00    -0.098 C  
ENDBRANCH  28  32
ENDBRANCH  18  24
ENDBRANCH  17  18
ENDBRANCH  16  17
ENDBRANCH  15  16
ENDBRANCH  13  15
ENDBRANCH  12  13
ENDBRANCH  11  12
ENDBRANCH   7  11
ENDBRANCH   2   3
TORSDOF 12
ENDMDL
MODEL      276
REMARK 921   NORMALIZED FREE ENERGY PREDICTED BY IDOCK:   -3.13 KCAL/MOL
REMARK 922        TOTAL FREE ENERGY PREDICTED BY IDOCK:   -7.54 KCAL/MOL
REMARK 923 INTER-LIGAND FREE ENERGY PREDICTED BY IDOCK:   -6.00 KCAL/MOL
REMARK 924 INTRA-LIGAND FREE ENERGY PREDICTED BY IDOCK:   -1.54 KCAL/MOL
REMARK 927      BINDING AFFINITY PREDICTED BY RF-SCORE:    0.00 PKD
ROOT
HETATM    1  C   UNL     1     -13.797  13.533  72.572  1.00  0.00    -0.519 C  
HETATM    2  O   UNL     1     -13.661  13.489  71.155  1.00  0.00    -0.102 OA 
ENDROOT
BRANCH   2   3
HETATM    3  C   UNL     1     -12.699  12.641  70.662  1.00  0.00    -0.062 A  
HETATM    4  C   UNL     1     -11.811  12.892  69.603  1.00  0.00    -0.320 A  
HETATM    5  C   UNL     1     -11.817  10.379  70.857  1.00  0.00    -0.475 A  
HETATM    6  C   UNL     1     -10.928  11.877  69.195  1.00  0.00    -0.251 A  
HETATM    7  C   UNL     1     -10.915  10.619  69.815  1.00  0.00    -0.340 A  
HETATM    8  C   UNL     1     -12.704  11.380  71.270  1.00  0.00    -0.498 A  
BRANCH   4   9
HETATM    9  O   UNL     1     -11.890  14.108  68.977  1.00  0.00    -0.308 OA 
HETATM   10  C   UNL     1     -10.678  14.814  68.750  1.00  0.00    -0.253 C  
ENDBRANCH   4   9
BRANCH   7  11
HETATM   11  C   UNL     1     -10.057   9.499  69.227  1.00  0.00    -0.203 C  
BRANCH  11  12
HETATM   12  C   UNL     1     -10.966   8.274  69.062  1.00  0.00     0.124 C  
BRANCH  12  13
HETATM   13  N   UNL     1     -10.646   6.955  69.618  1.00  0.00    -0.221 NA 
HETATM   14  C   UNL     1     -11.573   6.545  70.671  1.00  0.00    -0.381 C  
BRANCH  13  15
HETATM   15  C   UNL     1     -10.559   5.912  68.561  1.00  0.00    -0.252 C  
BRANCH  15  16
HETATM   16  C   UNL     1     -10.628   6.305  67.052  1.00  0.00    -0.386 C  
BRANCH  16  17
HETATM   17  C   UNL     1      -9.811   5.399  66.103  1.00  0.00    -0.161 C  
BRANCH  17  18
HETATM   18  C   UNL     1      -8.282   5.632  65.946  1.00  0.00    -0.119 C  
HETATM   19  N   UNL     1      -7.149   4.459  68.055  1.00  0.00    -0.059 NA 
HETATM   20  C   UNL     1      -7.712   4.866  64.657  1.00  0.00    -0.079 C  
HETATM   21  C   UNL     1      -7.630   4.979  67.134  1.00  0.00    -0.088 C  
HETATM   22  C   UNL     1      -8.258   5.321  63.294  1.00  0.00    -0.114 C  
HETATM   23  C   UNL     1      -7.930   3.338  64.712  1.00  0.00    -0.086 C  
BRANCH  18  24
HETATM   24  C   UNL     1      -8.046   7.146  65.913  1.00  0.00    -0.122 A  
HETATM   25  C   UNL     1      -7.106   7.765  66.754  1.00  0.00    -0.080 A  
HETATM   26  C   UNL     1      -7.017   9.156  66.869  1.00  0.00    -0.081 A  
HETATM   27  C   UNL     1      -8.873   7.982  65.141  1.00  0.00     0.063 A  
HETATM   28  C   UNL     1      -7.869   9.962  66.096  1.00  0.00    -0.110 A  
HETATM   29  C   UNL     1      -8.770   9.366  65.220  1.00  0.00    -0.204 A  
BRANCH  26  30
HETATM   30  O   UNL     1      -6.159   9.799  67.725  1.00  0.00    -0.051 OA 
HETATM   31  C   UNL     1      -6.343   9.580  69.119  1.00  0.00    -0.041 C  
ENDBRANCH  26  30
BRANCH  28  32
HETATM   32  O   UNL     1      -7.774  11.320  66.285  1.00  0.00    -0.139 OA 
HETATM   33  C   UNL     1      -8.984  12.063  66.200  1.00  0.00    -0.079 C  
ENDBRANCH  28  32
ENDBRANCH  18  24
ENDBRANCH  17  18
ENDBRANCH  16  17
ENDBRANCH  15  16
ENDBRANCH  13  15
ENDBRANCH  12  13
ENDBRANCH  11  12
ENDBRANCH   7  11
ENDBRANCH   2   3
TORSDOF 12
ENDMDL
MODEL      277
REMARK 921   NORMALIZED FREE ENERGY PREDICTED BY IDOCK:   -3.12 KCAL/MOL
REMARK 922        TOTAL FREE ENERGY PREDICTED BY IDOCK:   -7.52 KCAL/MOL
REMARK 923 INTER-LIGAND FREE ENERGY PREDICTED BY IDOCK:   -6.75 KCAL/MOL
REMARK 924 INTRA-LIGAND FREE ENERGY PREDICTED BY IDOCK:   -0.77 KCAL/MOL
REMARK 927      BINDING AFFINITY PREDICTED BY RF-SCORE:    0.00 PKD
ROOT
HETATM    1  C   UNL     1     -10.118  15.918  68.183  1.00  0.00    -0.229 C  
HETATM    2  O   UNL     1      -8.785  15.848  67.689  1.00  0.00    -0.165 OA 
ENDROOT
BRANCH   2   3
HETATM    3  C   UNL     1      -8.272  14.588  67.497  1.00  0.00    -0.187 A  
HETATM    4  C   UNL     1      -8.810  13.569  66.694  1.00  0.00    -0.062 A  
HETATM    5  C   UNL     1      -6.510  13.074  68.226  1.00  0.00    -0.093 A  
HETATM    6  C   UNL     1      -8.176  12.315  66.663  1.00  0.00     0.022 A  
HETATM    7  C   UNL     1      -7.024  12.054  67.418  1.00  0.00    -0.139 A  
HETATM    8  C   UNL     1      -7.134  14.326  68.268  1.00  0.00    -0.111 A  
BRANCH   4   9
HETATM    9  O   UNL     1      -9.970  13.834  66.015  1.00  0.00    -0.297 OA 
HETATM   10  C   UNL     1     -10.377  12.912  65.014  1.00  0.00    -0.315 C  
ENDBRANCH   4   9
BRANCH   7  11
HETATM   11  C   UNL     1      -6.471  10.630  67.482  1.00  0.00    -0.058 C  
BRANCH  11  12
HETATM   12  C   UNL     1      -6.504  10.199  68.953  1.00  0.00    -0.048 C  
BRANCH  12  13
HETATM   13  N   UNL     1      -6.090   8.867  69.409  1.00  0.00    -0.040 NA 
HETATM   14  C   UNL     1      -5.912   8.796  70.858  1.00  0.00    -0.038 C  
BRANCH  13  15
HETATM   15  C   UNL     1      -7.021   7.805  68.942  1.00  0.00    -0.066 C  
BRANCH  15  16
HETATM   16  C   UNL     1      -8.101   7.219  69.905  1.00  0.00    -0.127 C  
BRANCH  16  17
HETATM   17  C   UNL     1      -9.152   8.235  70.405  1.00  0.00    -0.148 C  
BRANCH  17  18
HETATM   18  C   UNL     1     -10.579   7.744  70.778  1.00  0.00    -0.220 C  
HETATM   19  N   UNL     1     -11.268   6.007  68.876  1.00  0.00    -0.292 NA 
HETATM   20  C   UNL     1     -10.561   6.910  72.148  1.00  0.00    -0.241 C  
HETATM   21  C   UNL     1     -10.983   6.766  69.708  1.00  0.00    -0.297 C  
HETATM   22  C   UNL     1     -10.135   7.679  73.410  1.00  0.00    -0.379 C  
HETATM   23  C   UNL     1      -9.656   5.660  72.089  1.00  0.00    -0.170 C  
BRANCH  18  24
HETATM   24  C   UNL     1     -11.496   8.971  70.820  1.00  0.00    -0.331 A  
HETATM   25  C   UNL     1     -11.192  10.144  70.108  1.00  0.00    -0.377 A  
HETATM   26  C   UNL     1     -11.915  11.328  70.288  1.00  0.00    -0.379 A  
HETATM   27  C   UNL     1     -12.596   9.011  71.695  1.00  0.00    -0.414 A  
HETATM   28  C   UNL     1     -12.999  11.338  71.181  1.00  0.00    -0.272 A  
HETATM   29  C   UNL     1     -13.344  10.172  71.855  1.00  0.00    -0.505 A  
BRANCH  26  30
HETATM   30  O   UNL     1     -11.612  12.510  69.662  1.00  0.00    -0.283 OA 
HETATM   31  C   UNL     1     -12.014  12.649  68.304  1.00  0.00    -0.222 C  
ENDBRANCH  26  30
BRANCH  28  32
HETATM   32  O   UNL     1     -13.642  12.540  71.357  1.00  0.00     0.037 OA 
HETATM   33  C   UNL     1     -13.415  13.211  72.591  1.00  0.00    -0.308 C  
ENDBRANCH  28  32
ENDBRANCH  18  24
ENDBRANCH  17  18
ENDBRANCH  16  17
ENDBRANCH  15  16
ENDBRANCH  13  15
ENDBRANCH  12  13
ENDBRANCH  11  12
ENDBRANCH   7  11
ENDBRANCH   2   3
TORSDOF 12
ENDMDL
MODEL      278
REMARK 921   NORMALIZED FREE ENERGY PREDICTED BY IDOCK:   -3.12 KCAL/MOL
REMARK 922        TOTAL FREE ENERGY PREDICTED BY IDOCK:   -7.52 KCAL/MOL
REMARK 923 INTER-LIGAND FREE ENERGY PREDICTED BY IDOCK:   -6.41 KCAL/MOL
REMARK 924 INTRA-LIGAND FREE ENERGY PREDICTED BY IDOCK:   -1.11 KCAL/MOL
REMARK 927      BINDING AFFINITY PREDICTED BY RF-SCORE:    0.00 PKD
ROOT
HETATM    1  C   UNL     1      -7.931  18.035  66.710  1.00  0.00    -0.237 C  
HETATM    2  O   UNL     1      -8.095  17.115  67.784  1.00  0.00    -0.187 OA 
ENDROOT
BRANCH   2   3
HETATM    3  C   UNL     1      -9.010  16.109  67.589  1.00  0.00    -0.191 A  
HETATM    4  C   UNL     1     -10.230  15.932  68.263  1.00  0.00    -0.227 A  
HETATM    5  C   UNL     1      -9.385  14.030  66.377  1.00  0.00    -0.242 A  
HETATM    6  C   UNL     1     -11.016  14.804  67.970  1.00  0.00    -0.276 A  
HETATM    7  C   UNL     1     -10.611  13.849  67.027  1.00  0.00    -0.279 A  
HETATM    8  C   UNL     1      -8.592  15.147  66.663  1.00  0.00    -0.279 A  
BRANCH   4   9
HETATM    9  O   UNL     1     -10.570  16.850  69.221  1.00  0.00    -0.336 OA 
HETATM   10  C   UNL     1     -11.176  16.368  70.413  1.00  0.00    -0.238 C  
ENDBRANCH   4   9
BRANCH   7  11
HETATM   11  C   UNL     1     -11.416  12.559  66.867  1.00  0.00    -0.416 C  
BRANCH  11  12
HETATM   12  C   UNL     1     -11.982  12.206  68.249  1.00  0.00    -0.187 C  
BRANCH  12  13
HETATM   13  N   UNL     1     -11.233  11.442  69.252  1.00  0.00    -0.258 NA 
HETATM   14  C   UNL     1     -12.087  10.915  70.314  1.00  0.00    -0.355 C  
BRANCH  13  15
HETATM   15  C   UNL     1     -10.430  10.352  68.636  1.00  0.00    -0.196 C  
BRANCH  15  16
HETATM   16  C   UNL     1     -10.044   9.086  69.463  1.00  0.00    -0.199 C  
BRANCH  16  17
HETATM   17  C   UNL     1      -8.836   8.292  68.917  1.00  0.00    -0.140 C  
BRANCH  17  18
HETATM   18  C   UNL     1      -9.005   6.790  68.554  1.00  0.00    -0.121 C  
HETATM   19  N   UNL     1     -11.405   6.586  67.410  1.00  0.00    -0.200 NA 
HETATM   20  C   UNL     1      -7.945   6.344  67.436  1.00  0.00    -0.116 C  
HETATM   21  C   UNL     1     -10.359   6.660  67.912  1.00  0.00    -0.189 C  
HETATM   22  C   UNL     1      -6.462   6.424  67.830  1.00  0.00    -0.052 C  
HETATM   23  C   UNL     1      -8.078   7.142  66.120  1.00  0.00    -0.121 C  
BRANCH  18  24
HETATM   24  C   UNL     1      -8.899   5.984  69.854  1.00  0.00    -0.138 A  
HETATM   25  C   UNL     1      -9.239   4.621  69.908  1.00  0.00    -0.188 A  
HETATM   26  C   UNL     1      -9.329   3.928  71.119  1.00  0.00    -0.146 A  
HETATM   27  C   UNL     1      -8.599   6.626  71.069  1.00  0.00    -0.137 A  
HETATM   28  C   UNL     1      -9.039   4.602  72.317  1.00  0.00    -0.126 A  
HETATM   29  C   UNL     1      -8.651   5.937  72.276  1.00  0.00    -0.124 A  
BRANCH  26  30
HETATM   30  O   UNL     1      -9.719   2.617  71.221  1.00  0.00    -0.153 OA 
HETATM   31  C   UNL     1      -8.830   1.632  70.707  1.00  0.00    -0.060 C  
ENDBRANCH  26  30
BRANCH  28  32
HETATM   32  O   UNL     1      -9.191   3.887  73.480  1.00  0.00    -0.101 OA 
HETATM   33  C   UNL     1     -10.505   3.825  74.023  1.00  0.00    -0.198 C  
ENDBRANCH  28  32
ENDBRANCH  18  24
ENDBRANCH  17  18
ENDBRANCH  16  17
ENDBRANCH  15  16
ENDBRANCH  13  15
ENDBRANCH  12  13
ENDBRANCH  11  12
ENDBRANCH   7  11
ENDBRANCH   2   3
TORSDOF 12
ENDMDL
MODEL      279
REMARK 921   NORMALIZED FREE ENERGY PREDICTED BY IDOCK:   -3.09 KCAL/MOL
REMARK 922        TOTAL FREE ENERGY PREDICTED BY IDOCK:   -7.48 KCAL/MOL
REMARK 923 INTER-LIGAND FREE ENERGY PREDICTED BY IDOCK:   -6.12 KCAL/MOL
REMARK 924 INTRA-LIGAND FREE ENERGY PREDICTED BY IDOCK:   -1.36 KCAL/MOL
REMARK 927      BINDING AFFINITY PREDICTED BY RF-SCORE:    0.00 PKD
ROOT
HETATM    1  C   UNL     1      -7.236  19.941  66.681  1.00  0.00    -0.241 C  
HETATM    2  O   UNL     1      -8.023  19.171  67.585  1.00  0.00    -0.254 OA 
ENDROOT
BRANCH   2   3
HETATM    3  C   UNL     1      -8.613  18.043  67.069  1.00  0.00    -0.245 A  
HETATM    4  C   UNL     1      -9.931  17.916  66.601  1.00  0.00    -0.355 A  
HETATM    5  C   UNL     1      -8.247  15.670  66.665  1.00  0.00    -0.284 A  
HETATM    6  C   UNL     1     -10.382  16.660  66.159  1.00  0.00    -0.340 A  
HETATM    7  C   UNL     1      -9.552  15.530  66.179  1.00  0.00    -0.362 A  
HETATM    8  C   UNL     1      -7.787  16.913  67.111  1.00  0.00    -0.207 A  
BRANCH   4   9
HETATM    9  O   UNL     1     -10.737  19.023  66.651  1.00  0.00    -0.405 OA 
HETATM   10  C   UNL     1     -10.772  19.866  65.508  1.00  0.00    -0.199 C  
ENDBRANCH   4   9
BRANCH   7  11
HETATM   11  C   UNL     1     -10.139  14.158  65.849  1.00  0.00    -0.337 C  
BRANCH  11  12
HETATM   12  C   UNL     1     -10.992  13.730  67.050  1.00  0.00    -0.290 C  
BRANCH  12  13
HETATM   13  N   UNL     1     -10.469  12.929  68.161  1.00  0.00    -0.230 NA 
HETATM   14  C   UNL     1     -11.478  12.047  68.746  1.00  0.00    -0.300 C  
BRANCH  13  15
HETATM   15  C   UNL     1      -9.261  12.155  67.769  1.00  0.00    -0.189 C  
BRANCH  15  16
HETATM   16  C   UNL     1      -8.570  11.193  68.786  1.00  0.00    -0.133 C  
BRANCH  16  17
HETATM   17  C   UNL     1      -7.711  10.077  68.150  1.00  0.00    -0.085 C  
BRANCH  17  18
HETATM   18  C   UNL     1      -8.256   8.622  68.100  1.00  0.00    -0.115 C  
HETATM   19  N   UNL     1     -10.720   8.805  67.098  1.00  0.00    -0.221 NA 
HETATM   20  C   UNL     1      -7.424   7.730  67.059  1.00  0.00    -0.095 C  
HETATM   21  C   UNL     1      -9.650   8.711  67.541  1.00  0.00    -0.157 C  
HETATM   22  C   UNL     1      -5.936   7.514  67.381  1.00  0.00    -0.046 C  
HETATM   23  C   UNL     1      -7.470   8.276  65.616  1.00  0.00    -0.081 C  
BRANCH  18  24
HETATM   24  C   UNL     1      -8.238   8.071  69.531  1.00  0.00    -0.122 A  
HETATM   25  C   UNL     1      -7.153   8.297  70.395  1.00  0.00    -0.037 A  
HETATM   26  C   UNL     1      -7.039   7.645  71.627  1.00  0.00    -0.063 A  
HETATM   27  C   UNL     1      -9.246   7.194  69.971  1.00  0.00    -0.144 A  
HETATM   28  C   UNL     1      -8.056   6.763  72.030  1.00  0.00    -0.101 A  
HETATM   29  C   UNL     1      -9.161   6.568  71.209  1.00  0.00    -0.155 A  
BRANCH  26  30
HETATM   30  O   UNL     1      -5.968   7.788  72.471  1.00  0.00    -0.039 OA 
HETATM   31  C   UNL     1      -5.768   9.068  73.058  1.00  0.00    -0.057 C  
ENDBRANCH  26  30
BRANCH  28  32
HETATM   32  O   UNL     1      -7.869   6.111  73.226  1.00  0.00    -0.100 OA 
HETATM   33  C   UNL     1      -8.920   6.215  74.180  1.00  0.00    -0.131 C  
ENDBRANCH  28  32
ENDBRANCH  18  24
ENDBRANCH  17  18
ENDBRANCH  16  17
ENDBRANCH  15  16
ENDBRANCH  13  15
ENDBRANCH  12  13
ENDBRANCH  11  12
ENDBRANCH   7  11
ENDBRANCH   2   3
TORSDOF 12
ENDMDL
MODEL      280
REMARK 921   NORMALIZED FREE ENERGY PREDICTED BY IDOCK:   -3.07 KCAL/MOL
REMARK 922        TOTAL FREE ENERGY PREDICTED BY IDOCK:   -7.44 KCAL/MOL
REMARK 923 INTER-LIGAND FREE ENERGY PREDICTED BY IDOCK:   -6.58 KCAL/MOL
REMARK 924 INTRA-LIGAND FREE ENERGY PREDICTED BY IDOCK:   -0.86 KCAL/MOL
REMARK 927      BINDING AFFINITY PREDICTED BY RF-SCORE:    0.00 PKD
ROOT
HETATM    1  C   UNL     1      -7.889   3.823  65.401  1.00  0.00    -0.089 C  
HETATM    2  O   UNL     1      -6.975   4.912  65.333  1.00  0.00    -0.059 OA 
ENDROOT
BRANCH   2   3
HETATM    3  C   UNL     1      -7.058   5.840  66.343  1.00  0.00    -0.072 A  
HETATM    4  C   UNL     1      -6.862   7.227  66.237  1.00  0.00    -0.058 A  
HETATM    5  C   UNL     1      -7.361   6.073  68.748  1.00  0.00    -0.085 A  
HETATM    6  C   UNL     1      -6.931   8.019  67.396  1.00  0.00    -0.075 A  
HETATM    7  C   UNL     1      -7.185   7.459  68.656  1.00  0.00    -0.090 A  
HETATM    8  C   UNL     1      -7.291   5.274  67.602  1.00  0.00    -0.076 A  
BRANCH   4   9
HETATM    9  O   UNL     1      -6.555   7.737  65.003  1.00  0.00    -0.047 OA 
HETATM   10  C   UNL     1      -7.626   7.967  64.098  1.00  0.00    -0.122 C  
ENDBRANCH   4   9
BRANCH   7  11
HETATM   11  C   UNL     1      -7.084   8.335  69.905  1.00  0.00    -0.055 C  
BRANCH  11  12
HETATM   12  C   UNL     1      -6.568   7.443  71.042  1.00  0.00    -0.043 C  
BRANCH  12  13
HETATM   13  N   UNL     1      -7.321   7.202  72.277  1.00  0.00    -0.079 NA 
HETATM   14  C   UNL     1      -7.087   8.228  73.291  1.00  0.00    -0.110 C  
BRANCH  13  15
HETATM   15  C   UNL     1      -8.777   7.043  72.019  1.00  0.00    -0.123 C  
BRANCH  15  16
HETATM   16  C   UNL     1      -9.790   8.133  72.493  1.00  0.00    -0.363 C  
BRANCH  16  17
HETATM   17  C   UNL     1     -10.133   9.209  71.438  1.00  0.00    -0.392 C  
BRANCH  17  18
HETATM   18  C   UNL     1     -11.300   8.963  70.442  1.00  0.00    -0.229 C  
HETATM   19  N   UNL     1     -10.661   6.742  69.112  1.00  0.00    -0.218 NA 
HETATM   20  C   UNL     1     -12.663   8.632  71.220  1.00  0.00    -0.244 C  
HETATM   21  C   UNL     1     -10.949   7.714  69.679  1.00  0.00    -0.137 C  
HETATM   22  C   UNL     1     -13.225   9.746  72.118  1.00  0.00    -0.530 C  
HETATM   23  C   UNL     1     -12.563   7.377  72.115  1.00  0.00    -0.178 C  
BRANCH  18  24
HETATM   24  C   UNL     1     -11.398  10.191  69.530  1.00  0.00    -0.260 A  
HETATM   25  C   UNL     1     -11.134  10.111  68.152  1.00  0.00    -0.290 A  
HETATM   26  C   UNL     1     -11.034  11.252  67.350  1.00  0.00    -0.282 A  
HETATM   27  C   UNL     1     -11.611  11.470  70.076  1.00  0.00    -0.364 A  
HETATM   28  C   UNL     1     -11.236  12.516  67.929  1.00  0.00    -0.264 A  
HETATM   29  C   UNL     1     -11.549  12.609  69.281  1.00  0.00    -0.376 A  
BRANCH  26  30
HETATM   30  O   UNL     1     -10.716  11.222  66.016  1.00  0.00    -0.267 OA 
HETATM   31  C   UNL     1     -10.106  10.036  65.518  1.00  0.00    -0.255 C  
ENDBRANCH  26  30
BRANCH  28  32
HETATM   32  O   UNL     1     -11.077  13.605  67.106  1.00  0.00    -0.287 OA 
HETATM   33  C   UNL     1     -12.236  14.063  66.421  1.00  0.00    -0.460 C  
ENDBRANCH  28  32
ENDBRANCH  18  24
ENDBRANCH  17  18
ENDBRANCH  16  17
ENDBRANCH  15  16
ENDBRANCH  13  15
ENDBRANCH  12  13
ENDBRANCH  11  12
ENDBRANCH   7  11
ENDBRANCH   2   3
TORSDOF 12
ENDMDL
MODEL      281
REMARK 921   NORMALIZED FREE ENERGY PREDICTED BY IDOCK:   -3.06 KCAL/MOL
REMARK 922        TOTAL FREE ENERGY PREDICTED BY IDOCK:   -7.43 KCAL/MOL
REMARK 923 INTER-LIGAND FREE ENERGY PREDICTED BY IDOCK:   -6.85 KCAL/MOL
REMARK 924 INTRA-LIGAND FREE ENERGY PREDICTED BY IDOCK:   -0.59 KCAL/MOL
REMARK 927      BINDING AFFINITY PREDICTED BY RF-SCORE:    0.00 PKD
ROOT
HETATM    1  C   UNL     1     -10.935  15.680  65.388  1.00  0.00    -0.333 C  
HETATM    2  O   UNL     1     -10.519  15.872  66.736  1.00  0.00    -0.301 OA 
ENDROOT
BRANCH   2   3
HETATM    3  C   UNL     1     -10.765  14.834  67.602  1.00  0.00    -0.270 A  
HETATM    4  C   UNL     1     -10.095  13.601  67.657  1.00  0.00    -0.242 A  
HETATM    5  C   UNL     1     -12.276  14.084  69.358  1.00  0.00    -0.336 A  
HETATM    6  C   UNL     1     -10.524  12.629  68.578  1.00  0.00    -0.249 A  
HETATM    7  C   UNL     1     -11.608  12.857  69.438  1.00  0.00    -0.363 A  
HETATM    8  C   UNL     1     -11.861  15.058  68.444  1.00  0.00    -0.298 A  
BRANCH   4   9
HETATM    9  O   UNL     1      -9.080  13.385  66.764  1.00  0.00    -0.242 OA 
HETATM   10  C   UNL     1      -7.772  13.799  67.135  1.00  0.00     0.032 C  
ENDBRANCH   4   9
BRANCH   7  11
HETATM   11  C   UNL     1     -12.140  11.712  70.298  1.00  0.00    -0.443 C  
BRANCH  11  12
HETATM   12  C   UNL     1     -11.220  10.506  70.067  1.00  0.00    -0.315 C  
BRANCH  12  13
HETATM   13  N   UNL     1     -10.977   9.475  71.082  1.00  0.00    -0.344 NA 
HETATM   14  C   UNL     1     -12.110   8.567  71.246  1.00  0.00    -0.286 C  
BRANCH  13  15
HETATM   15  C   UNL     1      -9.729   8.713  70.813  1.00  0.00    -0.194 C  
BRANCH  15  16
HETATM   16  C   UNL     1      -9.662   7.690  69.635  1.00  0.00    -0.171 C  
BRANCH  16  17
HETATM   17  C   UNL     1     -10.167   8.226  68.276  1.00  0.00    -0.246 C  
BRANCH  17  18
HETATM   18  C   UNL     1      -9.170   8.378  67.093  1.00  0.00    -0.174 C  
HETATM   19  N   UNL     1     -10.155  10.327  65.563  1.00  0.00    -0.293 NA 
HETATM   20  C   UNL     1      -7.743   8.900  67.605  1.00  0.00    -0.101 C  
HETATM   21  C   UNL     1      -9.717   9.472  66.217  1.00  0.00    -0.245 C  
HETATM   22  C   UNL     1      -6.980   7.971  68.563  1.00  0.00    -0.072 C  
HETATM   23  C   UNL     1      -7.814  10.271  68.312  1.00  0.00    -0.101 C  
BRANCH  18  24
HETATM   24  C   UNL     1      -9.105   7.030  66.366  1.00  0.00    -0.189 A  
HETATM   25  C   UNL     1      -9.649   5.862  66.926  1.00  0.00    -0.156 A  
HETATM   26  C   UNL     1      -9.429   4.600  66.365  1.00  0.00    -0.166 A  
HETATM   27  C   UNL     1      -8.363   6.895  65.178  1.00  0.00    -0.080 A  
HETATM   28  C   UNL     1      -8.670   4.497  65.187  1.00  0.00    -0.135 A  
HETATM   29  C   UNL     1      -8.168   5.650  64.592  1.00  0.00    -0.129 A  
BRANCH  26  30
HETATM   30  O   UNL     1      -9.887   3.429  66.914  1.00  0.00    -0.059 OA 
HETATM   31  C   UNL     1      -9.381   3.069  68.195  1.00  0.00    -0.198 C  
ENDBRANCH  26  30
BRANCH  28  32
HETATM   32  O   UNL     1      -8.443   3.230  64.708  1.00  0.00    -0.096 OA 
HETATM   33  C   UNL     1      -7.114   2.733  64.821  1.00  0.00    -0.050 C  
ENDBRANCH  28  32
ENDBRANCH  18  24
ENDBRANCH  17  18
ENDBRANCH  16  17
ENDBRANCH  15  16
ENDBRANCH  13  15
ENDBRANCH  12  13
ENDBRANCH  11  12
ENDBRANCH   7  11
ENDBRANCH   2   3
TORSDOF 12
ENDMDL
MODEL      282
REMARK 921   NORMALIZED FREE ENERGY PREDICTED BY IDOCK:   -3.06 KCAL/MOL
REMARK 922        TOTAL FREE ENERGY PREDICTED BY IDOCK:   -7.43 KCAL/MOL
REMARK 923 INTER-LIGAND FREE ENERGY PREDICTED BY IDOCK:   -5.77 KCAL/MOL
REMARK 924 INTRA-LIGAND FREE ENERGY PREDICTED BY IDOCK:   -1.66 KCAL/MOL
REMARK 927      BINDING AFFINITY PREDICTED BY RF-SCORE:    0.00 PKD
ROOT
HETATM    1  C   UNL     1      -9.745  16.636  65.487  1.00  0.00     0.104 C  
HETATM    2  O   UNL     1     -10.962  15.951  65.212  1.00  0.00    -0.361 OA 
ENDROOT
BRANCH   2   3
HETATM    3  C   UNL     1     -11.130  14.736  65.833  1.00  0.00    -0.340 A  
HETATM    4  C   UNL     1     -11.520  14.514  67.164  1.00  0.00    -0.368 A  
HETATM    5  C   UNL     1     -10.858  12.337  65.517  1.00  0.00    -0.319 A  
HETATM    6  C   UNL     1     -11.583  13.195  67.647  1.00  0.00    -0.392 A  
HETATM    7  C   UNL     1     -11.262  12.097  66.835  1.00  0.00    -0.375 A  
HETATM    8  C   UNL     1     -10.788  13.645  65.026  1.00  0.00    -0.358 A  
BRANCH   4   9
HETATM    9  O   UNL     1     -11.769  15.608  67.949  1.00  0.00    -0.262 OA 
HETATM   10  C   UNL     1     -10.745  16.028  68.841  1.00  0.00    -0.275 C  
ENDBRANCH   4   9
BRANCH   7  11
HETATM   11  C   UNL     1     -11.183  10.701  67.452  1.00  0.00    -0.280 C  
BRANCH  11  12
HETATM   12  C   UNL     1     -12.127  10.688  68.662  1.00  0.00     0.202 C  
BRANCH  12  13
HETATM   13  N   UNL     1     -11.654  10.723  70.049  1.00  0.00    -0.305 NA 
HETATM   14  C   UNL     1     -12.745  10.838  71.015  1.00  0.00    -0.415 C  
BRANCH  13  15
HETATM   15  C   UNL     1     -10.791   9.556  70.372  1.00  0.00    -0.282 C  
BRANCH  15  16
HETATM   16  C   UNL     1      -9.282   9.551  69.972  1.00  0.00    -0.264 C  
BRANCH  16  17
HETATM   17  C   UNL     1      -8.665  10.949  69.733  1.00  0.00     0.575 C  
BRANCH  17  18
HETATM   18  C   UNL     1      -7.196  11.066  69.239  1.00  0.00    -0.124 C  
HETATM   19  N   UNL     1      -5.675  10.357  71.311  1.00  0.00    -0.279 NA 
HETATM   20  C   UNL     1      -6.890   9.996  68.084  1.00  0.00    -0.064 C  
HETATM   21  C   UNL     1      -6.326  10.674  70.402  1.00  0.00    -0.117 C  
HETATM   22  C   UNL     1      -7.691  10.150  66.780  1.00  0.00    -0.105 C  
HETATM   23  C   UNL     1      -7.097   8.534  68.537  1.00  0.00    -0.073 C  
BRANCH  18  24
HETATM   24  C   UNL     1      -6.967  12.518  68.805  1.00  0.00    -0.094 A  
HETATM   25  C   UNL     1      -6.097  13.369  69.508  1.00  0.00    -0.110 A  
HETATM   26  C   UNL     1      -6.026  14.740  69.240  1.00  0.00    -0.103 A  
HETATM   27  C   UNL     1      -7.740  13.086  67.777  1.00  0.00    -0.151 A  
HETATM   28  C   UNL     1      -6.823  15.279  68.215  1.00  0.00    -0.119 A  
HETATM   29  C   UNL     1      -7.651  14.441  67.477  1.00  0.00    -0.212 A  
BRANCH  26  30
HETATM   30  O   UNL     1      -5.239  15.616  69.942  1.00  0.00    -0.103 OA 
HETATM   31  C   UNL     1      -5.225  15.486  71.360  1.00  0.00    -0.057 C  
ENDBRANCH  26  30
BRANCH  28  32
HETATM   32  O   UNL     1      -6.750  16.639  68.028  1.00  0.00    -0.136 OA 
HETATM   33  C   UNL     1      -6.201  17.085  66.794  1.00  0.00    -0.210 C  
ENDBRANCH  28  32
ENDBRANCH  18  24
ENDBRANCH  17  18
ENDBRANCH  16  17
ENDBRANCH  15  16
ENDBRANCH  13  15
ENDBRANCH  12  13
ENDBRANCH  11  12
ENDBRANCH   7  11
ENDBRANCH   2   3
TORSDOF 12
ENDMDL
MODEL      283
REMARK 921   NORMALIZED FREE ENERGY PREDICTED BY IDOCK:   -3.06 KCAL/MOL
REMARK 922        TOTAL FREE ENERGY PREDICTED BY IDOCK:   -7.43 KCAL/MOL
REMARK 923 INTER-LIGAND FREE ENERGY PREDICTED BY IDOCK:   -6.29 KCAL/MOL
REMARK 924 INTRA-LIGAND FREE ENERGY PREDICTED BY IDOCK:   -1.14 KCAL/MOL
REMARK 927      BINDING AFFINITY PREDICTED BY RF-SCORE:    0.00 PKD
ROOT
HETATM    1  C   UNL     1     -11.940  15.481  69.055  1.00  0.00    -0.301 C  
HETATM    2  O   UNL     1     -10.805  15.470  68.195  1.00  0.00    -0.275 OA 
ENDROOT
BRANCH   2   3
HETATM    3  C   UNL     1     -10.476  14.258  67.637  1.00  0.00    -0.248 A  
HETATM    4  C   UNL     1      -9.185  13.741  67.439  1.00  0.00    -0.221 A  
HETATM    5  C   UNL     1     -11.422  12.306  66.531  1.00  0.00    -0.438 A  
HETATM    6  C   UNL     1      -9.037  12.500  66.795  1.00  0.00    -0.214 A  
HETATM    7  C   UNL     1     -10.143  11.769  66.341  1.00  0.00    -0.239 A  
HETATM    8  C   UNL     1     -11.583  13.542  67.167  1.00  0.00    -0.393 A  
BRANCH   4   9
HETATM    9  O   UNL     1      -8.121  14.506  67.838  1.00  0.00    -0.128 OA 
HETATM   10  C   UNL     1      -7.811  15.660  67.069  1.00  0.00    -0.231 C  
ENDBRANCH   4   9
BRANCH   7  11
HETATM   11  C   UNL     1      -9.923  10.511  65.501  1.00  0.00    -0.342 C  
BRANCH  11  12
HETATM   12  C   UNL     1      -8.583   9.906  65.938  1.00  0.00    -0.137 C  
BRANCH  12  13
HETATM   13  N   UNL     1      -7.392   9.890  65.081  1.00  0.00    -0.127 NA 
HETATM   14  C   UNL     1      -6.151  10.045  65.836  1.00  0.00    -0.080 C  
BRANCH  13  15
HETATM   15  C   UNL     1      -7.337   8.673  64.227  1.00  0.00    -0.104 C  
BRANCH  15  16
HETATM   16  C   UNL     1      -8.392   7.535  64.400  1.00  0.00     0.066 C  
BRANCH  16  17
HETATM   17  C   UNL     1      -7.800   6.126  64.631  1.00  0.00    -0.113 C  
BRANCH  17  18
HETATM   18  C   UNL     1      -8.528   5.133  65.580  1.00  0.00    -0.138 C  
HETATM   19  N   UNL     1     -10.270   3.815  64.051  1.00  0.00    -0.214 NA 
HETATM   20  C   UNL     1      -7.514   4.026  66.144  1.00  0.00    -0.088 C  
HETATM   21  C   UNL     1      -9.520   4.386  64.730  1.00  0.00    -0.153 C  
HETATM   22  C   UNL     1      -6.362   4.539  67.024  1.00  0.00    -0.040 C  
HETATM   23  C   UNL     1      -6.853   3.182  65.032  1.00  0.00    -0.045 C  
BRANCH  18  24
HETATM   24  C   UNL     1      -9.209   5.957  66.678  1.00  0.00    -0.147 A  
HETATM   25  C   UNL     1      -8.466   6.653  67.647  1.00  0.00    -0.121 A  
HETATM   26  C   UNL     1      -9.071   7.246  68.759  1.00  0.00    -0.127 A  
HETATM   27  C   UNL     1     -10.606   5.917  66.838  1.00  0.00    -0.384 A  
HETATM   28  C   UNL     1     -10.467   7.175  68.898  1.00  0.00    -0.207 A  
HETATM   29  C   UNL     1     -11.222   6.534  67.921  1.00  0.00    -0.257 A  
BRANCH  26  30
HETATM   30  O   UNL     1      -8.378   7.879  69.759  1.00  0.00    -0.123 OA 
HETATM   31  C   UNL     1      -7.568   7.070  70.604  1.00  0.00    -0.093 C  
ENDBRANCH  26  30
BRANCH  28  32
HETATM   32  O   UNL     1     -11.004   7.731  70.034  1.00  0.00    -0.249 OA 
HETATM   33  C   UNL     1     -11.854   6.898  70.812  1.00  0.00    -0.377 C  
ENDBRANCH  28  32
ENDBRANCH  18  24
ENDBRANCH  17  18
ENDBRANCH  16  17
ENDBRANCH  15  16
ENDBRANCH  13  15
ENDBRANCH  12  13
ENDBRANCH  11  12
ENDBRANCH   7  11
ENDBRANCH   2   3
TORSDOF 12
ENDMDL
MODEL      284
REMARK 921   NORMALIZED FREE ENERGY PREDICTED BY IDOCK:   -3.05 KCAL/MOL
REMARK 922        TOTAL FREE ENERGY PREDICTED BY IDOCK:   -7.41 KCAL/MOL
REMARK 923 INTER-LIGAND FREE ENERGY PREDICTED BY IDOCK:   -6.32 KCAL/MOL
REMARK 924 INTRA-LIGAND FREE ENERGY PREDICTED BY IDOCK:   -1.09 KCAL/MOL
REMARK 927      BINDING AFFINITY PREDICTED BY RF-SCORE:    0.00 PKD
ROOT
HETATM    1  C   UNL     1      -7.467  20.391  67.084  1.00  0.00    -0.314 C  
HETATM    2  O   UNL     1      -8.146  19.390  67.835  1.00  0.00    -0.282 OA 
ENDROOT
BRANCH   2   3
HETATM    3  C   UNL     1      -8.676  18.345  67.117  1.00  0.00    -0.260 A  
HETATM    4  C   UNL     1      -9.959  18.275  66.549  1.00  0.00    -0.373 A  
HETATM    5  C   UNL     1      -8.232  16.066  66.385  1.00  0.00    -0.309 A  
HETATM    6  C   UNL     1     -10.353  17.095  65.894  1.00  0.00    -0.294 A  
HETATM    7  C   UNL     1      -9.501  15.986  65.798  1.00  0.00    -0.283 A  
HETATM    8  C   UNL     1      -7.830  17.233  67.043  1.00  0.00    -0.243 A  
BRANCH   4   9
HETATM    9  O   UNL     1     -10.791  19.351  66.711  1.00  0.00    -0.454 OA 
HETATM   10  C   UNL     1     -11.035  20.174  65.580  1.00  0.00     0.116 C  
ENDBRANCH   4   9
BRANCH   7  11
HETATM   11  C   UNL     1     -10.034  14.673  65.226  1.00  0.00    -0.329 C  
BRANCH  11  12
HETATM   12  C   UNL     1     -11.079  14.141  66.215  1.00  0.00    -0.318 C  
BRANCH  12  13
HETATM   13  N   UNL     1     -10.733  13.346  67.398  1.00  0.00    -0.260 NA 
HETATM   14  C   UNL     1     -11.811  12.450  67.813  1.00  0.00    -0.298 C  
BRANCH  13  15
HETATM   15  C   UNL     1      -9.467  12.588  67.209  1.00  0.00    -0.193 C  
BRANCH  15  16
HETATM   16  C   UNL     1      -9.282  11.179  67.854  1.00  0.00    -0.154 C  
BRANCH  16  17
HETATM   17  C   UNL     1      -7.964  10.460  67.487  1.00  0.00    -0.106 C  
BRANCH  17  18
HETATM   18  C   UNL     1      -7.936   9.472  66.288  1.00  0.00    -0.107 C  
HETATM   19  N   UNL     1      -9.781  10.356  64.577  1.00  0.00    -0.307 NA 
HETATM   20  C   UNL     1      -6.538   9.553  65.506  1.00  0.00    -0.073 C  
HETATM   21  C   UNL     1      -8.978   9.957  65.316  1.00  0.00    -0.191 C  
HETATM   22  C   UNL     1      -5.287   9.144  66.300  1.00  0.00    -0.040 C  
HETATM   23  C   UNL     1      -6.239  10.957  64.938  1.00  0.00     0.258 C  
BRANCH  18  24
HETATM   24  C   UNL     1      -8.255   8.074  66.831  1.00  0.00    -0.115 A  
HETATM   25  C   UNL     1      -9.254   7.270  66.258  1.00  0.00    -0.175 A  
HETATM   26  C   UNL     1      -9.683   6.081  66.859  1.00  0.00    -0.148 A  
HETATM   27  C   UNL     1      -7.654   7.616  68.018  1.00  0.00    -0.110 A  
HETATM   28  C   UNL     1      -9.073   5.659  68.052  1.00  0.00    -0.107 A  
HETATM   29  C   UNL     1      -8.047   6.418  68.604  1.00  0.00    -0.113 A  
BRANCH  26  30
HETATM   30  O   UNL     1     -10.697   5.300  66.368  1.00  0.00    -0.307 OA 
HETATM   31  C   UNL     1     -10.397   4.468  65.253  1.00  0.00    -0.161 C  
ENDBRANCH  26  30
BRANCH  28  32
HETATM   32  O   UNL     1      -9.566   4.512  68.625  1.00  0.00    -0.148 OA 
HETATM   33  C   UNL     1      -8.817   3.320  68.414  1.00  0.00    -0.118 C  
ENDBRANCH  28  32
ENDBRANCH  18  24
ENDBRANCH  17  18
ENDBRANCH  16  17
ENDBRANCH  15  16
ENDBRANCH  13  15
ENDBRANCH  12  13
ENDBRANCH  11  12
ENDBRANCH   7  11
ENDBRANCH   2   3
TORSDOF 12
ENDMDL
MODEL      285
REMARK 921   NORMALIZED FREE ENERGY PREDICTED BY IDOCK:   -3.04 KCAL/MOL
REMARK 922        TOTAL FREE ENERGY PREDICTED BY IDOCK:   -7.40 KCAL/MOL
REMARK 923 INTER-LIGAND FREE ENERGY PREDICTED BY IDOCK:   -5.83 KCAL/MOL
REMARK 924 INTRA-LIGAND FREE ENERGY PREDICTED BY IDOCK:   -1.58 KCAL/MOL
REMARK 927      BINDING AFFINITY PREDICTED BY RF-SCORE:    0.00 PKD
ROOT
HETATM    1  C   UNL     1      -5.761   6.412  62.932  1.00  0.00    -0.026 C  
HETATM    2  O   UNL     1      -5.500   7.681  63.524  1.00  0.00    -0.043 OA 
ENDROOT
BRANCH   2   3
HETATM    3  C   UNL     1      -6.595   8.478  63.761  1.00  0.00    -0.076 A  
HETATM    4  C   UNL     1      -7.344   8.555  64.946  1.00  0.00    -0.087 A  
HETATM    5  C   UNL     1      -8.129  10.040  62.695  1.00  0.00    -0.146 A  
HETATM    6  C   UNL     1      -8.475   9.390  64.988  1.00  0.00    -0.171 A  
HETATM    7  C   UNL     1      -8.876  10.142  63.875  1.00  0.00    -0.248 A  
HETATM    8  C   UNL     1      -7.004   9.210  62.640  1.00  0.00    -0.091 A  
BRANCH   4   9
HETATM    9  O   UNL     1      -6.963   7.764  65.997  1.00  0.00    -0.059 OA 
HETATM   10  C   UNL     1      -6.092   8.327  66.968  1.00  0.00    -0.054 C  
ENDBRANCH   4   9
BRANCH   7  11
HETATM   11  C   UNL     1     -10.203  10.900  63.916  1.00  0.00    -0.418 C  
BRANCH  11  12
HETATM   12  C   UNL     1     -10.754  10.769  65.341  1.00  0.00    -0.079 C  
BRANCH  12  13
HETATM   13  N   UNL     1     -10.553  11.789  66.376  1.00  0.00    -0.245 NA 
HETATM   14  C   UNL     1     -11.735  12.624  66.583  1.00  0.00    -0.398 C  
BRANCH  13  15
HETATM   15  C   UNL     1     -10.100  11.194  67.662  1.00  0.00    -0.179 C  
BRANCH  15  16
HETATM   16  C   UNL     1     -11.113  10.464  68.599  1.00  0.00    -0.313 C  
BRANCH  16  17
HETATM   17  C   UNL     1     -10.981   8.924  68.629  1.00  0.00     0.066 C  
BRANCH  17  18
HETATM   18  C   UNL     1     -10.339   8.232  69.864  1.00  0.00    -0.218 C  
HETATM   19  N   UNL     1      -8.238   9.735  70.525  1.00  0.00    -0.226 NA 
HETATM   20  C   UNL     1     -11.326   8.277  71.127  1.00  0.00    -0.298 C  
HETATM   21  C   UNL     1      -9.147   9.068  70.245  1.00  0.00    -0.202 C  
HETATM   22  C   UNL     1     -12.658   7.522  70.981  1.00  0.00    -0.223 C  
HETATM   23  C   UNL     1     -11.698   9.712  71.559  1.00  0.00    -0.472 C  
BRANCH  18  24
HETATM   24  C   UNL     1      -9.943   6.812  69.446  1.00  0.00    -0.167 A  
HETATM   25  C   UNL     1     -10.165   6.337  68.142  1.00  0.00    -0.200 A  
HETATM   26  C   UNL     1      -9.986   4.992  67.803  1.00  0.00    -0.147 A  
HETATM   27  C   UNL     1      -9.481   5.889  70.401  1.00  0.00    -0.192 A  
HETATM   28  C   UNL     1      -9.537   4.093  68.785  1.00  0.00    -0.140 A  
HETATM   29  C   UNL     1      -9.264   4.557  70.067  1.00  0.00    -0.195 A  
BRANCH  26  30
HETATM   30  O   UNL     1     -10.251   4.476  66.560  1.00  0.00    -0.243 OA 
HETATM   31  C   UNL     1      -9.443   4.930  65.480  1.00  0.00    -0.145 C  
ENDBRANCH  26  30
BRANCH  28  32
HETATM   32  O   UNL     1      -9.426   2.775  68.410  1.00  0.00    -0.197 OA 
HETATM   33  C   UNL     1      -9.651   1.803  69.424  1.00  0.00     0.009 C  
ENDBRANCH  28  32
ENDBRANCH  18  24
ENDBRANCH  17  18
ENDBRANCH  16  17
ENDBRANCH  15  16
ENDBRANCH  13  15
ENDBRANCH  12  13
ENDBRANCH  11  12
ENDBRANCH   7  11
ENDBRANCH   2   3
TORSDOF 12
ENDMDL
MODEL      286
REMARK 921   NORMALIZED FREE ENERGY PREDICTED BY IDOCK:   -3.03 KCAL/MOL
REMARK 922        TOTAL FREE ENERGY PREDICTED BY IDOCK:   -7.38 KCAL/MOL
REMARK 923 INTER-LIGAND FREE ENERGY PREDICTED BY IDOCK:   -6.55 KCAL/MOL
REMARK 924 INTRA-LIGAND FREE ENERGY PREDICTED BY IDOCK:   -0.83 KCAL/MOL
REMARK 927      BINDING AFFINITY PREDICTED BY RF-SCORE:    0.00 PKD
ROOT
HETATM    1  C   UNL     1      -5.732   6.048  62.798  1.00  0.00    -0.021 C  
HETATM    2  O   UNL     1      -5.556   7.219  63.589  1.00  0.00    -0.036 OA 
ENDROOT
BRANCH   2   3
HETATM    3  C   UNL     1      -6.552   8.163  63.508  1.00  0.00    -0.076 A  
HETATM    4  C   UNL     1      -7.832   8.093  64.081  1.00  0.00    -0.142 A  
HETATM    5  C   UNL     1      -7.141  10.283  62.465  1.00  0.00    -0.151 A  
HETATM    6  C   UNL     1      -8.747   9.134  63.843  1.00  0.00    -0.154 A  
HETATM    7  C   UNL     1      -8.415  10.237  63.044  1.00  0.00    -0.180 A  
HETATM    8  C   UNL     1      -6.224   9.252  62.692  1.00  0.00    -0.093 A  
BRANCH   4   9
HETATM    9  O   UNL     1      -8.148   6.975  64.807  1.00  0.00    -0.128 OA 
HETATM   10  C   UNL     1      -7.876   6.993  66.201  1.00  0.00    -0.102 C  
ENDBRANCH   4   9
BRANCH   7  11
HETATM   11  C   UNL     1      -9.495  11.254  62.678  1.00  0.00    -0.279 C  
BRANCH  11  12
HETATM   12  C   UNL     1     -10.376  11.445  63.920  1.00  0.00    -0.379 C  
BRANCH  12  13
HETATM   13  N   UNL     1      -9.981  12.272  65.065  1.00  0.00    -0.241 NA 
HETATM   14  C   UNL     1     -10.878  13.407  65.277  1.00  0.00    -0.309 C  
BRANCH  13  15
HETATM   15  C   UNL     1      -9.846  11.471  66.310  1.00  0.00    -0.217 C  
BRANCH  15  16
HETATM   16  C   UNL     1     -11.113  10.993  67.087  1.00  0.00    -0.333 C  
BRANCH  16  17
HETATM   17  C   UNL     1     -10.967   9.629  67.800  1.00  0.00    -0.203 C  
BRANCH  17  18
HETATM   18  C   UNL     1     -10.498   9.583  69.281  1.00  0.00    -0.226 C  
HETATM   19  N   UNL     1      -7.985  10.474  69.274  1.00  0.00    -0.154 NA 
HETATM   20  C   UNL     1     -11.329  10.618  70.181  1.00  0.00    -0.402 C  
HETATM   21  C   UNL     1      -9.077  10.078  69.291  1.00  0.00    -0.200 C  
HETATM   22  C   UNL     1     -12.839  10.358  70.304  1.00  0.00    -0.167 C  
HETATM   23  C   UNL     1     -11.188  12.082  69.711  1.00  0.00    -0.105 C  
BRANCH  18  24
HETATM   24  C   UNL     1     -10.609   8.130  69.757  1.00  0.00    -0.231 A  
HETATM   25  C   UNL     1     -10.517   7.790  71.118  1.00  0.00    -0.227 A  
HETATM   26  C   UNL     1     -10.426   6.461  71.544  1.00  0.00    -0.219 A  
HETATM   27  C   UNL     1     -10.658   7.076  68.827  1.00  0.00    -0.235 A  
HETATM   28  C   UNL     1     -10.461   5.432  70.589  1.00  0.00    -0.259 A  
HETATM   29  C   UNL     1     -10.604   5.750  69.242  1.00  0.00    -0.376 A  
BRANCH  26  30
HETATM   30  O   UNL     1     -10.271   6.089  72.855  1.00  0.00    -0.178 OA 
HETATM   31  C   UNL     1     -10.026   7.124  73.801  1.00  0.00    -0.331 C  
ENDBRANCH  26  30
BRANCH  28  32
HETATM   32  O   UNL     1     -10.318   4.149  71.059  1.00  0.00    -0.035 OA 
HETATM   33  C   UNL     1      -9.291   3.363  70.465  1.00  0.00    -0.161 C  
ENDBRANCH  28  32
ENDBRANCH  18  24
ENDBRANCH  17  18
ENDBRANCH  16  17
ENDBRANCH  15  16
ENDBRANCH  13  15
ENDBRANCH  12  13
ENDBRANCH  11  12
ENDBRANCH   7  11
ENDBRANCH   2   3
TORSDOF 12
ENDMDL
MODEL      287
REMARK 921   NORMALIZED FREE ENERGY PREDICTED BY IDOCK:   -2.99 KCAL/MOL
REMARK 922        TOTAL FREE ENERGY PREDICTED BY IDOCK:   -7.32 KCAL/MOL
REMARK 923 INTER-LIGAND FREE ENERGY PREDICTED BY IDOCK:   -5.68 KCAL/MOL
REMARK 924 INTRA-LIGAND FREE ENERGY PREDICTED BY IDOCK:   -1.63 KCAL/MOL
REMARK 927      BINDING AFFINITY PREDICTED BY RF-SCORE:    0.00 PKD
ROOT
HETATM    1  C   UNL     1      -7.944   7.461  62.681  1.00  0.00    -0.126 C  
HETATM    2  O   UNL     1      -7.680   8.855  62.555  1.00  0.00    -0.109 OA 
ENDROOT
BRANCH   2   3
HETATM    3  C   UNL     1      -8.377   9.685  63.399  1.00  0.00    -0.170 A  
HETATM    4  C   UNL     1      -8.067   9.987  64.735  1.00  0.00    -0.155 A  
HETATM    5  C   UNL     1     -10.404  11.023  63.573  1.00  0.00    -0.402 A  
HETATM    6  C   UNL     1      -8.933  10.818  65.468  1.00  0.00    -0.210 A  
HETATM    7  C   UNL     1     -10.100  11.348  64.900  1.00  0.00    -0.323 A  
HETATM    8  C   UNL     1      -9.552  10.194  62.835  1.00  0.00    -0.216 A  
BRANCH   4   9
HETATM    9  O   UNL     1      -6.952   9.407  65.280  1.00  0.00    -0.086 OA 
HETATM   10  C   UNL     1      -5.727  10.122  65.200  1.00  0.00    -0.107 C  
ENDBRANCH   4   9
BRANCH   7  11
HETATM   11  C   UNL     1     -11.092  12.104  65.784  1.00  0.00    -0.362 C  
BRANCH  11  12
HETATM   12  C   UNL     1     -11.118  11.394  67.143  1.00  0.00    -0.305 C  
BRANCH  12  13
HETATM   13  N   UNL     1     -10.691  12.034  68.392  1.00  0.00    -0.220 NA 
HETATM   14  C   UNL     1     -11.799  12.258  69.319  1.00  0.00    -0.306 C  
BRANCH  13  15
HETATM   15  C   UNL     1      -9.596  11.280  69.057  1.00  0.00    -0.030 C  
BRANCH  15  16
HETATM   16  C   UNL     1      -9.915  10.040  69.950  1.00  0.00    -0.280 C  
BRANCH  16  17
HETATM   17  C   UNL     1      -9.472   8.681  69.362  1.00  0.00    -0.161 C  
BRANCH  17  18
HETATM   18  C   UNL     1      -9.365   7.440  70.293  1.00  0.00    -0.162 C  
HETATM   19  N   UNL     1      -8.952   8.406  72.744  1.00  0.00    -0.289 NA 
HETATM   20  C   UNL     1     -10.758   6.649  70.361  1.00  0.00    -0.297 C  
HETATM   21  C   UNL     1      -9.125   7.972  71.680  1.00  0.00    -0.150 C  
HETATM   22  C   UNL     1     -11.259   6.032  69.045  1.00  0.00    -0.298 C  
HETATM   23  C   UNL     1     -11.922   7.511  70.895  1.00  0.00    -0.278 C  
BRANCH  18  24
HETATM   24  C   UNL     1      -8.197   6.584  69.790  1.00  0.00    -0.126 A  
HETATM   25  C   UNL     1      -7.912   6.457  68.419  1.00  0.00    -0.106 A  
HETATM   26  C   UNL     1      -6.977   5.533  67.941  1.00  0.00    -0.066 A  
HETATM   27  C   UNL     1      -7.467   5.777  70.681  1.00  0.00    -0.086 A  
HETATM   28  C   UNL     1      -6.276   4.732  68.857  1.00  0.00    -0.031 A  
HETATM   29  C   UNL     1      -6.510   4.882  70.220  1.00  0.00    -0.034 A  
BRANCH  26  30
HETATM   30  O   UNL     1      -6.714   5.333  66.609  1.00  0.00    -0.057 OA 
HETATM   31  C   UNL     1      -7.829   5.285  65.726  1.00  0.00    -0.099 C  
ENDBRANCH  26  30
BRANCH  28  32
HETATM   32  O   UNL     1      -5.406   3.808  68.329  1.00  0.00    -0.011 OA 
HETATM   33  C   UNL     1      -5.733   2.437  68.528  1.00  0.00    -0.023 C  
ENDBRANCH  28  32
ENDBRANCH  18  24
ENDBRANCH  17  18
ENDBRANCH  16  17
ENDBRANCH  15  16
ENDBRANCH  13  15
ENDBRANCH  12  13
ENDBRANCH  11  12
ENDBRANCH   7  11
ENDBRANCH   2   3
TORSDOF 12
ENDMDL
MODEL      288
REMARK 921   NORMALIZED FREE ENERGY PREDICTED BY IDOCK:   -2.98 KCAL/MOL
REMARK 922        TOTAL FREE ENERGY PREDICTED BY IDOCK:   -7.29 KCAL/MOL
REMARK 923 INTER-LIGAND FREE ENERGY PREDICTED BY IDOCK:   -5.64 KCAL/MOL
REMARK 924 INTRA-LIGAND FREE ENERGY PREDICTED BY IDOCK:   -1.65 KCAL/MOL
REMARK 927      BINDING AFFINITY PREDICTED BY RF-SCORE:    0.00 PKD
ROOT
HETATM    1  C   UNL     1      -6.352  17.034  68.086  1.00  0.00    -0.142 C  
HETATM    2  O   UNL     1      -6.347  16.079  67.029  1.00  0.00    -0.295 OA 
ENDROOT
BRANCH   2   3
HETATM    3  C   UNL     1      -6.833  14.831  67.335  1.00  0.00    -0.070 A  
HETATM    4  C   UNL     1      -8.134  14.351  67.109  1.00  0.00    -0.145 A  
HETATM    5  C   UNL     1      -6.256  12.736  68.434  1.00  0.00    -0.073 A  
HETATM    6  C   UNL     1      -8.470  13.057  67.543  1.00  0.00    -0.190 A  
HETATM    7  C   UNL     1      -7.543  12.236  68.201  1.00  0.00    -0.127 A  
HETATM    8  C   UNL     1      -5.910  14.023  68.010  1.00  0.00    -0.138 A  
BRANCH   4   9
HETATM    9  O   UNL     1      -9.034  15.197  66.519  1.00  0.00    -0.268 OA 
HETATM   10  C   UNL     1     -10.088  14.619  65.762  1.00  0.00    -0.340 C  
ENDBRANCH   4   9
BRANCH   7  11
HETATM   11  C   UNL     1      -8.004  10.908  68.801  1.00  0.00    -0.139 C  
BRANCH  11  12
HETATM   12  C   UNL     1      -7.021  10.554  69.924  1.00  0.00    -0.150 C  
BRANCH  12  13
HETATM   13  N   UNL     1      -6.725   9.175  70.327  1.00  0.00    -0.049 NA 
HETATM   14  C   UNL     1      -7.465   8.764  71.518  1.00  0.00    -0.087 C  
BRANCH  13  15
HETATM   15  C   UNL     1      -6.946   8.211  69.216  1.00  0.00    -0.055 C  
BRANCH  15  16
HETATM   16  C   UNL     1      -8.256   7.365  69.148  1.00  0.00    -0.121 C  
BRANCH  16  17
HETATM   17  C   UNL     1      -8.271   6.271  68.056  1.00  0.00    -0.115 C  
BRANCH  17  18
HETATM   18  C   UNL     1      -8.586   6.660  66.584  1.00  0.00    -0.123 C  
HETATM   19  N   UNL     1      -6.230   7.203  65.459  1.00  0.00    -0.037 NA 
HETATM   20  C   UNL     1      -9.183   5.412  65.773  1.00  0.00    -0.149 C  
HETATM   21  C   UNL     1      -7.264   6.975  65.938  1.00  0.00    -0.074 C  
HETATM   22  C   UNL     1     -10.531   4.861  66.264  1.00  0.00    -0.349 C  
HETATM   23  C   UNL     1      -8.224   4.203  65.723  1.00  0.00    -0.109 C  
BRANCH  18  24
HETATM   24  C   UNL     1      -9.520   7.875  66.616  1.00  0.00    -0.270 A  
HETATM   25  C   UNL     1      -9.358   8.954  65.730  1.00  0.00    -0.286 A  
HETATM   26  C   UNL     1     -10.079  10.144  65.874  1.00  0.00    -0.254 A  
HETATM   27  C   UNL     1     -10.479   8.011  67.635  1.00  0.00    -0.301 A  
HETATM   28  C   UNL     1     -11.018  10.254  66.913  1.00  0.00    -0.070 A  
HETATM   29  C   UNL     1     -11.227   9.176  67.766  1.00  0.00     0.375 A  
BRANCH  26  30
HETATM   30  O   UNL     1      -9.905  11.243  65.072  1.00  0.00    -0.237 OA 
HETATM   31  C   UNL     1     -10.304  11.126  63.711  1.00  0.00    -0.386 C  
ENDBRANCH  26  30
BRANCH  28  32
HETATM   32  O   UNL     1     -11.661  11.462  67.038  1.00  0.00    -0.535 OA 
HETATM   33  C   UNL     1     -11.774  11.992  68.353  1.00  0.00    -0.332 C  
ENDBRANCH  28  32
ENDBRANCH  18  24
ENDBRANCH  17  18
ENDBRANCH  16  17
ENDBRANCH  15  16
ENDBRANCH  13  15
ENDBRANCH  12  13
ENDBRANCH  11  12
ENDBRANCH   7  11
ENDBRANCH   2   3
TORSDOF 12
ENDMDL
MODEL      289
REMARK 921   NORMALIZED FREE ENERGY PREDICTED BY IDOCK:   -2.95 KCAL/MOL
REMARK 922        TOTAL FREE ENERGY PREDICTED BY IDOCK:   -7.25 KCAL/MOL
REMARK 923 INTER-LIGAND FREE ENERGY PREDICTED BY IDOCK:   -7.57 KCAL/MOL
REMARK 924 INTRA-LIGAND FREE ENERGY PREDICTED BY IDOCK:    0.32 KCAL/MOL
REMARK 927      BINDING AFFINITY PREDICTED BY RF-SCORE:    0.00 PKD
ROOT
HETATM    1  C   UNL     1      -6.767   8.325  68.007  1.00  0.00    -0.065 C  
HETATM    2  O   UNL     1      -6.759   7.715  66.720  1.00  0.00    -0.062 OA 
ENDROOT
BRANCH   2   3
HETATM    3  C   UNL     1      -7.442   8.377  65.728  1.00  0.00    -0.077 A  
HETATM    4  C   UNL     1      -7.010   8.604  64.411  1.00  0.00    -0.081 A  
HETATM    5  C   UNL     1      -9.456   9.672  65.285  1.00  0.00    -0.342 A  
HETATM    6  C   UNL     1      -7.822   9.357  63.545  1.00  0.00    -0.130 A  
HETATM    7  C   UNL     1      -9.048   9.892  63.964  1.00  0.00    -0.300 A  
HETATM    8  C   UNL     1      -8.655   8.927  66.158  1.00  0.00    -0.155 A  
BRANCH   4   9
HETATM    9  O   UNL     1      -5.781   8.121  64.049  1.00  0.00    -0.055 OA 
HETATM   10  C   UNL     1      -5.741   7.033  63.135  1.00  0.00    -0.040 C  
ENDBRANCH   4   9
BRANCH   7  11
HETATM   11  C   UNL     1      -9.812  10.841  63.041  1.00  0.00    -0.344 C  
BRANCH  11  12
HETATM   12  C   UNL     1     -10.567  11.832  63.937  1.00  0.00    -0.393 C  
BRANCH  12  13
HETATM   13  N   UNL     1     -11.774  12.545  63.505  1.00  0.00    -0.497 NA 
HETATM   14  C   UNL     1     -12.982  11.731  63.618  1.00  0.00    -0.094 C  
BRANCH  13  15
HETATM   15  C   UNL     1     -11.943  13.836  64.223  1.00  0.00    -0.443 C  
BRANCH  15  16
HETATM   16  C   UNL     1     -10.740  14.491  64.972  1.00  0.00    -0.444 C  
BRANCH  16  17
HETATM   17  C   UNL     1     -11.017  14.873  66.444  1.00  0.00    -0.336 C  
BRANCH  17  18
HETATM   18  C   UNL     1     -10.021  14.429  67.553  1.00  0.00    -0.224 C  
HETATM   19  N   UNL     1      -8.455  12.589  66.426  1.00  0.00     0.096 NA 
HETATM   20  C   UNL     1      -9.051  15.636  67.972  1.00  0.00    -0.183 C  
HETATM   21  C   UNL     1      -9.134  13.385  66.931  1.00  0.00    -0.231 C  
HETATM   22  C   UNL     1      -9.723  16.865  68.604  1.00  0.00    -0.267 C  
HETATM   23  C   UNL     1      -8.205  16.173  66.797  1.00  0.00    -0.304 C  
BRANCH  18  24
HETATM   24  C   UNL     1     -10.845  13.872  68.719  1.00  0.00    -0.282 A  
HETATM   25  C   UNL     1     -11.024  12.490  68.902  1.00  0.00    -0.272 A  
HETATM   26  C   UNL     1     -11.924  11.978  69.842  1.00  0.00    -0.318 A  
HETATM   27  C   UNL     1     -11.571  14.736  69.557  1.00  0.00    -0.339 A  
HETATM   28  C   UNL     1     -12.646  12.869  70.653  1.00  0.00    -0.177 A  
HETATM   29  C   UNL     1     -12.442  14.238  70.520  1.00  0.00    -0.428 A  
BRANCH  26  30
HETATM   30  O   UNL     1     -12.176  10.640  70.008  1.00  0.00    -0.304 OA 
HETATM   31  C   UNL     1     -11.245   9.726  69.439  1.00  0.00    -0.114 C  
ENDBRANCH  26  30
BRANCH  28  32
HETATM   32  O   UNL     1     -13.552  12.314  71.525  1.00  0.00    -0.021 OA 
HETATM   33  C   UNL     1     -13.230  11.031  72.049  1.00  0.00    -0.342 C  
ENDBRANCH  28  32
ENDBRANCH  18  24
ENDBRANCH  17  18
ENDBRANCH  16  17
ENDBRANCH  15  16
ENDBRANCH  13  15
ENDBRANCH  12  13
ENDBRANCH  11  12
ENDBRANCH   7  11
ENDBRANCH   2   3
TORSDOF 12
ENDMDL
MODEL      290
REMARK 921   NORMALIZED FREE ENERGY PREDICTED BY IDOCK:   -2.94 KCAL/MOL
REMARK 922        TOTAL FREE ENERGY PREDICTED BY IDOCK:   -7.23 KCAL/MOL
REMARK 923 INTER-LIGAND FREE ENERGY PREDICTED BY IDOCK:   -6.18 KCAL/MOL
REMARK 924 INTRA-LIGAND FREE ENERGY PREDICTED BY IDOCK:   -1.05 KCAL/MOL
REMARK 927      BINDING AFFINITY PREDICTED BY RF-SCORE:    0.00 PKD
ROOT
HETATM    1  C   UNL     1     -10.291  16.626  65.403  1.00  0.00    -0.190 C  
HETATM    2  O   UNL     1     -11.425  15.780  65.247  1.00  0.00    -0.135 OA 
ENDROOT
BRANCH   2   3
HETATM    3  C   UNL     1     -11.411  14.606  65.961  1.00  0.00    -0.332 A  
HETATM    4  C   UNL     1     -11.761  14.432  67.310  1.00  0.00    -0.404 A  
HETATM    5  C   UNL     1     -10.792  12.255  65.824  1.00  0.00    -0.313 A  
HETATM    6  C   UNL     1     -11.629  13.159  67.893  1.00  0.00    -0.375 A  
HETATM    7  C   UNL     1     -11.153  12.061  67.163  1.00  0.00    -0.344 A  
HETATM    8  C   UNL     1     -10.915  13.517  65.234  1.00  0.00    -0.303 A  
BRANCH   4   9
HETATM    9  O   UNL     1     -12.165  15.535  68.013  1.00  0.00     0.073 OA 
HETATM   10  C   UNL     1     -11.237  16.123  68.914  1.00  0.00    -0.351 C  
ENDBRANCH   4   9
BRANCH   7  11
HETATM   11  C   UNL     1     -10.869  10.743  67.883  1.00  0.00    -0.313 C  
BRANCH  11  12
HETATM   12  C   UNL     1     -11.901  10.613  69.011  1.00  0.00    -0.185 C  
BRANCH  12  13
HETATM   13  N   UNL     1     -11.551  10.700  70.432  1.00  0.00    -0.330 NA 
HETATM   14  C   UNL     1     -12.679  11.108  71.268  1.00  0.00    -0.426 C  
BRANCH  13  15
HETATM   15  C   UNL     1     -10.956   9.434  70.938  1.00  0.00    -0.320 C  
BRANCH  15  16
HETATM   16  C   UNL     1      -9.417   9.190  70.849  1.00  0.00    -0.343 C  
BRANCH  16  17
HETATM   17  C   UNL     1      -8.990   8.054  69.891  1.00  0.00    -0.145 C  
BRANCH  17  18
HETATM   18  C   UNL     1      -7.481   7.726  69.715  1.00  0.00    -0.089 C  
HETATM   19  N   UNL     1      -6.277  10.064  69.275  1.00  0.00    -0.043 NA 
HETATM   20  C   UNL     1      -6.852   7.157  71.076  1.00  0.00    -0.056 C  
HETATM   21  C   UNL     1      -6.789   9.038  69.460  1.00  0.00    -0.048 C  
HETATM   22  C   UNL     1      -7.423   5.824  71.587  1.00  0.00    -0.094 C  
HETATM   23  C   UNL     1      -6.961   8.145  72.257  1.00  0.00    -0.097 C  
BRANCH  18  24
HETATM   24  C   UNL     1      -7.352   6.762  68.530  1.00  0.00    -0.087 A  
HETATM   25  C   UNL     1      -8.369   6.633  67.568  1.00  0.00    -0.121 A  
HETATM   26  C   UNL     1      -8.348   5.627  66.597  1.00  0.00    -0.112 A  
HETATM   27  C   UNL     1      -6.272   5.865  68.453  1.00  0.00    -0.029 A  
HETATM   28  C   UNL     1      -7.261   4.737  66.558  1.00  0.00    -0.077 A  
HETATM   29  C   UNL     1      -6.222   4.883  67.470  1.00  0.00    -0.039 A  
BRANCH  26  30
HETATM   30  O   UNL     1      -9.350   5.428  65.682  1.00  0.00    -0.154 OA 
HETATM   31  C   UNL     1     -10.618   5.019  66.183  1.00  0.00    -0.265 C  
ENDBRANCH  26  30
BRANCH  28  32
HETATM   32  O   UNL     1      -7.316   3.738  65.616  1.00  0.00    -0.070 OA 
HETATM   33  C   UNL     1      -7.516   2.415  66.100  1.00  0.00    -0.067 C  
ENDBRANCH  28  32
ENDBRANCH  18  24
ENDBRANCH  17  18
ENDBRANCH  16  17
ENDBRANCH  15  16
ENDBRANCH  13  15
ENDBRANCH  12  13
ENDBRANCH  11  12
ENDBRANCH   7  11
ENDBRANCH   2   3
TORSDOF 12
ENDMDL
MODEL      291
REMARK 921   NORMALIZED FREE ENERGY PREDICTED BY IDOCK:   -2.92 KCAL/MOL
REMARK 922        TOTAL FREE ENERGY PREDICTED BY IDOCK:   -7.19 KCAL/MOL
REMARK 923 INTER-LIGAND FREE ENERGY PREDICTED BY IDOCK:   -5.24 KCAL/MOL
REMARK 924 INTRA-LIGAND FREE ENERGY PREDICTED BY IDOCK:   -1.95 KCAL/MOL
REMARK 927      BINDING AFFINITY PREDICTED BY RF-SCORE:    0.00 PKD
ROOT
HETATM    1  C   UNL     1     -11.422   4.637  73.089  1.00  0.00    -0.224 C  
HETATM    2  O   UNL     1     -11.053   5.874  73.691  1.00  0.00    -0.159 OA 
ENDROOT
BRANCH   2   3
HETATM    3  C   UNL     1     -10.743   6.900  72.832  1.00  0.00    -0.277 A  
HETATM    4  C   UNL     1      -9.540   7.622  72.775  1.00  0.00    -0.198 A  
HETATM    5  C   UNL     1     -11.675   8.328  71.093  1.00  0.00    -0.308 A  
HETATM    6  C   UNL     1      -9.422   8.685  71.863  1.00  0.00    -0.369 A  
HETATM    7  C   UNL     1     -10.477   9.046  71.012  1.00  0.00    -0.339 A  
HETATM    8  C   UNL     1     -11.806   7.270  72.000  1.00  0.00    -0.332 A  
BRANCH   4   9
HETATM    9  O   UNL     1      -8.550   7.286  73.660  1.00  0.00    -0.133 OA 
HETATM   10  C   UNL     1      -7.726   8.330  74.159  1.00  0.00    -0.209 C  
ENDBRANCH   4   9
BRANCH   7  11
HETATM   11  C   UNL     1     -10.360  10.310  70.161  1.00  0.00    -0.210 C  
BRANCH  11  12
HETATM   12  C   UNL     1     -11.271  10.120  68.942  1.00  0.00    -0.170 C  
BRANCH  12  13
HETATM   13  N   UNL     1     -10.767  10.052  67.566  1.00  0.00    -0.275 NA 
HETATM   14  C   UNL     1     -10.442  11.367  67.018  1.00  0.00    -0.236 C  
BRANCH  13  15
HETATM   15  C   UNL     1      -9.605   9.132  67.444  1.00  0.00    -0.151 C  
BRANCH  15  16
HETATM   16  C   UNL     1      -9.766   7.736  66.764  1.00  0.00    -0.296 C  
BRANCH  16  17
HETATM   17  C   UNL     1      -8.580   7.302  65.873  1.00  0.00    -0.159 C  
BRANCH  17  18
HETATM   18  C   UNL     1      -8.201   5.798  65.778  1.00  0.00    -0.125 C  
HETATM   19  N   UNL     1     -10.492   4.498  65.367  1.00  0.00    -0.236 NA 
HETATM   20  C   UNL     1      -7.295   5.512  64.486  1.00  0.00    -0.064 C  
HETATM   21  C   UNL     1      -9.487   5.051  65.552  1.00  0.00    -0.117 C  
HETATM   22  C   UNL     1      -5.922   6.202  64.448  1.00  0.00    -0.025 C  
HETATM   23  C   UNL     1      -7.993   5.884  63.159  1.00  0.00    -0.108 C  
BRANCH  18  24
HETATM   24  C   UNL     1      -7.526   5.405  67.098  1.00  0.00    -0.084 A  
HETATM   25  C   UNL     1      -7.705   4.134  67.669  1.00  0.00    -0.079 A  
HETATM   26  C   UNL     1      -7.255   3.831  68.958  1.00  0.00    -0.050 A  
HETATM   27  C   UNL     1      -6.826   6.363  67.853  1.00  0.00    -0.074 A  
HETATM   28  C   UNL     1      -6.572   4.815  69.693  1.00  0.00    -0.036 A  
HETATM   29  C   UNL     1      -6.341   6.061  69.121  1.00  0.00    -0.041 A  
BRANCH  26  30
HETATM   30  O   UNL     1      -7.465   2.625  69.577  1.00  0.00    -0.044 OA 
HETATM   31  C   UNL     1      -8.063   1.591  68.802  1.00  0.00    -0.048 C  
ENDBRANCH  26  30
BRANCH  28  32
HETATM   32  O   UNL     1      -6.196   4.480  70.971  1.00  0.00    -0.017 OA 
HETATM   33  C   UNL     1      -6.463   5.439  71.987  1.00  0.00    -0.051 C  
ENDBRANCH  28  32
ENDBRANCH  18  24
ENDBRANCH  17  18
ENDBRANCH  16  17
ENDBRANCH  15  16
ENDBRANCH  13  15
ENDBRANCH  12  13
ENDBRANCH  11  12
ENDBRANCH   7  11
ENDBRANCH   2   3
TORSDOF 12
ENDMDL
MODEL      292
REMARK 921   NORMALIZED FREE ENERGY PREDICTED BY IDOCK:   -2.92 KCAL/MOL
REMARK 922        TOTAL FREE ENERGY PREDICTED BY IDOCK:   -7.18 KCAL/MOL
REMARK 923 INTER-LIGAND FREE ENERGY PREDICTED BY IDOCK:   -5.41 KCAL/MOL
REMARK 924 INTRA-LIGAND FREE ENERGY PREDICTED BY IDOCK:   -1.78 KCAL/MOL
REMARK 927      BINDING AFFINITY PREDICTED BY RF-SCORE:    0.00 PKD
ROOT
HETATM    1  C   UNL     1      -9.304  18.390  68.099  1.00  0.00    -0.317 C  
HETATM    2  O   UNL     1     -10.056  17.511  67.269  1.00  0.00    -0.305 OA 
ENDROOT
BRANCH   2   3
HETATM    3  C   UNL     1      -9.805  16.168  67.420  1.00  0.00    -0.238 A  
HETATM    4  C   UNL     1     -10.654  15.209  67.996  1.00  0.00    -0.258 A  
HETATM    5  C   UNL     1      -8.086  14.467  67.133  1.00  0.00    -0.196 A  
HETATM    6  C   UNL     1     -10.203  13.882  68.120  1.00  0.00    -0.249 A  
HETATM    7  C   UNL     1      -8.927  13.495  67.688  1.00  0.00    -0.200 A  
HETATM    8  C   UNL     1      -8.522  15.791  67.008  1.00  0.00    -0.251 A  
BRANCH   4   9
HETATM    9  O   UNL     1     -11.870  15.629  68.463  1.00  0.00    -0.355 OA 
HETATM   10  C   UNL     1     -12.205  15.320  69.809  1.00  0.00    -0.294 C  
ENDBRANCH   4   9
BRANCH   7  11
HETATM   11  C   UNL     1      -8.422  12.086  67.997  1.00  0.00    -0.168 C  
BRANCH  11  12
HETATM   12  C   UNL     1      -7.004  12.228  68.565  1.00  0.00    -0.092 C  
BRANCH  12  13
HETATM   13  N   UNL     1      -5.879  11.391  68.134  1.00  0.00    -0.046 NA 
HETATM   14  C   UNL     1      -5.175  10.771  69.255  1.00  0.00    -0.041 C  
BRANCH  13  15
HETATM   15  C   UNL     1      -6.298  10.362  67.145  1.00  0.00    -0.067 C  
BRANCH  15  16
HETATM   16  C   UNL     1      -6.490   8.876  67.581  1.00  0.00    -0.061 C  
BRANCH  16  17
HETATM   17  C   UNL     1      -7.934   8.339  67.455  1.00  0.00    -0.106 C  
BRANCH  17  18
HETATM   18  C   UNL     1      -8.692   7.867  68.727  1.00  0.00    -0.128 C  
HETATM   19  N   UNL     1      -8.119   9.658  70.618  1.00  0.00    -0.279 NA 
HETATM   20  C   UNL     1     -10.280   7.945  68.514  1.00  0.00    -0.229 C  
HETATM   21  C   UNL     1      -8.372   8.867  69.805  1.00  0.00    -0.125 C  
HETATM   22  C   UNL     1     -10.868   7.036  67.423  1.00  0.00    -0.371 C  
HETATM   23  C   UNL     1     -10.782   9.370  68.195  1.00  0.00    -0.230 C  
BRANCH  18  24
HETATM   24  C   UNL     1      -8.188   6.461  69.071  1.00  0.00    -0.115 A  
HETATM   25  C   UNL     1      -8.036   5.469  68.087  1.00  0.00    -0.096 A  
HETATM   26  C   UNL     1      -7.763   4.137  68.413  1.00  0.00    -0.070 A  
HETATM   27  C   UNL     1      -8.006   6.077  70.412  1.00  0.00    -0.107 A  
HETATM   28  C   UNL     1      -7.602   3.783  69.763  1.00  0.00    -0.052 A  
HETATM   29  C   UNL     1      -7.698   4.762  70.746  1.00  0.00    -0.069 A  
BRANCH  26  30
HETATM   30  O   UNL     1      -7.670   3.128  67.489  1.00  0.00    -0.074 OA 
HETATM   31  C   UNL     1      -8.882   2.676  66.894  1.00  0.00    -0.133 C  
ENDBRANCH  26  30
BRANCH  28  32
HETATM   32  O   UNL     1      -7.385   2.453  70.030  1.00  0.00    -0.042 OA 
HETATM   33  C   UNL     1      -8.242   1.847  70.991  1.00  0.00    -0.049 C  
ENDBRANCH  28  32
ENDBRANCH  18  24
ENDBRANCH  17  18
ENDBRANCH  16  17
ENDBRANCH  15  16
ENDBRANCH  13  15
ENDBRANCH  12  13
ENDBRANCH  11  12
ENDBRANCH   7  11
ENDBRANCH   2   3
TORSDOF 12
ENDMDL
MODEL      293
REMARK 921   NORMALIZED FREE ENERGY PREDICTED BY IDOCK:   -2.86 KCAL/MOL
REMARK 922        TOTAL FREE ENERGY PREDICTED BY IDOCK:   -7.09 KCAL/MOL
REMARK 923 INTER-LIGAND FREE ENERGY PREDICTED BY IDOCK:   -6.91 KCAL/MOL
REMARK 924 INTRA-LIGAND FREE ENERGY PREDICTED BY IDOCK:   -0.18 KCAL/MOL
REMARK 927      BINDING AFFINITY PREDICTED BY RF-SCORE:    0.00 PKD
ROOT
HETATM    1  C   UNL     1     -13.035  12.218  63.824  1.00  0.00    -0.196 C  
HETATM    2  O   UNL     1     -11.818  12.865  64.180  1.00  0.00    -0.359 OA 
ENDROOT
BRANCH   2   3
HETATM    3  C   UNL     1     -10.767  12.045  64.514  1.00  0.00    -0.312 A  
HETATM    4  C   UNL     1      -9.972  12.117  65.669  1.00  0.00    -0.249 A  
HETATM    5  C   UNL     1      -9.385  10.220  63.683  1.00  0.00    -0.338 A  
HETATM    6  C   UNL     1      -8.896  11.224  65.816  1.00  0.00    -0.154 A  
HETATM    7  C   UNL     1      -8.594  10.267  64.837  1.00  0.00    -0.192 A  
HETATM    8  C   UNL     1     -10.456  11.106  63.524  1.00  0.00    -0.422 A  
BRANCH   4   9
HETATM    9  O   UNL     1     -10.254  13.101  66.579  1.00  0.00    -0.266 OA 
HETATM   10  C   UNL     1     -11.577  13.168  67.093  1.00  0.00    -0.361 C  
ENDBRANCH   4   9
BRANCH   7  11
HETATM   11  C   UNL     1      -7.318   9.435  64.964  1.00  0.00    -0.105 C  
BRANCH  11  12
HETATM   12  C   UNL     1      -7.532   8.154  64.149  1.00  0.00    -0.106 C  
BRANCH  12  13
HETATM   13  N   UNL     1      -7.753   6.840  64.762  1.00  0.00    -0.105 NA 
HETATM   14  C   UNL     1      -6.782   5.840  64.322  1.00  0.00    -0.045 C  
BRANCH  13  15
HETATM   15  C   UNL     1      -7.789   6.918  66.247  1.00  0.00    -0.101 C  
BRANCH  15  16
HETATM   16  C   UNL     1      -8.042   5.636  67.102  1.00  0.00    -0.102 C  
BRANCH  16  17
HETATM   17  C   UNL     1      -9.339   5.658  67.943  1.00  0.00    -0.112 C  
BRANCH  17  18
HETATM   18  C   UNL     1      -9.260   5.453  69.481  1.00  0.00    -0.152 C  
HETATM   19  N   UNL     1      -9.594   2.838  69.881  1.00  0.00    -0.081 NA 
HETATM   20  C   UNL     1      -7.795   5.798  70.034  1.00  0.00    -0.091 C  
HETATM   21  C   UNL     1      -9.453   3.980  69.722  1.00  0.00    -0.195 C  
HETATM   22  C   UNL     1      -7.328   7.254  69.871  1.00  0.00    -0.084 C  
HETATM   23  C   UNL     1      -6.686   4.925  69.407  1.00  0.00    -0.051 C  
BRANCH  18  24
HETATM   24  C   UNL     1     -10.370   6.296  70.119  1.00  0.00    -0.259 A  
HETATM   25  C   UNL     1     -10.653   7.600  69.677  1.00  0.00    -0.243 A  
HETATM   26  C   UNL     1     -11.527   8.443  70.371  1.00  0.00    -0.125 A  
HETATM   27  C   UNL     1     -11.040   5.841  71.269  1.00  0.00    -0.267 A  
HETATM   28  C   UNL     1     -12.169   7.964  71.525  1.00  0.00    -0.311 A  
HETATM   29  C   UNL     1     -11.938   6.658  71.946  1.00  0.00    -0.386 A  
BRANCH  26  30
HETATM   30  O   UNL     1     -11.782   9.741  70.010  1.00  0.00    -0.189 OA 
HETATM   31  C   UNL     1     -10.663  10.607  69.860  1.00  0.00    -0.204 C  
ENDBRANCH  26  30
BRANCH  28  32
HETATM   32  O   UNL     1     -12.977   8.850  72.195  1.00  0.00    -0.360 OA 
HETATM   33  C   UNL     1     -14.369   8.556  72.213  1.00  0.00    -0.390 C  
ENDBRANCH  28  32
ENDBRANCH  18  24
ENDBRANCH  17  18
ENDBRANCH  16  17
ENDBRANCH  15  16
ENDBRANCH  13  15
ENDBRANCH  12  13
ENDBRANCH  11  12
ENDBRANCH   7  11
ENDBRANCH   2   3
TORSDOF 12
ENDMDL
MODEL      294
REMARK 921   NORMALIZED FREE ENERGY PREDICTED BY IDOCK:   -2.86 KCAL/MOL
REMARK 922        TOTAL FREE ENERGY PREDICTED BY IDOCK:   -7.09 KCAL/MOL
REMARK 923 INTER-LIGAND FREE ENERGY PREDICTED BY IDOCK:   -6.67 KCAL/MOL
REMARK 924 INTRA-LIGAND FREE ENERGY PREDICTED BY IDOCK:   -0.42 KCAL/MOL
REMARK 927      BINDING AFFINITY PREDICTED BY RF-SCORE:    0.00 PKD
ROOT
HETATM    1  C   UNL     1     -10.158  19.608  68.801  1.00  0.00    -0.437 C  
HETATM    2  O   UNL     1      -9.309  18.534  68.409  1.00  0.00    -0.312 OA 
ENDROOT
BRANCH   2   3
HETATM    3  C   UNL     1      -9.929  17.436  67.864  1.00  0.00    -0.301 A  
HETATM    4  C   UNL     1     -10.643  16.441  68.551  1.00  0.00    -0.304 A  
HETATM    5  C   UNL     1     -10.254  16.223  65.778  1.00  0.00    -0.390 A  
HETATM    6  C   UNL     1     -11.164  15.351  67.830  1.00  0.00    -0.329 A  
HETATM    7  C   UNL     1     -10.983  15.231  66.445  1.00  0.00    -0.299 A  
HETATM    8  C   UNL     1      -9.727  17.309  66.485  1.00  0.00    -0.298 A  
BRANCH   4   9
HETATM    9  O   UNL     1     -10.751  16.554  69.912  1.00  0.00    -0.329 OA 
HETATM   10  C   UNL     1     -11.550  15.597  70.594  1.00  0.00    -0.367 C  
ENDBRANCH   4   9
BRANCH   7  11
HETATM   11  C   UNL     1     -11.420  13.950  65.736  1.00  0.00    -0.324 C  
BRANCH  11  12
HETATM   12  C   UNL     1     -11.900  12.975  66.820  1.00  0.00    -0.388 C  
BRANCH  12  13
HETATM   13  N   UNL     1     -11.132  11.797  67.237  1.00  0.00    -0.269 NA 
HETATM   14  C   UNL     1     -11.731  11.107  68.378  1.00  0.00    -0.279 C  
BRANCH  13  15
HETATM   15  C   UNL     1     -10.910  10.851  66.111  1.00  0.00    -0.098 C  
BRANCH  15  16
HETATM   16  C   UNL     1      -9.957   9.626  66.280  1.00  0.00    -0.335 C  
BRANCH  16  17
HETATM   17  C   UNL     1      -8.644   9.703  65.469  1.00  0.00    -0.162 C  
BRANCH  17  18
HETATM   18  C   UNL     1      -7.282   9.508  66.192  1.00  0.00    -0.093 C  
HETATM   19  N   UNL     1      -5.414  10.198  64.419  1.00  0.00    -0.101 NA 
HETATM   20  C   UNL     1      -7.127  10.533  67.416  1.00  0.00    -0.090 C  
HETATM   21  C   UNL     1      -6.217   9.888  65.200  1.00  0.00    -0.100 C  
HETATM   22  C   UNL     1      -8.136  10.383  68.566  1.00  0.00    -0.116 C  
HETATM   23  C   UNL     1      -7.197  12.013  66.982  1.00  0.00    -0.096 C  
BRANCH  18  24
HETATM   24  C   UNL     1      -7.186   8.036  66.611  1.00  0.00    -0.081 A  
HETATM   25  C   UNL     1      -8.333   7.249  66.810  1.00  0.00    -0.119 A  
HETATM   26  C   UNL     1      -8.265   5.970  67.373  1.00  0.00    -0.106 A  
HETATM   27  C   UNL     1      -5.944   7.471  66.954  1.00  0.00    -0.046 A  
HETATM   28  C   UNL     1      -7.011   5.441  67.719  1.00  0.00    -0.066 A  
HETATM   29  C   UNL     1      -5.862   6.187  67.481  1.00  0.00    -0.017 A  
BRANCH  26  30
HETATM   30  O   UNL     1      -9.364   5.196  67.643  1.00  0.00    -0.115 OA 
HETATM   31  C   UNL     1      -9.840   4.354  66.598  1.00  0.00    -0.226 C  
ENDBRANCH  26  30
BRANCH  28  32
HETATM   32  O   UNL     1      -7.007   4.202  68.314  1.00  0.00    -0.050 OA 
HETATM   33  C   UNL     1      -6.276   3.178  67.650  1.00  0.00    -0.032 C  
ENDBRANCH  28  32
ENDBRANCH  18  24
ENDBRANCH  17  18
ENDBRANCH  16  17
ENDBRANCH  15  16
ENDBRANCH  13  15
ENDBRANCH  12  13
ENDBRANCH  11  12
ENDBRANCH   7  11
ENDBRANCH   2   3
TORSDOF 12
ENDMDL
MODEL      295
REMARK 921   NORMALIZED FREE ENERGY PREDICTED BY IDOCK:   -2.85 KCAL/MOL
REMARK 922        TOTAL FREE ENERGY PREDICTED BY IDOCK:   -7.08 KCAL/MOL
REMARK 923 INTER-LIGAND FREE ENERGY PREDICTED BY IDOCK:   -6.82 KCAL/MOL
REMARK 924 INTRA-LIGAND FREE ENERGY PREDICTED BY IDOCK:   -0.26 KCAL/MOL
REMARK 927      BINDING AFFINITY PREDICTED BY RF-SCORE:    0.00 PKD
ROOT
HETATM    1  C   UNL     1      -8.513   2.343  70.484  1.00  0.00    -0.050 C  
HETATM    2  O   UNL     1      -9.358   2.561  71.609  1.00  0.00    -0.097 OA 
ENDROOT
BRANCH   2   3
HETATM    3  C   UNL     1      -9.705   3.866  71.865  1.00  0.00    -0.169 A  
HETATM    4  C   UNL     1     -10.718   4.318  72.728  1.00  0.00    -0.137 A  
HETATM    5  C   UNL     1      -9.250   6.165  71.203  1.00  0.00    -0.161 A  
HETATM    6  C   UNL     1     -10.971   5.698  72.821  1.00  0.00    -0.320 A  
HETATM    7  C   UNL     1     -10.244   6.633  72.071  1.00  0.00    -0.206 A  
HETATM    8  C   UNL     1      -8.991   4.794  71.099  1.00  0.00    -0.167 A  
BRANCH   4   9
HETATM    9  O   UNL     1     -11.452   3.378  73.401  1.00  0.00    -0.176 OA 
HETATM   10  C   UNL     1     -10.747   2.327  74.048  1.00  0.00    -0.164 C  
ENDBRANCH   4   9
BRANCH   7  11
HETATM   11  C   UNL     1     -10.669   8.101  72.080  1.00  0.00    -0.360 C  
BRANCH  11  12
HETATM   12  C   UNL     1      -9.863   8.811  70.985  1.00  0.00    -0.230 C  
BRANCH  12  13
HETATM   13  N   UNL     1     -10.431   9.186  69.686  1.00  0.00    -0.217 NA 
HETATM   14  C   UNL     1     -11.100   8.070  69.019  1.00  0.00     0.249 C  
BRANCH  13  15
HETATM   15  C   UNL     1     -11.344  10.355  69.795  1.00  0.00    -0.289 C  
BRANCH  15  16
HETATM   16  C   UNL     1     -10.929  11.742  69.209  1.00  0.00    -0.231 C  
BRANCH  16  17
HETATM   17  C   UNL     1     -11.743  12.200  67.978  1.00  0.00    -0.409 C  
BRANCH  17  18
HETATM   18  C   UNL     1     -11.011  12.484  66.636  1.00  0.00    -0.303 C  
HETATM   19  N   UNL     1     -12.927  12.684  64.793  1.00  0.00    -0.867 NA 
HETATM   20  C   UNL     1     -10.281  13.912  66.668  1.00  0.00    -0.276 C  
HETATM   21  C   UNL     1     -12.082  12.594  65.585  1.00  0.00    -0.443 C  
HETATM   22  C   UNL     1      -9.155  14.081  67.701  1.00  0.00    -0.192 C  
HETATM   23  C   UNL     1     -11.254  15.087  66.906  1.00  0.00    -0.323 C  
BRANCH  18  24
HETATM   24  C   UNL     1     -10.056  11.314  66.373  1.00  0.00    -0.260 A  
HETATM   25  C   UNL     1      -8.664  11.498  66.304  1.00  0.00    -0.159 A  
HETATM   26  C   UNL     1      -7.803  10.482  65.878  1.00  0.00    -0.151 A  
HETATM   27  C   UNL     1     -10.559  10.043  66.042  1.00  0.00    -0.045 A  
HETATM   28  C   UNL     1      -8.339   9.228  65.540  1.00  0.00    -0.133 A  
HETATM   29  C   UNL     1      -9.709   9.014  65.652  1.00  0.00    -0.178 A  
BRANCH  26  30
HETATM   30  O   UNL     1      -6.448  10.639  65.736  1.00  0.00    -0.122 OA 
HETATM   31  C   UNL     1      -5.674  10.717  66.927  1.00  0.00    -0.062 C  
ENDBRANCH  26  30
BRANCH  28  32
HETATM   32  O   UNL     1      -7.455   8.282  65.080  1.00  0.00    -0.082 OA 
HETATM   33  C   UNL     1      -7.998   7.229  64.292  1.00  0.00    -0.093 C  
ENDBRANCH  28  32
ENDBRANCH  18  24
ENDBRANCH  17  18
ENDBRANCH  16  17
ENDBRANCH  15  16
ENDBRANCH  13  15
ENDBRANCH  12  13
ENDBRANCH  11  12
ENDBRANCH   7  11
ENDBRANCH   2   3
TORSDOF 12
ENDMDL
MODEL      296
REMARK 921   NORMALIZED FREE ENERGY PREDICTED BY IDOCK:   -2.85 KCAL/MOL
REMARK 922        TOTAL FREE ENERGY PREDICTED BY IDOCK:   -7.07 KCAL/MOL
REMARK 923 INTER-LIGAND FREE ENERGY PREDICTED BY IDOCK:   -7.02 KCAL/MOL
REMARK 924 INTRA-LIGAND FREE ENERGY PREDICTED BY IDOCK:   -0.05 KCAL/MOL
REMARK 927      BINDING AFFINITY PREDICTED BY RF-SCORE:    0.00 PKD
ROOT
HETATM    1  C   UNL     1     -10.496  18.010  65.651  1.00  0.00    -0.097 C  
HETATM    2  O   UNL     1     -10.816  16.685  65.238  1.00  0.00    -0.478 OA 
ENDROOT
BRANCH   2   3
HETATM    3  C   UNL     1     -10.106  15.673  65.837  1.00  0.00    -0.353 A  
HETATM    4  C   UNL     1     -10.550  14.366  66.095  1.00  0.00    -0.298 A  
HETATM    5  C   UNL     1      -8.000  15.172  66.953  1.00  0.00    -0.155 A  
HETATM    6  C   UNL     1      -9.699  13.475  66.774  1.00  0.00    -0.271 A  
HETATM    7  C   UNL     1      -8.422  13.861  67.203  1.00  0.00    -0.196 A  
HETATM    8  C   UNL     1      -8.839  16.069  66.282  1.00  0.00    -0.379 A  
BRANCH   4   9
HETATM    9  O   UNL     1     -11.825  14.037  65.718  1.00  0.00    -0.353 OA 
HETATM   10  C   UNL     1     -12.330  14.615  64.522  1.00  0.00    -0.398 C  
ENDBRANCH   4   9
BRANCH   7  11
HETATM   11  C   UNL     1      -7.604  12.914  68.081  1.00  0.00    -0.135 C  
BRANCH  11  12
HETATM   12  C   UNL     1      -7.567  11.556  67.368  1.00  0.00    -0.135 C  
BRANCH  12  13
HETATM   13  N   UNL     1      -7.321  10.290  68.066  1.00  0.00    -0.085 NA 
HETATM   14  C   UNL     1      -5.956   9.800  67.885  1.00  0.00    -0.050 C  
BRANCH  13  15
HETATM   15  C   UNL     1      -7.659  10.377  69.512  1.00  0.00    -0.156 C  
BRANCH  15  16
HETATM   16  C   UNL     1      -8.001   9.089  70.325  1.00  0.00    -0.124 C  
BRANCH  16  17
HETATM   17  C   UNL     1      -9.395   9.089  70.993  1.00  0.00    -0.339 C  
BRANCH  17  18
HETATM   18  C   UNL     1     -10.619   8.529  70.215  1.00  0.00    -0.238 C  
HETATM   19  N   UNL     1     -12.109   7.259  72.026  1.00  0.00    -0.300 NA 
HETATM   20  C   UNL     1     -11.534   9.717  69.648  1.00  0.00    -0.103 C  
HETATM   21  C   UNL     1     -11.466   7.804  71.225  1.00  0.00    -0.269 C  
HETATM   22  C   UNL     1     -10.882  10.648  68.613  1.00  0.00    -0.266 C  
HETATM   23  C   UNL     1     -12.089  10.640  70.756  1.00  0.00    -0.474 C  
BRANCH  18  24
HETATM   24  C   UNL     1     -10.086   7.592  69.125  1.00  0.00    -0.194 A  
HETATM   25  C   UNL     1      -9.645   6.291  69.420  1.00  0.00    -0.157 A  
HETATM   26  C   UNL     1      -8.984   5.501  68.475  1.00  0.00    -0.110 A  
HETATM   27  C   UNL     1      -9.884   8.064  67.815  1.00  0.00    -0.207 A  
HETATM   28  C   UNL     1      -8.783   6.008  67.180  1.00  0.00    -0.109 A  
HETATM   29  C   UNL     1      -9.259   7.274  66.857  1.00  0.00    -0.180 A  
BRANCH  26  30
HETATM   30  O   UNL     1      -8.481   4.253  68.740  1.00  0.00    -0.082 OA 
HETATM   31  C   UNL     1      -9.408   3.250  69.142  1.00  0.00    -0.163 C  
ENDBRANCH  26  30
BRANCH  28  32
HETATM   32  O   UNL     1      -8.084   5.210  66.306  1.00  0.00    -0.107 OA 
HETATM   33  C   UNL     1      -6.725   5.559  66.070  1.00  0.00    -0.056 C  
ENDBRANCH  28  32
ENDBRANCH  18  24
ENDBRANCH  17  18
ENDBRANCH  16  17
ENDBRANCH  15  16
ENDBRANCH  13  15
ENDBRANCH  12  13
ENDBRANCH  11  12
ENDBRANCH   7  11
ENDBRANCH   2   3
TORSDOF 12
ENDMDL
MODEL      297
REMARK 921   NORMALIZED FREE ENERGY PREDICTED BY IDOCK:   -2.83 KCAL/MOL
REMARK 922        TOTAL FREE ENERGY PREDICTED BY IDOCK:   -7.03 KCAL/MOL
REMARK 923 INTER-LIGAND FREE ENERGY PREDICTED BY IDOCK:   -6.45 KCAL/MOL
REMARK 924 INTRA-LIGAND FREE ENERGY PREDICTED BY IDOCK:   -0.58 KCAL/MOL
REMARK 927      BINDING AFFINITY PREDICTED BY RF-SCORE:    0.00 PKD
ROOT
HETATM    1  C   UNL     1      -6.417   4.763  69.768  1.00  0.00    -0.035 C  
HETATM    2  O   UNL     1      -7.088   5.129  68.567  1.00  0.00    -0.059 OA 
ENDROOT
BRANCH   2   3
HETATM    3  C   UNL     1      -7.492   6.439  68.470  1.00  0.00    -0.088 A  
HETATM    4  C   UNL     1      -8.600   7.031  69.099  1.00  0.00    -0.133 A  
HETATM    5  C   UNL     1      -7.026   8.537  67.326  1.00  0.00    -0.075 A  
HETATM    6  C   UNL     1      -8.895   8.380  68.836  1.00  0.00    -0.143 A  
HETATM    7  C   UNL     1      -8.116   9.147  67.959  1.00  0.00    -0.105 A  
HETATM    8  C   UNL     1      -6.724   7.194  67.577  1.00  0.00    -0.064 A  
BRANCH   4   9
HETATM    9  O   UNL     1      -9.377   6.241  69.903  1.00  0.00    -0.149 OA 
HETATM   10  C   UNL     1      -9.602   6.674  71.238  1.00  0.00    -0.169 C  
ENDBRANCH   4   9
BRANCH   7  11
HETATM   11  C   UNL     1      -8.574  10.554  67.577  1.00  0.00    -0.121 C  
BRANCH  11  12
HETATM   12  C   UNL     1      -8.238  10.752  66.093  1.00  0.00    -0.163 C  
BRANCH  12  13
HETATM   13  N   UNL     1      -9.140  10.358  65.006  1.00  0.00    -0.188 NA 
HETATM   14  C   UNL     1      -9.774   9.062  65.240  1.00  0.00     0.205 C  
BRANCH  13  15
HETATM   15  C   UNL     1     -10.165  11.399  64.728  1.00  0.00    -0.286 C  
BRANCH  15  16
HETATM   16  C   UNL     1      -9.798  12.914  64.807  1.00  0.00    -0.045 C  
BRANCH  16  17
HETATM   17  C   UNL     1      -9.834  13.522  66.228  1.00  0.00    -0.306 C  
BRANCH  17  18
HETATM   18  C   UNL     1     -11.129  14.219  66.732  1.00  0.00    -0.316 C  
HETATM   19  N   UNL     1     -12.922  13.914  64.782  1.00  0.00    -0.658 NA 
HETATM   20  C   UNL     1     -11.734  13.459  68.008  1.00  0.00    -0.391 C  
HETATM   21  C   UNL     1     -12.149  14.060  65.637  1.00  0.00    -0.417 C  
HETATM   22  C   UNL     1     -10.857  13.439  69.270  1.00  0.00    -0.085 C  
HETATM   23  C   UNL     1     -12.098  11.986  67.722  1.00  0.00     0.031 C  
BRANCH  18  24
HETATM   24  C   UNL     1     -10.790  15.690  66.999  1.00  0.00    -0.294 A  
HETATM   25  C   UNL     1      -9.844  16.382  66.224  1.00  0.00    -0.336 A  
HETATM   26  C   UNL     1      -9.388  17.657  66.575  1.00  0.00    -0.272 A  
HETATM   27  C   UNL     1     -11.309  16.349  68.128  1.00  0.00    -0.205 A  
HETATM   28  C   UNL     1      -9.916  18.281  67.718  1.00  0.00    -0.332 A  
HETATM   29  C   UNL     1     -10.890  17.630  68.467  1.00  0.00    -0.075 A  
BRANCH  26  30
HETATM   30  O   UNL     1      -8.421  18.340  65.883  1.00  0.00    -0.499 OA 
HETATM   31  C   UNL     1      -7.073  17.922  66.064  1.00  0.00    -0.305 C  
ENDBRANCH  26  30
BRANCH  28  32
HETATM   32  O   UNL     1      -9.397  19.511  68.045  1.00  0.00    -0.315 OA 
HETATM   33  C   UNL     1      -9.994  20.183  69.147  1.00  0.00    -0.061 C  
ENDBRANCH  28  32
ENDBRANCH  18  24
ENDBRANCH  17  18
ENDBRANCH  16  17
ENDBRANCH  15  16
ENDBRANCH  13  15
ENDBRANCH  12  13
ENDBRANCH  11  12
ENDBRANCH   7  11
ENDBRANCH   2   3
TORSDOF 12
ENDMDL
MODEL      298
REMARK 921   NORMALIZED FREE ENERGY PREDICTED BY IDOCK:   -2.79 KCAL/MOL
REMARK 922        TOTAL FREE ENERGY PREDICTED BY IDOCK:   -6.98 KCAL/MOL
REMARK 923 INTER-LIGAND FREE ENERGY PREDICTED BY IDOCK:   -7.35 KCAL/MOL
REMARK 924 INTRA-LIGAND FREE ENERGY PREDICTED BY IDOCK:    0.38 KCAL/MOL
REMARK 927      BINDING AFFINITY PREDICTED BY RF-SCORE:    0.00 PKD
ROOT
HETATM    1  C   UNL     1     -12.940   6.364  72.310  1.00  0.00     0.210 C  
HETATM    2  O   UNL     1     -11.529   6.166  72.310  1.00  0.00    -0.285 OA 
ENDROOT
BRANCH   2   3
HETATM    3  C   UNL     1     -10.795   7.020  71.523  1.00  0.00    -0.230 A  
HETATM    4  C   UNL     1      -9.619   6.719  70.817  1.00  0.00    -0.168 A  
HETATM    5  C   UNL     1     -10.622   9.342  70.810  1.00  0.00    -0.371 A  
HETATM    6  C   UNL     1      -8.968   7.741  70.105  1.00  0.00    -0.146 A  
HETATM    7  C   UNL     1      -9.459   9.054  70.087  1.00  0.00    -0.217 A  
HETATM    8  C   UNL     1     -11.278   8.334  71.525  1.00  0.00    -0.316 A  
BRANCH   4   9
HETATM    9  O   UNL     1      -9.131   5.442  70.903  1.00  0.00    -0.135 OA 
HETATM   10  C   UNL     1      -7.736   5.281  71.119  1.00  0.00    -0.101 C  
ENDBRANCH   4   9
BRANCH   7  11
HETATM   11  C   UNL     1      -8.627  10.162  69.440  1.00  0.00    -0.183 C  
BRANCH  11  12
HETATM   12  C   UNL     1      -9.147  10.340  68.008  1.00  0.00    -0.132 C  
BRANCH  12  13
HETATM   13  N   UNL     1      -8.264  10.501  66.848  1.00  0.00    -0.121 NA 
HETATM   14  C   UNL     1      -8.360   9.388  65.906  1.00  0.00    -0.120 C  
BRANCH  13  15
HETATM   15  C   UNL     1      -8.490  11.797  66.153  1.00  0.00     0.048 C  
BRANCH  15  16
HETATM   16  C   UNL     1      -9.551  12.809  66.688  1.00  0.00    -0.255 C  
BRANCH  16  17
HETATM   17  C   UNL     1      -9.971  13.907  65.684  1.00  0.00    -0.298 C  
BRANCH  17  18
HETATM   18  C   UNL     1     -10.726  15.166  66.194  1.00  0.00    -0.327 C  
HETATM   19  N   UNL     1     -11.321  16.586  64.017  1.00  0.00    -1.064 NA 
HETATM   20  C   UNL     1     -12.132  14.766  66.856  1.00  0.00    -0.114 C  
HETATM   21  C   UNL     1     -11.063  15.980  64.975  1.00  0.00    -0.336 C  
HETATM   22  C   UNL     1     -12.069  13.886  68.114  1.00  0.00    -0.317 C  
HETATM   23  C   UNL     1     -13.080  14.039  65.878  1.00  0.00    -0.010 C  
BRANCH  18  24
HETATM   24  C   UNL     1      -9.789  15.912  67.151  1.00  0.00    -0.232 A  
HETATM   25  C   UNL     1      -9.292  17.191  66.848  1.00  0.00    -0.260 A  
HETATM   26  C   UNL     1      -8.292  17.798  67.615  1.00  0.00    -0.228 A  
HETATM   27  C   UNL     1      -9.280  15.273  68.295  1.00  0.00    -0.189 A  
HETATM   28  C   UNL     1      -7.793  17.126  68.743  1.00  0.00    -0.258 A  
HETATM   29  C   UNL     1      -8.312  15.882  69.086  1.00  0.00    -0.253 A  
BRANCH  26  30
HETATM   30  O   UNL     1      -7.735  19.015  67.319  1.00  0.00    -0.235 OA 
HETATM   31  C   UNL     1      -7.813  19.456  65.968  1.00  0.00    -0.281 C  
ENDBRANCH  26  30
BRANCH  28  32
HETATM   32  O   UNL     1      -6.778  17.745  69.432  1.00  0.00    -0.247 OA 
HETATM   33  C   UNL     1      -5.552  17.927  68.734  1.00  0.00    -0.179 C  
ENDBRANCH  28  32
ENDBRANCH  18  24
ENDBRANCH  17  18
ENDBRANCH  16  17
ENDBRANCH  15  16
ENDBRANCH  13  15
ENDBRANCH  12  13
ENDBRANCH  11  12
ENDBRANCH   7  11
ENDBRANCH   2   3
TORSDOF 12
ENDMDL
MODEL      299
REMARK 921   NORMALIZED FREE ENERGY PREDICTED BY IDOCK:   -2.78 KCAL/MOL
REMARK 922        TOTAL FREE ENERGY PREDICTED BY IDOCK:   -6.96 KCAL/MOL
REMARK 923 INTER-LIGAND FREE ENERGY PREDICTED BY IDOCK:   -5.82 KCAL/MOL
REMARK 924 INTRA-LIGAND FREE ENERGY PREDICTED BY IDOCK:   -1.13 KCAL/MOL
REMARK 927      BINDING AFFINITY PREDICTED BY RF-SCORE:    0.00 PKD
ROOT
HETATM    1  C   UNL     1      -9.036  18.477  68.134  1.00  0.00    -0.309 C  
HETATM    2  O   UNL     1      -9.739  17.610  67.249  1.00  0.00    -0.271 OA 
ENDROOT
BRANCH   2   3
HETATM    3  C   UNL     1      -9.626  16.264  67.499  1.00  0.00    -0.230 A  
HETATM    4  C   UNL     1     -10.525  15.459  68.219  1.00  0.00    -0.241 A  
HETATM    5  C   UNL     1      -8.137  14.355  67.235  1.00  0.00    -0.209 A  
HETATM    6  C   UNL     1     -10.215  14.103  68.425  1.00  0.00    -0.247 A  
HETATM    7  C   UNL     1      -9.031  13.536  67.936  1.00  0.00    -0.200 A  
HETATM    8  C   UNL     1      -8.433  15.707  67.026  1.00  0.00    -0.257 A  
BRANCH   4   9
HETATM    9  O   UNL     1     -11.644  16.056  68.737  1.00  0.00    -0.377 OA 
HETATM   10  C   UNL     1     -11.853  15.964  70.139  1.00  0.00    -0.314 C  
ENDBRANCH   4   9
BRANCH   7  11
HETATM   11  C   UNL     1      -8.661  12.106  68.329  1.00  0.00    -0.175 C  
BRANCH  11  12
HETATM   12  C   UNL     1      -7.275  12.162  68.985  1.00  0.00    -0.037 C  
BRANCH  12  13
HETATM   13  N   UNL     1      -6.348  11.026  69.000  1.00  0.00    -0.044 NA 
HETATM   14  C   UNL     1      -5.968  10.624  70.353  1.00  0.00    -0.119 C  
BRANCH  13  15
HETATM   15  C   UNL     1      -6.879   9.865  68.238  1.00  0.00    -0.064 C  
BRANCH  15  16
HETATM   16  C   UNL     1      -7.293   8.554  68.977  1.00  0.00    -0.081 C  
BRANCH  16  17
HETATM   17  C   UNL     1      -7.445   7.312  68.069  1.00  0.00    -0.102 C  
BRANCH  17  18
HETATM   18  C   UNL     1      -8.788   6.529  68.058  1.00  0.00    -0.114 C  
HETATM   19  N   UNL     1     -10.552   8.131  66.861  1.00  0.00    -0.311 NA 
HETATM   20  C   UNL     1      -8.685   5.221  67.134  1.00  0.00    -0.107 C  
HETATM   21  C   UNL     1      -9.795   7.425  67.390  1.00  0.00    -0.169 C  
HETATM   22  C   UNL     1      -7.679   4.147  67.581  1.00  0.00    -0.079 C  
HETATM   23  C   UNL     1      -8.338   5.541  65.664  1.00  0.00    -0.133 C  
BRANCH  18  24
HETATM   24  C   UNL     1      -9.158   6.223  69.514  1.00  0.00    -0.137 A  
HETATM   25  C   UNL     1      -8.198   5.790  70.444  1.00  0.00    -0.107 A  
HETATM   26  C   UNL     1      -8.555   5.327  71.715  1.00  0.00    -0.130 A  
HETATM   27  C   UNL     1     -10.504   6.223  69.923  1.00  0.00    -0.284 A  
HETATM   28  C   UNL     1      -9.910   5.326  72.087  1.00  0.00    -0.171 A  
HETATM   29  C   UNL     1     -10.867   5.800  71.196  1.00  0.00    -0.316 A  
BRANCH  26  30
HETATM   30  O   UNL     1      -7.657   4.837  72.629  1.00  0.00    -0.087 OA 
HETATM   31  C   UNL     1      -7.099   3.554  72.370  1.00  0.00    -0.046 C  
ENDBRANCH  26  30
BRANCH  28  32
HETATM   32  O   UNL     1     -10.208   4.815  73.328  1.00  0.00    -0.153 OA 
HETATM   33  C   UNL     1     -11.247   3.845  73.385  1.00  0.00    -0.199 C  
ENDBRANCH  28  32
ENDBRANCH  18  24
ENDBRANCH  17  18
ENDBRANCH  16  17
ENDBRANCH  15  16
ENDBRANCH  13  15
ENDBRANCH  12  13
ENDBRANCH  11  12
ENDBRANCH   7  11
ENDBRANCH   2   3
TORSDOF 12
ENDMDL
MODEL      300
REMARK 921   NORMALIZED FREE ENERGY PREDICTED BY IDOCK:   -2.78 KCAL/MOL
REMARK 922        TOTAL FREE ENERGY PREDICTED BY IDOCK:   -6.95 KCAL/MOL
REMARK 923 INTER-LIGAND FREE ENERGY PREDICTED BY IDOCK:   -5.92 KCAL/MOL
REMARK 924 INTRA-LIGAND FREE ENERGY PREDICTED BY IDOCK:   -1.04 KCAL/MOL
REMARK 927      BINDING AFFINITY PREDICTED BY RF-SCORE:    0.00 PKD
ROOT
HETATM    1  C   UNL     1      -8.841   4.005  64.815  1.00  0.00    -0.130 C  
HETATM    2  O   UNL     1      -8.906   5.425  64.900  1.00  0.00    -0.136 OA 
ENDROOT
BRANCH   2   3
HETATM    3  C   UNL     1      -8.077   6.018  65.821  1.00  0.00    -0.123 A  
HETATM    4  C   UNL     1      -7.403   7.243  65.687  1.00  0.00    -0.075 A  
HETATM    5  C   UNL     1      -7.006   5.670  67.980  1.00  0.00    -0.066 A  
HETATM    6  C   UNL     1      -6.544   7.667  66.717  1.00  0.00    -0.061 A  
HETATM    7  C   UNL     1      -6.340   6.896  67.870  1.00  0.00    -0.042 A  
HETATM    8  C   UNL     1      -7.859   5.235  66.961  1.00  0.00    -0.100 A  
BRANCH   4   9
HETATM    9  O   UNL     1      -7.575   7.944  64.524  1.00  0.00    -0.095 OA 
HETATM   10  C   UNL     1      -7.116   9.288  64.487  1.00  0.00    -0.093 C  
ENDBRANCH   4   9
BRANCH   7  11
HETATM   11  C   UNL     1      -5.272   7.318  68.879  1.00  0.00    -0.014 C  
BRANCH  11  12
HETATM   12  C   UNL     1      -5.854   7.079  70.278  1.00  0.00    -0.024 C  
BRANCH  12  13
HETATM   13  N   UNL     1      -6.684   8.062  70.982  1.00  0.00    -0.040 NA 
HETATM   14  C   UNL     1      -6.097   9.400  70.983  1.00  0.00    -0.073 C  
BRANCH  13  15
HETATM   15  C   UNL     1      -8.072   8.100  70.449  1.00  0.00    -0.108 C  
BRANCH  15  16
HETATM   16  C   UNL     1      -9.014   9.302  70.776  1.00  0.00    -0.292 C  
BRANCH  16  17
HETATM   17  C   UNL     1      -9.186  10.327  69.632  1.00  0.00    -0.155 C  
BRANCH  17  18
HETATM   18  C   UNL     1     -10.457  10.276  68.739  1.00  0.00    -0.222 C  
HETATM   19  N   UNL     1     -10.624   7.765  67.858  1.00  0.00    -0.190 NA 
HETATM   20  C   UNL     1     -11.782  10.525  69.608  1.00  0.00    -0.328 C  
HETATM   21  C   UNL     1     -10.560   8.864  68.230  1.00  0.00    -0.152 C  
HETATM   22  C   UNL     1     -11.907  11.900  70.284  1.00  0.00    -0.368 C  
HETATM   23  C   UNL     1     -11.979   9.483  70.731  1.00  0.00    -0.326 C  
BRANCH  18  24
HETATM   24  C   UNL     1     -10.269  11.290  67.605  1.00  0.00    -0.206 A  
HETATM   25  C   UNL     1      -9.800  12.592  67.850  1.00  0.00    -0.218 A  
HETATM   26  C   UNL     1      -9.805  13.579  66.860  1.00  0.00    -0.257 A  
HETATM   27  C   UNL     1     -10.703  10.992  66.301  1.00  0.00    -0.273 A  
HETATM   28  C   UNL     1     -10.261  13.253  65.571  1.00  0.00    -0.290 A  
HETATM   29  C   UNL     1     -10.680  11.955  65.299  1.00  0.00    -0.331 A  
BRANCH  26  30
HETATM   30  O   UNL     1      -9.417  14.877  67.073  1.00  0.00    -0.214 OA 
HETATM   31  C   UNL     1      -8.028  15.117  67.272  1.00  0.00    -0.205 C  
ENDBRANCH  26  30
BRANCH  28  32
HETATM   32  O   UNL     1     -10.291  14.274  64.651  1.00  0.00    -0.417 OA 
HETATM   33  C   UNL     1     -11.570  14.816  64.342  1.00  0.00    -0.295 C  
ENDBRANCH  28  32
ENDBRANCH  18  24
ENDBRANCH  17  18
ENDBRANCH  16  17
ENDBRANCH  15  16
ENDBRANCH  13  15
ENDBRANCH  12  13
ENDBRANCH  11  12
ENDBRANCH   7  11
ENDBRANCH   2   3
TORSDOF 12
ENDMDL
MODEL      301
REMARK 921   NORMALIZED FREE ENERGY PREDICTED BY IDOCK:   -2.76 KCAL/MOL
REMARK 922        TOTAL FREE ENERGY PREDICTED BY IDOCK:   -6.92 KCAL/MOL
REMARK 923 INTER-LIGAND FREE ENERGY PREDICTED BY IDOCK:   -5.77 KCAL/MOL
REMARK 924 INTRA-LIGAND FREE ENERGY PREDICTED BY IDOCK:   -1.15 KCAL/MOL
REMARK 927      BINDING AFFINITY PREDICTED BY RF-SCORE:    0.00 PKD
ROOT
HETATM    1  C   UNL     1      -7.997   5.009  65.391  1.00  0.00    -0.108 C  
HETATM    2  O   UNL     1      -7.070   5.074  66.470  1.00  0.00    -0.066 OA 
ENDROOT
BRANCH   2   3
HETATM    3  C   UNL     1      -7.136   6.197  67.261  1.00  0.00    -0.070 A  
HETATM    4  C   UNL     1      -7.211   6.240  68.662  1.00  0.00    -0.085 A  
HETATM    5  C   UNL     1      -7.323   8.623  67.180  1.00  0.00    -0.088 A  
HETATM    6  C   UNL     1      -7.331   7.486  69.303  1.00  0.00    -0.089 A  
HETATM    7  C   UNL     1      -7.382   8.685  68.577  1.00  0.00    -0.085 A  
HETATM    8  C   UNL     1      -7.208   7.389  66.531  1.00  0.00    -0.079 A  
BRANCH   4   9
HETATM    9  O   UNL     1      -7.220   5.050  69.340  1.00  0.00    -0.054 OA 
HETATM   10  C   UNL     1      -6.163   4.804  70.258  1.00  0.00    -0.022 C  
ENDBRANCH   4   9
BRANCH   7  11
HETATM   11  C   UNL     1      -7.682   9.995  69.306  1.00  0.00    -0.117 C  
BRANCH  11  12
HETATM   12  C   UNL     1      -9.059  10.473  68.829  1.00  0.00    -0.166 C  
BRANCH  12  13
HETATM   13  N   UNL     1     -10.309   9.787  69.171  1.00  0.00    -0.200 NA 
HETATM   14  C   UNL     1     -11.208  10.616  69.972  1.00  0.00    -0.309 C  
BRANCH  13  15
HETATM   15  C   UNL     1     -11.010   9.271  67.964  1.00  0.00    -0.015 C  
BRANCH  15  16
HETATM   16  C   UNL     1     -10.857   9.995  66.589  1.00  0.00    -0.058 C  
BRANCH  16  17
HETATM   17  C   UNL     1     -11.209  11.500  66.601  1.00  0.00    -0.336 C  
BRANCH  17  18
HETATM   18  C   UNL     1     -10.571  12.446  65.546  1.00  0.00    -0.307 C  
HETATM   19  N   UNL     1      -9.037  10.893  64.014  1.00  0.00    -0.177 NA 
HETATM   20  C   UNL     1     -11.687  13.060  64.571  1.00  0.00    -0.419 C  
HETATM   21  C   UNL     1      -9.697  11.582  64.677  1.00  0.00    -0.212 C  
HETATM   22  C   UNL     1     -12.745  13.962  65.227  1.00  0.00    -0.485 C  
HETATM   23  C   UNL     1     -12.473  11.983  63.792  1.00  0.00    -0.594 C  
BRANCH  18  24
HETATM   24  C   UNL     1      -9.767  13.510  66.303  1.00  0.00    -0.287 A  
HETATM   25  C   UNL     1      -8.452  13.270  66.738  1.00  0.00     0.011 A  
HETATM   26  C   UNL     1      -7.781  14.153  67.590  1.00  0.00    -0.174 A  
HETATM   27  C   UNL     1     -10.378  14.707  66.716  1.00  0.00    -0.268 A  
HETATM   28  C   UNL     1      -8.426  15.333  67.997  1.00  0.00    -0.147 A  
HETATM   29  C   UNL     1      -9.708  15.610  67.533  1.00  0.00    -0.222 A  
BRANCH  26  30
HETATM   30  O   UNL     1      -6.524  13.927  68.088  1.00  0.00    -0.096 OA 
HETATM   31  C   UNL     1      -5.757  12.895  67.478  1.00  0.00    -0.099 C  
ENDBRANCH  26  30
BRANCH  28  32
HETATM   32  O   UNL     1      -7.741  16.141  68.873  1.00  0.00    -0.181 OA 
HETATM   33  C   UNL     1      -8.119  17.512  68.907  1.00  0.00    -0.168 C  
ENDBRANCH  28  32
ENDBRANCH  18  24
ENDBRANCH  17  18
ENDBRANCH  16  17
ENDBRANCH  15  16
ENDBRANCH  13  15
ENDBRANCH  12  13
ENDBRANCH  11  12
ENDBRANCH   7  11
ENDBRANCH   2   3
TORSDOF 12
ENDMDL
MODEL      302
REMARK 921   NORMALIZED FREE ENERGY PREDICTED BY IDOCK:   -2.76 KCAL/MOL
REMARK 922        TOTAL FREE ENERGY PREDICTED BY IDOCK:   -6.91 KCAL/MOL
REMARK 923 INTER-LIGAND FREE ENERGY PREDICTED BY IDOCK:   -6.61 KCAL/MOL
REMARK 924 INTRA-LIGAND FREE ENERGY PREDICTED BY IDOCK:   -0.31 KCAL/MOL
REMARK 927      BINDING AFFINITY PREDICTED BY RF-SCORE:    0.00 PKD
ROOT
HETATM    1  C   UNL     1      -8.888   1.878  74.306  1.00  0.00    -0.061 C  
HETATM    2  O   UNL     1     -10.184   2.135  73.774  1.00  0.00    -0.095 OA 
ENDROOT
BRANCH   2   3
HETATM    3  C   UNL     1     -10.244   2.998  72.707  1.00  0.00    -0.157 A  
HETATM    4  C   UNL     1      -9.785   2.761  71.401  1.00  0.00    -0.147 A  
HETATM    5  C   UNL     1     -10.847   5.272  72.077  1.00  0.00    -0.230 A  
HETATM    6  C   UNL     1      -9.878   3.789  70.446  1.00  0.00    -0.135 A  
HETATM    7  C   UNL     1     -10.410   5.046  70.766  1.00  0.00    -0.265 A  
HETATM    8  C   UNL     1     -10.757   4.258  73.037  1.00  0.00    -0.272 A  
BRANCH   4   9
HETATM    9  O   UNL     1      -9.215   1.545  71.134  1.00  0.00    -0.074 OA 
HETATM   10  C   UNL     1      -7.909   1.535  70.574  1.00  0.00    -0.038 C  
ENDBRANCH   4   9
BRANCH   7  11
HETATM   11  C   UNL     1     -10.334   6.180  69.745  1.00  0.00    -0.269 C  
BRANCH  11  12
HETATM   12  C   UNL     1     -10.840   7.450  70.440  1.00  0.00    -0.243 C  
BRANCH  12  13
HETATM   13  N   UNL     1     -10.653   8.796  69.889  1.00  0.00    -0.222 NA 
HETATM   14  C   UNL     1     -11.292   9.832  70.698  1.00  0.00    -0.330 C  
BRANCH  13  15
HETATM   15  C   UNL     1      -9.217   9.113  69.670  1.00  0.00    -0.168 C  
BRANCH  15  16
HETATM   16  C   UNL     1      -8.761  10.582  69.404  1.00  0.00    -0.093 C  
BRANCH  16  17
HETATM   17  C   UNL     1      -7.386  10.724  68.710  1.00  0.00    -0.104 C  
BRANCH  17  18
HETATM   18  C   UNL     1      -7.321  11.139  67.214  1.00  0.00    -0.118 C  
HETATM   19  N   UNL     1      -5.206  12.749  67.001  1.00  0.00    -0.326 NA 
HETATM   20  C   UNL     1      -7.006   9.875  66.279  1.00  0.00    -0.100 C  
HETATM   21  C   UNL     1      -6.134  12.054  67.081  1.00  0.00    -0.155 C  
HETATM   22  C   UNL     1      -8.060   8.756  66.265  1.00  0.00    -0.107 C  
HETATM   23  C   UNL     1      -5.664   9.188  66.614  1.00  0.00    -0.050 C  
BRANCH  18  24
HETATM   24  C   UNL     1      -8.638  11.843  66.870  1.00  0.00    -0.185 A  
HETATM   25  C   UNL     1      -8.765  13.242  66.930  1.00  0.00    -0.152 A  
HETATM   26  C   UNL     1     -10.004  13.879  66.806  1.00  0.00    -0.269 A  
HETATM   27  C   UNL     1      -9.805  11.096  66.629  1.00  0.00    -0.231 A  
HETATM   28  C   UNL     1     -11.153  13.102  66.580  1.00  0.00    -0.292 A  
HETATM   29  C   UNL     1     -11.037  11.721  66.468  1.00  0.00    -0.364 A  
BRANCH  26  30
HETATM   30  O   UNL     1     -10.181  15.234  66.921  1.00  0.00    -0.259 OA 
HETATM   31  C   UNL     1      -9.089  16.067  66.547  1.00  0.00    -0.285 C  
ENDBRANCH  26  30
BRANCH  28  32
HETATM   32  O   UNL     1     -12.350  13.775  66.516  1.00  0.00    -0.428 OA 
HETATM   33  C   UNL     1     -12.902  13.972  65.220  1.00  0.00    -0.384 C  
ENDBRANCH  28  32
ENDBRANCH  18  24
ENDBRANCH  17  18
ENDBRANCH  16  17
ENDBRANCH  15  16
ENDBRANCH  13  15
ENDBRANCH  12  13
ENDBRANCH  11  12
ENDBRANCH   7  11
ENDBRANCH   2   3
TORSDOF 12
ENDMDL
MODEL      303
REMARK 921   NORMALIZED FREE ENERGY PREDICTED BY IDOCK:   -2.74 KCAL/MOL
REMARK 922        TOTAL FREE ENERGY PREDICTED BY IDOCK:   -6.88 KCAL/MOL
REMARK 923 INTER-LIGAND FREE ENERGY PREDICTED BY IDOCK:   -7.07 KCAL/MOL
REMARK 924 INTRA-LIGAND FREE ENERGY PREDICTED BY IDOCK:    0.19 KCAL/MOL
REMARK 927      BINDING AFFINITY PREDICTED BY RF-SCORE:    0.00 PKD
ROOT
HETATM    1  C   UNL     1      -9.655  14.547  66.491  1.00  0.00    -0.293 C  
HETATM    2  O   UNL     1     -11.018  14.534  66.903  1.00  0.00    -0.302 OA 
ENDROOT
BRANCH   2   3
HETATM    3  C   UNL     1     -11.325  13.721  67.968  1.00  0.00    -0.288 A  
HETATM    4  C   UNL     1     -11.262  12.319  68.006  1.00  0.00    -0.269 A  
HETATM    5  C   UNL     1     -12.219  13.738  70.232  1.00  0.00    -0.429 A  
HETATM    6  C   UNL     1     -11.672  11.647  69.171  1.00  0.00    -0.390 A  
HETATM    7  C   UNL     1     -12.147  12.342  70.293  1.00  0.00    -0.376 A  
HETATM    8  C   UNL     1     -11.817  14.418  69.077  1.00  0.00    -0.358 A  
BRANCH   4   9
HETATM    9  O   UNL     1     -10.852  11.665  66.874  1.00  0.00    -0.250 OA 
HETATM   10  C   UNL     1      -9.570  11.055  66.891  1.00  0.00    -0.182 C  
ENDBRANCH   4   9
BRANCH   7  11
HETATM   11  C   UNL     1     -12.737  11.563  71.468  1.00  0.00    -0.439 C  
BRANCH  11  12
HETATM   12  C   UNL     1     -13.179  10.197  70.928  1.00  0.00    -0.289 C  
BRANCH  12  13
HETATM   13  N   UNL     1     -13.143   8.967  71.727  1.00  0.00    -0.356 NA 
HETATM   14  C   UNL     1     -14.324   8.129  71.527  1.00  0.00    -0.430 C  
BRANCH  13  15
HETATM   15  C   UNL     1     -11.900   8.186  71.491  1.00  0.00    -0.294 C  
BRANCH  15  16
HETATM   16  C   UNL     1     -10.558   8.912  71.160  1.00  0.00    -0.335 C  
BRANCH  16  17
HETATM   17  C   UNL     1     -10.027   8.682  69.727  1.00  0.00    -0.190 C  
BRANCH  17  18
HETATM   18  C   UNL     1      -8.660   7.971  69.520  1.00  0.00    -0.136 C  
HETATM   19  N   UNL     1      -8.316   7.816  66.880  1.00  0.00    -0.122 NA 
HETATM   20  C   UNL     1      -7.453   8.874  70.067  1.00  0.00    -0.057 C  
HETATM   21  C   UNL     1      -8.456   7.872  68.032  1.00  0.00    -0.123 C  
HETATM   22  C   UNL     1      -7.448   9.166  71.577  1.00  0.00     0.044 C  
HETATM   23  C   UNL     1      -7.355  10.248  69.370  1.00  0.00    -0.115 C  
BRANCH  18  24
HETATM   24  C   UNL     1      -8.747   6.594  70.187  1.00  0.00    -0.141 A  
HETATM   25  C   UNL     1      -8.176   6.347  71.447  1.00  0.00    -0.121 A  
HETATM   26  C   UNL     1      -8.082   5.056  71.978  1.00  0.00    -0.112 A  
HETATM   27  C   UNL     1      -9.275   5.494  69.488  1.00  0.00    -0.151 A  
HETATM   28  C   UNL     1      -8.605   3.977  71.246  1.00  0.00    -0.088 A  
HETATM   29  C   UNL     1      -9.220   4.211  70.021  1.00  0.00    -0.213 A  
BRANCH  26  30
HETATM   30  O   UNL     1      -7.476   4.764  73.173  1.00  0.00    -0.083 OA 
HETATM   31  C   UNL     1      -8.210   3.969  74.097  1.00  0.00    -0.091 C  
ENDBRANCH  26  30
BRANCH  28  32
HETATM   32  O   UNL     1      -8.442   2.726  71.791  1.00  0.00    -0.063 OA 
HETATM   33  C   UNL     1      -7.564   1.841  71.106  1.00  0.00    -0.032 C  
ENDBRANCH  28  32
ENDBRANCH  18  24
ENDBRANCH  17  18
ENDBRANCH  16  17
ENDBRANCH  15  16
ENDBRANCH  13  15
ENDBRANCH  12  13
ENDBRANCH  11  12
ENDBRANCH   7  11
ENDBRANCH   2   3
TORSDOF 12
ENDMDL
MODEL      304
REMARK 921   NORMALIZED FREE ENERGY PREDICTED BY IDOCK:   -2.74 KCAL/MOL
REMARK 922        TOTAL FREE ENERGY PREDICTED BY IDOCK:   -6.88 KCAL/MOL
REMARK 923 INTER-LIGAND FREE ENERGY PREDICTED BY IDOCK:   -5.85 KCAL/MOL
REMARK 924 INTRA-LIGAND FREE ENERGY PREDICTED BY IDOCK:   -1.02 KCAL/MOL
REMARK 927      BINDING AFFINITY PREDICTED BY RF-SCORE:    0.00 PKD
ROOT
HETATM    1  C   UNL     1     -13.401  13.690  71.213  1.00  0.00    -0.189 C  
HETATM    2  O   UNL     1     -12.082  13.746  70.677  1.00  0.00    -0.335 OA 
ENDROOT
BRANCH   2   3
HETATM    3  C   UNL     1     -11.874  13.065  69.501  1.00  0.00    -0.323 A  
HETATM    4  C   UNL     1     -11.608  11.694  69.354  1.00  0.00    -0.327 A  
HETATM    5  C   UNL     1     -11.621  13.367  67.099  1.00  0.00    -0.399 A  
HETATM    6  C   UNL     1     -11.363  11.179  68.069  1.00  0.00    -0.380 A  
HETATM    7  C   UNL     1     -11.371  12.000  66.933  1.00  0.00    -0.400 A  
HETATM    8  C   UNL     1     -11.863  13.892  68.372  1.00  0.00    -0.409 A  
BRANCH   4   9
HETATM    9  O   UNL     1     -11.547  10.929  70.488  1.00  0.00    -0.322 OA 
HETATM   10  C   UNL     1     -12.696  10.170  70.837  1.00  0.00    -0.357 C  
ENDBRANCH   4   9
BRANCH   7  11
HETATM   11  C   UNL     1     -10.934  11.426  65.585  1.00  0.00    -0.254 C  
BRANCH  11  12
HETATM   12  C   UNL     1     -10.241  10.087  65.868  1.00  0.00    -0.205 C  
BRANCH  12  13
HETATM   13  N   UNL     1      -8.785   9.943  65.972  1.00  0.00    -0.134 NA 
HETATM   14  C   UNL     1      -8.061  10.959  65.212  1.00  0.00     0.060 C  
BRANCH  13  15
HETATM   15  C   UNL     1      -8.328   9.922  67.387  1.00  0.00    -0.118 C  
BRANCH  15  16
HETATM   16  C   UNL     1      -7.350   8.813  67.889  1.00  0.00    -0.088 C  
BRANCH  16  17
HETATM   17  C   UNL     1      -7.755   7.369  67.517  1.00  0.00    -0.111 C  
BRANCH  17  18
HETATM   18  C   UNL     1      -8.623   6.537  68.502  1.00  0.00    -0.123 C  
HETATM   19  N   UNL     1      -9.324   8.220  70.448  1.00  0.00    -0.157 NA 
HETATM   20  C   UNL     1      -9.993   6.070  67.811  1.00  0.00    -0.149 C  
HETATM   21  C   UNL     1      -9.021   7.474  69.610  1.00  0.00    -0.141 C  
HETATM   22  C   UNL     1      -9.862   5.124  66.606  1.00  0.00    -0.208 C  
HETATM   23  C   UNL     1     -10.865   7.250  67.330  1.00  0.00    -0.354 C  
BRANCH  18  24
HETATM   24  C   UNL     1      -7.763   5.373  69.008  1.00  0.00    -0.089 A  
HETATM   25  C   UNL     1      -8.334   4.149  69.397  1.00  0.00    -0.080 A  
HETATM   26  C   UNL     1      -7.587   3.153  70.035  1.00  0.00    -0.044 A  
HETATM   27  C   UNL     1      -6.387   5.549  69.238  1.00  0.00    -0.034 A  
HETATM   28  C   UNL     1      -6.218   3.367  70.265  1.00  0.00    -0.023 A  
HETATM   29  C   UNL     1      -5.627   4.552  69.840  1.00  0.00    -0.012 A  
BRANCH  26  30
HETATM   30  O   UNL     1      -8.118   1.972  70.488  1.00  0.00    -0.042 OA 
HETATM   31  C   UNL     1      -9.048   2.046  71.562  1.00  0.00    -0.089 C  
ENDBRANCH  26  30
BRANCH  28  32
HETATM   32  O   UNL     1      -5.543   2.378  70.940  1.00  0.00    -0.011 OA 
HETATM   33  C   UNL     1      -5.416   2.539  72.348  1.00  0.00    -0.004 C  
ENDBRANCH  28  32
ENDBRANCH  18  24
ENDBRANCH  17  18
ENDBRANCH  16  17
ENDBRANCH  15  16
ENDBRANCH  13  15
ENDBRANCH  12  13
ENDBRANCH  11  12
ENDBRANCH   7  11
ENDBRANCH   2   3
TORSDOF 12
ENDMDL
MODEL      305
REMARK 921   NORMALIZED FREE ENERGY PREDICTED BY IDOCK:   -2.73 KCAL/MOL
REMARK 922        TOTAL FREE ENERGY PREDICTED BY IDOCK:   -6.87 KCAL/MOL
REMARK 923 INTER-LIGAND FREE ENERGY PREDICTED BY IDOCK:   -5.80 KCAL/MOL
REMARK 924 INTRA-LIGAND FREE ENERGY PREDICTED BY IDOCK:   -1.07 KCAL/MOL
REMARK 927      BINDING AFFINITY PREDICTED BY RF-SCORE:    0.00 PKD
ROOT
HETATM    1  C   UNL     1     -10.418  19.025  68.009  1.00  0.00    -0.355 C  
HETATM    2  O   UNL     1      -9.456  18.281  68.750  1.00  0.00    -0.319 OA 
ENDROOT
BRANCH   2   3
HETATM    3  C   UNL     1      -9.170  17.021  68.282  1.00  0.00    -0.255 A  
HETATM    4  C   UNL     1      -8.205  16.673  67.323  1.00  0.00    -0.174 A  
HETATM    5  C   UNL     1      -9.890  14.697  68.394  1.00  0.00    -0.220 A  
HETATM    6  C   UNL     1      -8.092  15.330  66.922  1.00  0.00    -0.224 A  
HETATM    7  C   UNL     1      -8.922  14.331  67.452  1.00  0.00    -0.205 A  
HETATM    8  C   UNL     1     -10.015  16.031  68.798  1.00  0.00    -0.224 A  
BRANCH   4   9
HETATM    9  O   UNL     1      -7.451  17.679  66.780  1.00  0.00    -0.186 OA 
HETATM   10  C   UNL     1      -6.038  17.529  66.797  1.00  0.00    -0.184 C  
ENDBRANCH   4   9
BRANCH   7  11
HETATM   11  C   UNL     1      -8.874  12.922  66.863  1.00  0.00    -0.188 C  
BRANCH  11  12
HETATM   12  C   UNL     1      -7.711  12.187  67.541  1.00  0.00    -0.159 C  
BRANCH  12  13
HETATM   13  N   UNL     1      -7.879  10.941  68.296  1.00  0.00    -0.112 NA 
HETATM   14  C   UNL     1      -9.060  10.956  69.156  1.00  0.00    -0.042 C  
BRANCH  13  15
HETATM   15  C   UNL     1      -7.894   9.750  67.406  1.00  0.00    -0.099 C  
BRANCH  15  16
HETATM   16  C   UNL     1      -7.741   8.314  68.000  1.00  0.00    -0.107 C  
BRANCH  16  17
HETATM   17  C   UNL     1      -9.056   7.666  68.488  1.00  0.00    -0.131 C  
BRANCH  17  18
HETATM   18  C   UNL     1      -9.021   6.255  69.140  1.00  0.00    -0.127 C  
HETATM   19  N   UNL     1      -6.585   6.005  70.196  1.00  0.00    -0.039 NA 
HETATM   20  C   UNL     1     -10.045   6.163  70.371  1.00  0.00    -0.237 C  
HETATM   21  C   UNL     1      -7.648   6.098  69.736  1.00  0.00    -0.085 C  
HETATM   22  C   UNL     1     -11.535   6.335  70.034  1.00  0.00    -0.460 C  
HETATM   23  C   UNL     1      -9.744   7.183  71.491  1.00  0.00    -0.169 C  
BRANCH  18  24
HETATM   24  C   UNL     1      -9.296   5.227  68.037  1.00  0.00    -0.135 A  
HETATM   25  C   UNL     1      -8.692   3.958  68.043  1.00  0.00    -0.122 A  
HETATM   26  C   UNL     1      -8.784   3.089  66.951  1.00  0.00    -0.126 A  
HETATM   27  C   UNL     1     -10.048   5.582  66.902  1.00  0.00    -0.237 A  
HETATM   28  C   UNL     1      -9.530   3.480  65.826  1.00  0.00    -0.138 A  
HETATM   29  C   UNL     1     -10.176   4.712  65.825  1.00  0.00    -0.283 A  
BRANCH  26  30
HETATM   30  O   UNL     1      -8.158   1.870  66.890  1.00  0.00    -0.069 OA 
HETATM   31  C   UNL     1      -6.766   1.838  67.181  1.00  0.00    -0.038 C  
ENDBRANCH  26  30
BRANCH  28  32
HETATM   32  O   UNL     1      -9.545   2.610  64.763  1.00  0.00    -0.142 OA 
HETATM   33  C   UNL     1     -10.336   2.986  63.642  1.00  0.00    -0.209 C  
ENDBRANCH  28  32
ENDBRANCH  18  24
ENDBRANCH  17  18
ENDBRANCH  16  17
ENDBRANCH  15  16
ENDBRANCH  13  15
ENDBRANCH  12  13
ENDBRANCH  11  12
ENDBRANCH   7  11
ENDBRANCH   2   3
TORSDOF 12
ENDMDL
MODEL      306
REMARK 921   NORMALIZED FREE ENERGY PREDICTED BY IDOCK:   -2.68 KCAL/MOL
REMARK 922        TOTAL FREE ENERGY PREDICTED BY IDOCK:   -6.78 KCAL/MOL
REMARK 923 INTER-LIGAND FREE ENERGY PREDICTED BY IDOCK:   -6.40 KCAL/MOL
REMARK 924 INTRA-LIGAND FREE ENERGY PREDICTED BY IDOCK:   -0.38 KCAL/MOL
REMARK 927      BINDING AFFINITY PREDICTED BY RF-SCORE:    0.00 PKD
ROOT
HETATM    1  C   UNL     1     -10.185  19.542  68.746  1.00  0.00    -0.349 C  
HETATM    2  O   UNL     1      -9.295  18.471  68.448  1.00  0.00    -0.312 OA 
ENDROOT
BRANCH   2   3
HETATM    3  C   UNL     1      -9.874  17.303  68.014  1.00  0.00    -0.284 A  
HETATM    4  C   UNL     1     -10.493  16.321  68.805  1.00  0.00    -0.282 A  
HETATM    5  C   UNL     1     -10.228  15.926  66.037  1.00  0.00    -0.353 A  
HETATM    6  C   UNL     1     -10.982  15.155  68.190  1.00  0.00    -0.287 A  
HETATM    7  C   UNL     1     -10.863  14.945  66.809  1.00  0.00    -0.320 A  
HETATM    8  C   UNL     1      -9.734  17.088  66.638  1.00  0.00    -0.287 A  
BRANCH   4   9
HETATM    9  O   UNL     1     -10.541  16.526  70.158  1.00  0.00    -0.231 OA 
HETATM   10  C   UNL     1     -11.330  15.636  70.935  1.00  0.00    -0.380 C  
ENDBRANCH   4   9
BRANCH   7  11
HETATM   11  C   UNL     1     -11.257  13.593  66.215  1.00  0.00    -0.313 C  
BRANCH  11  12
HETATM   12  C   UNL     1     -12.053  12.843  67.290  1.00  0.00    -0.212 C  
BRANCH  12  13
HETATM   13  N   UNL     1     -11.526  11.683  68.017  1.00  0.00    -0.322 NA 
HETATM   14  C   UNL     1     -12.368  11.293  69.146  1.00  0.00    -0.048 C  
BRANCH  13  15
HETATM   15  C   UNL     1     -11.285  10.524  67.117  1.00  0.00    -0.056 C  
BRANCH  15  16
HETATM   16  C   UNL     1     -10.576   9.240  67.650  1.00  0.00    -0.324 C  
BRANCH  16  17
HETATM   17  C   UNL     1      -9.124   9.042  67.158  1.00  0.00    -0.158 C  
BRANCH  17  18
HETATM   18  C   UNL     1      -8.021   8.624  68.169  1.00  0.00    -0.107 C  
HETATM   19  N   UNL     1      -5.708   8.887  66.868  1.00  0.00    -0.044 NA 
HETATM   20  C   UNL     1      -7.950   9.648  69.402  1.00  0.00    -0.111 C  
HETATM   21  C   UNL     1      -6.709   8.762  67.445  1.00  0.00    -0.066 C  
HETATM   22  C   UNL     1      -9.200   9.731  70.293  1.00  0.00    -0.225 C  
HETATM   23  C   UNL     1      -7.639  11.098  68.972  1.00  0.00    -0.119 C  
BRANCH  18  24
HETATM   24  C   UNL     1      -8.302   7.177  68.590  1.00  0.00    -0.125 A  
HETATM   25  C   UNL     1      -8.099   6.100  67.710  1.00  0.00    -0.113 A  
HETATM   26  C   UNL     1      -8.530   4.804  68.014  1.00  0.00    -0.102 A  
HETATM   27  C   UNL     1      -8.917   6.899  69.824  1.00  0.00    -0.141 A  
HETATM   28  C   UNL     1      -9.155   4.563  69.249  1.00  0.00    -0.113 A  
HETATM   29  C   UNL     1      -9.317   5.608  70.152  1.00  0.00    -0.188 A  
BRANCH  26  30
HETATM   30  O   UNL     1      -8.408   3.739  67.159  1.00  0.00    -0.097 OA 
HETATM   31  C   UNL     1      -7.166   3.044  67.157  1.00  0.00    -0.058 C  
ENDBRANCH  26  30
BRANCH  28  32
HETATM   32  O   UNL     1      -9.602   3.283  69.474  1.00  0.00    -0.161 OA 
HETATM   33  C   UNL     1      -9.081   2.617  70.618  1.00  0.00    -0.117 C  
ENDBRANCH  28  32
ENDBRANCH  18  24
ENDBRANCH  17  18
ENDBRANCH  16  17
ENDBRANCH  15  16
ENDBRANCH  13  15
ENDBRANCH  12  13
ENDBRANCH  11  12
ENDBRANCH   7  11
ENDBRANCH   2   3
TORSDOF 12
ENDMDL
MODEL      307
REMARK 921   NORMALIZED FREE ENERGY PREDICTED BY IDOCK:   -2.68 KCAL/MOL
REMARK 922        TOTAL FREE ENERGY PREDICTED BY IDOCK:   -6.78 KCAL/MOL
REMARK 923 INTER-LIGAND FREE ENERGY PREDICTED BY IDOCK:   -6.84 KCAL/MOL
REMARK 924 INTRA-LIGAND FREE ENERGY PREDICTED BY IDOCK:    0.06 KCAL/MOL
REMARK 927      BINDING AFFINITY PREDICTED BY RF-SCORE:    0.00 PKD
ROOT
HETATM    1  C   UNL     1     -10.396  19.671  67.751  1.00  0.00    -0.454 C  
HETATM    2  O   UNL     1     -10.096  18.446  68.413  1.00  0.00    -0.357 OA 
ENDROOT
BRANCH   2   3
HETATM    3  C   UNL     1     -10.251  17.300  67.671  1.00  0.00    -0.333 A  
HETATM    4  C   UNL     1      -9.607  16.980  66.464  1.00  0.00    -0.278 A  
HETATM    5  C   UNL     1     -11.535  15.237  67.526  1.00  0.00    -0.271 A  
HETATM    6  C   UNL     1      -9.934  15.779  65.812  1.00  0.00    -0.389 A  
HETATM    7  C   UNL     1     -10.890  14.895  66.332  1.00  0.00    -0.325 A  
HETATM    8  C   UNL     1     -11.221  16.431  68.183  1.00  0.00    -0.273 A  
BRANCH   4   9
HETATM    9  O   UNL     1      -8.722  17.891  65.950  1.00  0.00    -0.508 OA 
HETATM   10  C   UNL     1      -7.362  17.789  66.347  1.00  0.00    -0.275 C  
ENDBRANCH   4   9
BRANCH   7  11
HETATM   11  C   UNL     1     -11.332  13.689  65.503  1.00  0.00    -0.308 C  
BRANCH  11  12
HETATM   12  C   UNL     1     -10.909  12.432  66.273  1.00  0.00    -0.266 C  
BRANCH  12  13
HETATM   13  N   UNL     1     -10.340  11.246  65.624  1.00  0.00    -0.249 NA 
HETATM   14  C   UNL     1     -10.241  11.389  64.173  1.00  0.00    -0.324 C  
BRANCH  13  15
HETATM   15  C   UNL     1      -9.022  10.873  66.204  1.00  0.00    -0.183 C  
BRANCH  15  16
HETATM   16  C   UNL     1      -8.838   9.510  66.943  1.00  0.00    -0.140 C  
BRANCH  16  17
HETATM   17  C   UNL     1      -8.998   8.258  66.052  1.00  0.00    -0.224 C  
BRANCH  17  18
HETATM   18  C   UNL     1      -8.041   7.048  66.249  1.00  0.00    -0.115 C  
HETATM   19  N   UNL     1      -8.914   5.155  64.586  1.00  0.00    -0.088 NA 
HETATM   20  C   UNL     1      -6.554   7.405  65.766  1.00  0.00    -0.045 C  
HETATM   21  C   UNL     1      -8.526   5.969  65.319  1.00  0.00    -0.131 C  
HETATM   22  C   UNL     1      -5.835   8.524  66.537  1.00  0.00    -0.051 C  
HETATM   23  C   UNL     1      -6.476   7.801  64.275  1.00  0.00    -0.056 C  
BRANCH  18  24
HETATM   24  C   UNL     1      -8.123   6.627  67.720  1.00  0.00    -0.116 A  
HETATM   25  C   UNL     1      -8.804   7.404  68.673  1.00  0.00    -0.126 A  
HETATM   26  C   UNL     1      -8.724   7.133  70.043  1.00  0.00    -0.141 A  
HETATM   27  C   UNL     1      -7.388   5.524  68.189  1.00  0.00    -0.073 A  
HETATM   28  C   UNL     1      -7.968   6.032  70.480  1.00  0.00    -0.111 A  
HETATM   29  C   UNL     1      -7.331   5.223  69.545  1.00  0.00    -0.061 A  
BRANCH  26  30
HETATM   30  O   UNL     1      -9.320   7.902  71.010  1.00  0.00    -0.150 OA 
HETATM   31  C   UNL     1     -10.725   8.105  70.906  1.00  0.00    -0.221 C  
ENDBRANCH  26  30
BRANCH  28  32
HETATM   32  O   UNL     1      -7.883   5.842  71.838  1.00  0.00    -0.103 OA 
HETATM   33  C   UNL     1      -7.819   4.494  72.291  1.00  0.00    -0.092 C  
ENDBRANCH  28  32
ENDBRANCH  18  24
ENDBRANCH  17  18
ENDBRANCH  16  17
ENDBRANCH  15  16
ENDBRANCH  13  15
ENDBRANCH  12  13
ENDBRANCH  11  12
ENDBRANCH   7  11
ENDBRANCH   2   3
TORSDOF 12
ENDMDL
MODEL      308
REMARK 921   NORMALIZED FREE ENERGY PREDICTED BY IDOCK:   -2.67 KCAL/MOL
REMARK 922        TOTAL FREE ENERGY PREDICTED BY IDOCK:   -6.77 KCAL/MOL
REMARK 923 INTER-LIGAND FREE ENERGY PREDICTED BY IDOCK:   -5.31 KCAL/MOL
REMARK 924 INTRA-LIGAND FREE ENERGY PREDICTED BY IDOCK:   -1.45 KCAL/MOL
REMARK 927      BINDING AFFINITY PREDICTED BY RF-SCORE:    0.00 PKD
ROOT
HETATM    1  C   UNL     1      -6.188  15.369  69.297  1.00  0.00    -0.124 C  
HETATM    2  O   UNL     1      -6.971  14.185  69.422  1.00  0.00    -0.120 OA 
ENDROOT
BRANCH   2   3
HETATM    3  C   UNL     1      -6.862  13.274  68.398  1.00  0.00    -0.098 A  
HETATM    4  C   UNL     1      -7.912  12.617  67.737  1.00  0.00    -0.158 A  
HETATM    5  C   UNL     1      -5.249  12.007  67.086  1.00  0.00    -0.106 A  
HETATM    6  C   UNL     1      -7.608  11.667  66.746  1.00  0.00    -0.104 A  
HETATM    7  C   UNL     1      -6.285  11.356  66.405  1.00  0.00    -0.066 A  
HETATM    8  C   UNL     1      -5.539  12.952  68.077  1.00  0.00    -0.101 A  
BRANCH   4   9
HETATM    9  O   UNL     1      -9.193  12.897  68.133  1.00  0.00    -0.204 OA 
HETATM   10  C   UNL     1      -9.973  13.743  67.300  1.00  0.00    -0.239 C  
ENDBRANCH   4   9
BRANCH   7  11
HETATM   11  C   UNL     1      -6.005  10.200  65.445  1.00  0.00    -0.101 C  
BRANCH  11  12
HETATM   12  C   UNL     1      -6.989   9.076  65.793  1.00  0.00    -0.080 C  
BRANCH  12  13
HETATM   13  N   UNL     1      -7.638   8.236  64.781  1.00  0.00    -0.097 NA 
HETATM   14  C   UNL     1      -7.528   8.789  63.432  1.00  0.00    -0.107 C  
BRANCH  13  15
HETATM   15  C   UNL     1      -7.137   6.836  64.815  1.00  0.00    -0.060 C  
BRANCH  15  16
HETATM   16  C   UNL     1      -8.115   5.650  65.090  1.00  0.00    -0.127 C  
BRANCH  16  17
HETATM   17  C   UNL     1      -8.212   5.213  66.569  1.00  0.00    -0.108 C  
BRANCH  17  18
HETATM   18  C   UNL     1      -9.591   4.813  67.163  1.00  0.00    -0.185 C  
HETATM   19  N   UNL     1     -11.152   4.272  65.070  1.00  0.00    -0.151 NA 
HETATM   20  C   UNL     1      -9.485   3.447  67.996  1.00  0.00    -0.213 C  
HETATM   21  C   UNL     1     -10.485   4.510  65.991  1.00  0.00    -0.198 C  
HETATM   22  C   UNL     1      -8.585   3.474  69.242  1.00  0.00    -0.110 C  
HETATM   23  C   UNL     1      -8.998   2.252  67.148  1.00  0.00    -0.165 C  
BRANCH  18  24
HETATM   24  C   UNL     1     -10.101   5.998  67.991  1.00  0.00    -0.187 A  
HETATM   25  C   UNL     1     -10.095   7.309  67.485  1.00  0.00    -0.250 A  
HETATM   26  C   UNL     1     -10.375   8.416  68.292  1.00  0.00    -0.199 A  
HETATM   27  C   UNL     1     -10.451   5.826  69.343  1.00  0.00    -0.360 A  
HETATM   28  C   UNL     1     -10.706   8.211  69.643  1.00  0.00    -0.195 A  
HETATM   29  C   UNL     1     -10.766   6.916  70.146  1.00  0.00    -0.270 A  
BRANCH  26  30
HETATM   30  O   UNL     1     -10.319   9.714  67.855  1.00  0.00    -0.196 OA 
HETATM   31  C   UNL     1     -10.784   9.978  66.536  1.00  0.00    -0.024 C  
ENDBRANCH  26  30
BRANCH  28  32
HETATM   32  O   UNL     1     -10.924   9.336  70.402  1.00  0.00    -0.231 OA 
HETATM   33  C   UNL     1     -11.620   9.153  71.629  1.00  0.00    -0.379 C  
ENDBRANCH  28  32
ENDBRANCH  18  24
ENDBRANCH  17  18
ENDBRANCH  16  17
ENDBRANCH  15  16
ENDBRANCH  13  15
ENDBRANCH  12  13
ENDBRANCH  11  12
ENDBRANCH   7  11
ENDBRANCH   2   3
TORSDOF 12
ENDMDL
MODEL      309
REMARK 921   NORMALIZED FREE ENERGY PREDICTED BY IDOCK:   -2.65 KCAL/MOL
REMARK 922        TOTAL FREE ENERGY PREDICTED BY IDOCK:   -6.73 KCAL/MOL
REMARK 923 INTER-LIGAND FREE ENERGY PREDICTED BY IDOCK:   -5.11 KCAL/MOL
REMARK 924 INTRA-LIGAND FREE ENERGY PREDICTED BY IDOCK:   -1.61 KCAL/MOL
REMARK 927      BINDING AFFINITY PREDICTED BY RF-SCORE:    0.00 PKD
ROOT
HETATM    1  C   UNL     1     -11.298   4.391  73.529  1.00  0.00    -0.245 C  
HETATM    2  O   UNL     1      -9.921   4.105  73.307  1.00  0.00    -0.128 OA 
ENDROOT
BRANCH   2   3
HETATM    3  C   UNL     1      -9.213   5.040  72.589  1.00  0.00    -0.131 A  
HETATM    4  C   UNL     1      -8.954   5.027  71.209  1.00  0.00    -0.138 A  
HETATM    5  C   UNL     1      -7.864   7.053  72.820  1.00  0.00    -0.104 A  
HETATM    6  C   UNL     1      -8.157   6.044  70.653  1.00  0.00    -0.116 A  
HETATM    7  C   UNL     1      -7.610   7.066  71.443  1.00  0.00    -0.086 A  
HETATM    8  C   UNL     1      -8.652   6.045  73.385  1.00  0.00    -0.120 A  
BRANCH   4   9
HETATM    9  O   UNL     1      -9.451   3.984  70.474  1.00  0.00    -0.145 OA 
HETATM   10  C   UNL     1      -9.207   3.986  69.074  1.00  0.00    -0.152 C  
ENDBRANCH   4   9
BRANCH   7  11
HETATM   11  C   UNL     1      -6.617   8.047  70.823  1.00  0.00    -0.037 C  
BRANCH  11  12
HETATM   12  C   UNL     1      -7.296   9.423  70.799  1.00  0.00    -0.111 C  
BRANCH  12  13
HETATM   13  N   UNL     1      -6.577  10.668  70.509  1.00  0.00    -0.328 NA 
HETATM   14  C   UNL     1      -5.340  10.798  71.276  1.00  0.00    -0.050 C  
BRANCH  13  15
HETATM   15  C   UNL     1      -6.312  10.831  69.055  1.00  0.00    -0.048 C  
BRANCH  15  16
HETATM   16  C   UNL     1      -7.189  10.085  68.000  1.00  0.00    -0.082 C  
BRANCH  16  17
HETATM   17  C   UNL     1      -8.474  10.831  67.574  1.00  0.00    -0.119 C  
BRANCH  17  18
HETATM   18  C   UNL     1      -9.728  10.017  67.149  1.00  0.00    -0.217 C  
HETATM   19  N   UNL     1     -10.716   8.983  69.399  1.00  0.00    -0.219 NA 
HETATM   20  C   UNL     1     -10.871  10.982  66.570  1.00  0.00    -0.269 C  
HETATM   21  C   UNL     1     -10.293   9.422  68.411  1.00  0.00    -0.205 C  
HETATM   22  C   UNL     1     -10.528  11.754  65.286  1.00  0.00    -0.320 C  
HETATM   23  C   UNL     1     -11.346  12.042  67.587  1.00  0.00    -0.375 C  
BRANCH  18  24
HETATM   24  C   UNL     1      -9.271   8.944  66.155  1.00  0.00    -0.273 A  
HETATM   25  C   UNL     1      -9.510   7.578  66.382  1.00  0.00    -0.208 A  
HETATM   26  C   UNL     1      -8.934   6.583  65.585  1.00  0.00     0.015 A  
HETATM   27  C   UNL     1      -8.463   9.287  65.056  1.00  0.00    -0.178 A  
HETATM   28  C   UNL     1      -8.119   6.959  64.504  1.00  0.00    -0.069 A  
HETATM   29  C   UNL     1      -7.914   8.308  64.235  1.00  0.00    -0.148 A  
BRANCH  26  30
HETATM   30  O   UNL     1      -9.090   5.239  65.810  1.00  0.00    -0.153 OA 
HETATM   31  C   UNL     1     -10.410   4.715  65.734  1.00  0.00    -0.264 C  
ENDBRANCH  26  30
BRANCH  28  32
HETATM   32  O   UNL     1      -7.539   5.941  63.786  1.00  0.00    -0.069 OA 
HETATM   33  C   UNL     1      -6.127   5.998  63.624  1.00  0.00    -0.022 C  
ENDBRANCH  28  32
ENDBRANCH  18  24
ENDBRANCH  17  18
ENDBRANCH  16  17
ENDBRANCH  15  16
ENDBRANCH  13  15
ENDBRANCH  12  13
ENDBRANCH  11  12
ENDBRANCH   7  11
ENDBRANCH   2   3
TORSDOF 12
ENDMDL
MODEL      310
REMARK 921   NORMALIZED FREE ENERGY PREDICTED BY IDOCK:   -2.64 KCAL/MOL
REMARK 922        TOTAL FREE ENERGY PREDICTED BY IDOCK:   -6.71 KCAL/MOL
REMARK 923 INTER-LIGAND FREE ENERGY PREDICTED BY IDOCK:   -6.43 KCAL/MOL
REMARK 924 INTRA-LIGAND FREE ENERGY PREDICTED BY IDOCK:   -0.28 KCAL/MOL
REMARK 927      BINDING AFFINITY PREDICTED BY RF-SCORE:    0.00 PKD
ROOT
HETATM    1  C   UNL     1      -6.386  18.537  65.234  1.00  0.00    -0.228 C  
HETATM    2  O   UNL     1      -7.248  18.690  66.357  1.00  0.00    -0.218 OA 
ENDROOT
BRANCH   2   3
HETATM    3  C   UNL     1      -8.107  17.647  66.611  1.00  0.00    -0.254 A  
HETATM    4  C   UNL     1      -9.511  17.684  66.592  1.00  0.00    -0.279 A  
HETATM    5  C   UNL     1      -8.183  15.323  67.333  1.00  0.00    -0.207 A  
HETATM    6  C   UNL     1     -10.231  16.527  66.937  1.00  0.00    -0.296 A  
HETATM    7  C   UNL     1      -9.583  15.339  67.303  1.00  0.00    -0.214 A  
HETATM    8  C   UNL     1      -7.456  16.470  66.996  1.00  0.00    -0.239 A  
BRANCH   4   9
HETATM    9  O   UNL     1     -10.116  18.876  66.290  1.00  0.00    -0.372 OA 
HETATM   10  C   UNL     1     -10.104  19.894  67.280  1.00  0.00    -0.432 C  
ENDBRANCH   4   9
BRANCH   7  11
HETATM   11  C   UNL     1     -10.405  14.163  67.830  1.00  0.00    -0.242 C  
BRANCH  11  12
HETATM   12  C   UNL     1      -9.800  12.885  67.234  1.00  0.00    -0.218 C  
BRANCH  12  13
HETATM   13  N   UNL     1     -10.497  11.595  67.225  1.00  0.00    -0.210 NA 
HETATM   14  C   UNL     1     -11.113  11.295  65.934  1.00  0.00    -0.101 C  
BRANCH  13  15
HETATM   15  C   UNL     1      -9.611  10.481  67.655  1.00  0.00    -0.157 C  
BRANCH  15  16
HETATM   16  C   UNL     1     -10.197   9.254  68.423  1.00  0.00    -0.231 C  
BRANCH  16  17
HETATM   17  C   UNL     1     -10.266   7.944  67.604  1.00  0.00    -0.289 C  
BRANCH  17  18
HETATM   18  C   UNL     1      -9.279   6.786  67.922  1.00  0.00    -0.112 C  
HETATM   19  N   UNL     1     -10.487   4.557  67.097  1.00  0.00     0.053 NA 
HETATM   20  C   UNL     1      -7.942   6.912  67.045  1.00  0.00    -0.116 C  
HETATM   21  C   UNL     1      -9.951   5.520  67.467  1.00  0.00    -0.160 C  
HETATM   22  C   UNL     1      -7.078   8.160  67.291  1.00  0.00    -0.079 C  
HETATM   23  C   UNL     1      -8.206   6.873  65.524  1.00  0.00    -0.135 C  
BRANCH  18  24
HETATM   24  C   UNL     1      -9.024   6.797  69.434  1.00  0.00    -0.137 A  
HETATM   25  C   UNL     1     -10.080   6.807  70.361  1.00  0.00    -0.200 A  
HETATM   26  C   UNL     1      -9.864   7.009  71.728  1.00  0.00    -0.162 A  
HETATM   27  C   UNL     1      -7.719   6.948  69.936  1.00  0.00    -0.109 A  
HETATM   28  C   UNL     1      -8.549   7.173  72.195  1.00  0.00    -0.110 A  
HETATM   29  C   UNL     1      -7.489   7.114  71.297  1.00  0.00    -0.080 A  
BRANCH  26  30
HETATM   30  O   UNL     1     -10.870   7.089  72.656  1.00  0.00    -0.239 OA 
HETATM   31  C   UNL     1     -11.782   8.175  72.536  1.00  0.00    -0.394 C  
ENDBRANCH  26  30
BRANCH  28  32
HETATM   32  O   UNL     1      -8.398   7.417  73.539  1.00  0.00    -0.122 OA 
HETATM   33  C   UNL     1      -7.162   7.991  73.949  1.00  0.00    -0.144 C  
ENDBRANCH  28  32
ENDBRANCH  18  24
ENDBRANCH  17  18
ENDBRANCH  16  17
ENDBRANCH  15  16
ENDBRANCH  13  15
ENDBRANCH  12  13
ENDBRANCH  11  12
ENDBRANCH   7  11
ENDBRANCH   2   3
TORSDOF 12
ENDMDL
MODEL      311
REMARK 921   NORMALIZED FREE ENERGY PREDICTED BY IDOCK:   -2.61 KCAL/MOL
REMARK 922        TOTAL FREE ENERGY PREDICTED BY IDOCK:   -6.66 KCAL/MOL
REMARK 923 INTER-LIGAND FREE ENERGY PREDICTED BY IDOCK:   -7.15 KCAL/MOL
REMARK 924 INTRA-LIGAND FREE ENERGY PREDICTED BY IDOCK:    0.49 KCAL/MOL
REMARK 927      BINDING AFFINITY PREDICTED BY RF-SCORE:    0.00 PKD
ROOT
HETATM    1  C   UNL     1      -9.656  14.547  66.493  1.00  0.00    -0.293 C  
HETATM    2  O   UNL     1     -11.021  14.523  66.897  1.00  0.00    -0.302 OA 
ENDROOT
BRANCH   2   3
HETATM    3  C   UNL     1     -11.325  13.715  67.966  1.00  0.00    -0.285 A  
HETATM    4  C   UNL     1     -11.234  12.315  68.020  1.00  0.00    -0.269 A  
HETATM    5  C   UNL     1     -12.248  13.737  70.219  1.00  0.00    -0.429 A  
HETATM    6  C   UNL     1     -11.645  11.647  69.188  1.00  0.00    -0.378 A  
HETATM    7  C   UNL     1     -12.148  12.343  70.296  1.00  0.00    -0.377 A  
HETATM    8  C   UNL     1     -11.846  14.413  69.062  1.00  0.00    -0.358 A  
BRANCH   4   9
HETATM    9  O   UNL     1     -10.797  11.658  66.901  1.00  0.00    -0.250 OA 
HETATM   10  C   UNL     1      -9.501  11.076  66.940  1.00  0.00    -0.177 C  
ENDBRANCH   4   9
BRANCH   7  11
HETATM   11  C   UNL     1     -12.737  11.564  71.471  1.00  0.00    -0.439 C  
BRANCH  11  12
HETATM   12  C   UNL     1     -13.120  10.174  70.946  1.00  0.00    -0.335 C  
BRANCH  12  13
HETATM   13  N   UNL     1     -13.077   8.964  71.774  1.00  0.00    -0.351 NA 
HETATM   14  C   UNL     1     -14.214   8.077  71.537  1.00  0.00    -0.413 C  
BRANCH  13  15
HETATM   15  C   UNL     1     -11.795   8.226  71.615  1.00  0.00    -0.299 C  
BRANCH  15  16
HETATM   16  C   UNL     1     -10.967   8.351  70.297  1.00  0.00    -0.236 C  
BRANCH  16  17
HETATM   17  C   UNL     1     -10.890   7.060  69.450  1.00  0.00    -0.253 C  
BRANCH  17  18
HETATM   18  C   UNL     1      -9.513   6.381  69.208  1.00  0.00    -0.140 C  
HETATM   19  N   UNL     1     -10.021   4.213  67.742  1.00  0.00    -0.047 NA 
HETATM   20  C   UNL     1      -8.564   7.308  68.307  1.00  0.00    -0.123 C  
HETATM   21  C   UNL     1      -9.786   5.151  68.386  1.00  0.00    -0.152 C  
HETATM   22  C   UNL     1      -8.162   8.664  68.909  1.00  0.00    -0.123 C  
HETATM   23  C   UNL     1      -9.160   7.621  66.917  1.00  0.00    -0.171 C  
BRANCH  18  24
HETATM   24  C   UNL     1      -8.917   6.042  70.579  1.00  0.00    -0.150 A  
HETATM   25  C   UNL     1      -7.915   6.836  71.165  1.00  0.00    -0.103 A  
HETATM   26  C   UNL     1      -7.232   6.435  72.317  1.00  0.00    -0.087 A  
HETATM   27  C   UNL     1      -9.250   4.838  71.225  1.00  0.00    -0.191 A  
HETATM   28  C   UNL     1      -7.579   5.219  72.930  1.00  0.00    -0.097 A  
HETATM   29  C   UNL     1      -8.603   4.447  72.391  1.00  0.00    -0.113 A  
BRANCH  26  30
HETATM   30  O   UNL     1      -6.207   7.148  72.885  1.00  0.00    -0.055 OA 
HETATM   31  C   UNL     1      -6.293   7.414  74.280  1.00  0.00    -0.077 C  
ENDBRANCH  26  30
BRANCH  28  32
HETATM   32  O   UNL     1      -6.842   4.850  74.030  1.00  0.00    -0.071 OA 
HETATM   33  C   UNL     1      -5.704   4.030  73.790  1.00  0.00    -0.004 C  
ENDBRANCH  28  32
ENDBRANCH  18  24
ENDBRANCH  17  18
ENDBRANCH  16  17
ENDBRANCH  15  16
ENDBRANCH  13  15
ENDBRANCH  12  13
ENDBRANCH  11  12
ENDBRANCH   7  11
ENDBRANCH   2   3
TORSDOF 12
ENDMDL
MODEL      312
REMARK 921   NORMALIZED FREE ENERGY PREDICTED BY IDOCK:   -2.60 KCAL/MOL
REMARK 922        TOTAL FREE ENERGY PREDICTED BY IDOCK:   -6.65 KCAL/MOL
REMARK 923 INTER-LIGAND FREE ENERGY PREDICTED BY IDOCK:   -6.46 KCAL/MOL
REMARK 924 INTRA-LIGAND FREE ENERGY PREDICTED BY IDOCK:   -0.20 KCAL/MOL
REMARK 927      BINDING AFFINITY PREDICTED BY RF-SCORE:    0.00 PKD
ROOT
HETATM    1  C   UNL     1      -8.148   7.198  69.144  1.00  0.00    -0.121 C  
HETATM    2  O   UNL     1      -7.948   6.571  67.881  1.00  0.00    -0.107 OA 
ENDROOT
BRANCH   2   3
HETATM    3  C   UNL     1      -8.244   7.328  66.773  1.00  0.00    -0.121 A  
HETATM    4  C   UNL     1      -7.531   7.373  65.563  1.00  0.00    -0.088 A  
HETATM    5  C   UNL     1      -9.749   9.053  65.943  1.00  0.00    -0.306 A  
HETATM    6  C   UNL     1      -7.951   8.256  64.553  1.00  0.00    -0.146 A  
HETATM    7  C   UNL     1      -9.060   9.097  64.725  1.00  0.00    -0.157 A  
HETATM    8  C   UNL     1      -9.339   8.181  66.957  1.00  0.00    -0.197 A  
BRANCH   4   9
HETATM    9  O   UNL     1      -6.418   6.584  65.448  1.00  0.00    -0.037 OA 
HETATM   10  C   UNL     1      -5.169   7.229  65.243  1.00  0.00    -0.028 C  
ENDBRANCH   4   9
BRANCH   7  11
HETATM   11  C   UNL     1      -9.374  10.155  63.668  1.00  0.00    -0.336 C  
BRANCH  11  12
HETATM   12  C   UNL     1     -10.163  11.270  64.366  1.00  0.00    -0.320 C  
BRANCH  12  13
HETATM   13  N   UNL     1     -10.926  12.290  63.638  1.00  0.00    -0.435 NA 
HETATM   14  C   UNL     1     -12.343  11.954  63.514  1.00  0.00    -0.490 C  
BRANCH  13  15
HETATM   15  C   UNL     1     -10.759  13.642  64.235  1.00  0.00    -0.262 C  
BRANCH  15  16
HETATM   16  C   UNL     1      -9.363  14.114  64.750  1.00  0.00     1.518 C  
BRANCH  16  17
HETATM   17  C   UNL     1      -9.299  14.436  66.260  1.00  0.00    -0.261 C  
BRANCH  17  18
HETATM   18  C   UNL     1     -10.168  15.588  66.837  1.00  0.00    -0.279 C  
HETATM   19  N   UNL     1     -11.219  16.830  64.724  1.00  0.00    -0.745 NA 
HETATM   20  C   UNL     1     -11.410  15.012  67.671  1.00  0.00    -0.342 C  
HETATM   21  C   UNL     1     -10.763  16.302  65.654  1.00  0.00    -0.286 C  
HETATM   22  C   UNL     1     -11.070  14.194  68.927  1.00  0.00    -0.288 C  
HETATM   23  C   UNL     1     -12.348  14.121  66.827  1.00  0.00    -0.333 C  
BRANCH  18  24
HETATM   24  C   UNL     1      -9.246  16.496  67.660  1.00  0.00    -0.200 A  
HETATM   25  C   UNL     1      -9.336  17.897  67.589  1.00  0.00    -0.258 A  
HETATM   26  C   UNL     1      -8.383  18.731  68.183  1.00  0.00    -0.306 A  
HETATM   27  C   UNL     1      -8.181  15.951  68.399  1.00  0.00    -0.161 A  
HETATM   28  C   UNL     1      -7.322  18.154  68.901  1.00  0.00    -0.242 A  
HETATM   29  C   UNL     1      -7.248  16.771  69.023  1.00  0.00    -0.225 A  
BRANCH  26  30
HETATM   30  O   UNL     1      -8.397  20.099  68.085  1.00  0.00    -0.230 OA 
HETATM   31  C   UNL     1      -9.511  20.693  67.427  1.00  0.00    -0.376 C  
ENDBRANCH  26  30
BRANCH  28  32
HETATM   32  O   UNL     1      -6.387  19.017  69.421  1.00  0.00    -0.266 OA 
HETATM   33  C   UNL     1      -5.852  18.686  70.697  1.00  0.00    -0.026 C  
ENDBRANCH  28  32
ENDBRANCH  18  24
ENDBRANCH  17  18
ENDBRANCH  16  17
ENDBRANCH  15  16
ENDBRANCH  13  15
ENDBRANCH  12  13
ENDBRANCH  11  12
ENDBRANCH   7  11
ENDBRANCH   2   3
TORSDOF 12
ENDMDL
MODEL      313
REMARK 921   NORMALIZED FREE ENERGY PREDICTED BY IDOCK:   -2.56 KCAL/MOL
REMARK 922        TOTAL FREE ENERGY PREDICTED BY IDOCK:   -6.57 KCAL/MOL
REMARK 923 INTER-LIGAND FREE ENERGY PREDICTED BY IDOCK:   -5.22 KCAL/MOL
REMARK 924 INTRA-LIGAND FREE ENERGY PREDICTED BY IDOCK:   -1.36 KCAL/MOL
REMARK 927      BINDING AFFINITY PREDICTED BY RF-SCORE:    0.00 PKD
ROOT
HETATM    1  C   UNL     1     -11.318  16.018  68.876  1.00  0.00    -0.370 C  
HETATM    2  O   UNL     1     -12.256  15.296  68.084  1.00  0.00    -0.061 OA 
ENDROOT
BRANCH   2   3
HETATM    3  C   UNL     1     -11.851  14.061  67.638  1.00  0.00    -0.395 A  
HETATM    4  C   UNL     1     -11.947  12.839  68.325  1.00  0.00    -0.229 A  
HETATM    5  C   UNL     1     -10.702  12.936  65.809  1.00  0.00    -0.293 A  
HETATM    6  C   UNL     1     -11.425  11.677  67.731  1.00  0.00    -0.373 A  
HETATM    7  C   UNL     1     -10.805  11.708  66.473  1.00  0.00    -0.328 A  
HETATM    8  C   UNL     1     -11.215  14.100  66.391  1.00  0.00    -0.328 A  
BRANCH   4   9
HETATM    9  O   UNL     1     -12.503  12.852  69.576  1.00  0.00    -0.056 OA 
HETATM   10  C   UNL     1     -11.849  12.111  70.597  1.00  0.00     0.032 C  
ENDBRANCH   4   9
BRANCH   7  11
HETATM   11  C   UNL     1     -10.106  10.455  65.947  1.00  0.00    -0.326 C  
BRANCH  11  12
HETATM   12  C   UNL     1     -10.473   9.303  66.891  1.00  0.00    -0.214 C  
BRANCH  12  13
HETATM   13  N   UNL     1     -10.249   7.891  66.559  1.00  0.00    -0.215 NA 
HETATM   14  C   UNL     1      -9.001   7.673  65.830  1.00  0.00    -0.103 C  
BRANCH  13  15
HETATM   15  C   UNL     1     -10.313   7.020  67.762  1.00  0.00    -0.202 C  
BRANCH  15  16
HETATM   16  C   UNL     1      -9.005   6.454  68.401  1.00  0.00    -0.120 C  
BRANCH  16  17
HETATM   17  C   UNL     1      -9.013   6.377  69.945  1.00  0.00    -0.142 C  
BRANCH  17  18
HETATM   18  C   UNL     1      -8.397   7.538  70.775  1.00  0.00    -0.118 C  
HETATM   19  N   UNL     1     -10.426   8.617  72.128  1.00  0.00    -0.342 NA 
HETATM   20  C   UNL     1      -7.380   6.978  71.881  1.00  0.00    -0.086 C  
HETATM   21  C   UNL     1      -9.534   8.160  71.540  1.00  0.00    -0.171 C  
HETATM   22  C   UNL     1      -6.132   6.250  71.356  1.00  0.00    -0.040 C  
HETATM   23  C   UNL     1      -8.043   6.011  72.886  1.00  0.00    -0.113 C  
BRANCH  18  24
HETATM   24  C   UNL     1      -7.753   8.520  69.791  1.00  0.00    -0.092 A  
HETATM   25  C   UNL     1      -8.177   9.857  69.698  1.00  0.00    -0.178 A  
HETATM   26  C   UNL     1      -7.732  10.706  68.679  1.00  0.00    -0.110 A  
HETATM   27  C   UNL     1      -6.816   8.070  68.843  1.00  0.00    -0.061 A  
HETATM   28  C   UNL     1      -6.808  10.221  67.739  1.00  0.00    -0.075 A  
HETATM   29  C   UNL     1      -6.339   8.916  67.848  1.00  0.00    -0.056 A  
BRANCH  26  30
HETATM   30  O   UNL     1      -8.169  11.996  68.515  1.00  0.00    -0.153 OA 
HETATM   31  C   UNL     1      -7.531  13.003  69.293  1.00  0.00     0.308 C  
ENDBRANCH  26  30
BRANCH  28  32
HETATM   32  O   UNL     1      -6.443  11.081  66.732  1.00  0.00    -0.101 OA 
HETATM   33  C   UNL     1      -5.131  11.627  66.802  1.00  0.00    -0.106 C  
ENDBRANCH  28  32
ENDBRANCH  18  24
ENDBRANCH  17  18
ENDBRANCH  16  17
ENDBRANCH  15  16
ENDBRANCH  13  15
ENDBRANCH  12  13
ENDBRANCH  11  12
ENDBRANCH   7  11
ENDBRANCH   2   3
TORSDOF 12
ENDMDL
MODEL      314
REMARK 921   NORMALIZED FREE ENERGY PREDICTED BY IDOCK:   -2.54 KCAL/MOL
REMARK 922        TOTAL FREE ENERGY PREDICTED BY IDOCK:   -6.54 KCAL/MOL
REMARK 923 INTER-LIGAND FREE ENERGY PREDICTED BY IDOCK:   -5.90 KCAL/MOL
REMARK 924 INTRA-LIGAND FREE ENERGY PREDICTED BY IDOCK:   -0.65 KCAL/MOL
REMARK 927      BINDING AFFINITY PREDICTED BY RF-SCORE:    0.00 PKD
ROOT
HETATM    1  C   UNL     1     -12.132  15.677  64.083  1.00  0.00     0.009 C  
HETATM    2  O   UNL     1     -10.895  15.571  64.781  1.00  0.00    -0.430 OA 
ENDROOT
BRANCH   2   3
HETATM    3  C   UNL     1     -10.700  14.416  65.500  1.00  0.00    -0.336 A  
HETATM    4  C   UNL     1     -10.087  14.296  66.758  1.00  0.00    -0.264 A  
HETATM    5  C   UNL     1     -10.939  11.995  65.392  1.00  0.00    -0.347 A  
HETATM    6  C   UNL     1      -9.921  13.018  67.319  1.00  0.00    -0.232 A  
HETATM    7  C   UNL     1     -10.346  11.860  66.653  1.00  0.00    -0.242 A  
HETATM    8  C   UNL     1     -11.107  13.262  64.821  1.00  0.00    -0.359 A  
BRANCH   4   9
HETATM    9  O   UNL     1      -9.627  15.439  67.357  1.00  0.00    -0.209 OA 
HETATM   10  C   UNL     1      -8.469  15.338  68.173  1.00  0.00    -0.151 C  
ENDBRANCH   4   9
BRANCH   7  11
HETATM   11  C   UNL     1      -9.993  10.488  67.225  1.00  0.00    -0.224 C  
BRANCH  11  12
HETATM   12  C   UNL     1      -9.074  10.724  68.431  1.00  0.00    -0.164 C  
BRANCH  12  13
HETATM   13  N   UNL     1      -9.400  10.276  69.788  1.00  0.00    -0.150 NA 
HETATM   14  C   UNL     1     -10.793   9.855  69.925  1.00  0.00    -0.278 C  
BRANCH  13  15
HETATM   15  C   UNL     1      -8.480   9.205  70.256  1.00  0.00    -0.191 C  
BRANCH  15  16
HETATM   16  C   UNL     1      -8.467   7.809  69.556  1.00  0.00    -0.131 C  
BRANCH  16  17
HETATM   17  C   UNL     1      -8.447   6.597  70.515  1.00  0.00    -0.138 C  
BRANCH  17  18
HETATM   18  C   UNL     1      -9.178   5.286  70.111  1.00  0.00    -0.181 C  
HETATM   19  N   UNL     1      -9.382   3.850  72.348  1.00  0.00    -0.115 NA 
HETATM   20  C   UNL     1     -10.683   5.586  69.643  1.00  0.00    -0.349 C  
HETATM   21  C   UNL     1      -9.295   4.463  71.365  1.00  0.00    -0.145 C  
HETATM   22  C   UNL     1     -10.847   6.457  68.386  1.00  0.00    -0.383 C  
HETATM   23  C   UNL     1     -11.539   6.258  70.739  1.00  0.00    -0.347 C  
BRANCH  18  24
HETATM   24  C   UNL     1      -8.330   4.594  69.038  1.00  0.00    -0.085 A  
HETATM   25  C   UNL     1      -7.359   5.293  68.301  1.00  0.00    -0.072 A  
HETATM   26  C   UNL     1      -6.717   4.724  67.196  1.00  0.00    -0.055 A  
HETATM   27  C   UNL     1      -8.604   3.269  68.656  1.00  0.00    -0.122 A  
HETATM   28  C   UNL     1      -7.025   3.403  66.831  1.00  0.00    -0.054 A  
HETATM   29  C   UNL     1      -7.946   2.681  67.582  1.00  0.00    -0.067 A  
BRANCH  26  30
HETATM   30  O   UNL     1      -5.811   5.392  66.412  1.00  0.00    -0.017 OA 
HETATM   31  C   UNL     1      -5.967   6.802  66.293  1.00  0.00    -0.030 C  
ENDBRANCH  26  30
BRANCH  28  32
HETATM   32  O   UNL     1      -6.402   2.912  65.709  1.00  0.00    -0.026 OA 
HETATM   33  C   UNL     1      -5.902   1.582  65.787  1.00  0.00    -0.014 C  
ENDBRANCH  28  32
ENDBRANCH  18  24
ENDBRANCH  17  18
ENDBRANCH  16  17
ENDBRANCH  15  16
ENDBRANCH  13  15
ENDBRANCH  12  13
ENDBRANCH  11  12
ENDBRANCH   7  11
ENDBRANCH   2   3
TORSDOF 12
ENDMDL
MODEL      315
REMARK 921   NORMALIZED FREE ENERGY PREDICTED BY IDOCK:   -2.54 KCAL/MOL
REMARK 922        TOTAL FREE ENERGY PREDICTED BY IDOCK:   -6.54 KCAL/MOL
REMARK 923 INTER-LIGAND FREE ENERGY PREDICTED BY IDOCK:   -6.44 KCAL/MOL
REMARK 924 INTRA-LIGAND FREE ENERGY PREDICTED BY IDOCK:   -0.10 KCAL/MOL
REMARK 927      BINDING AFFINITY PREDICTED BY RF-SCORE:    0.00 PKD
ROOT
HETATM    1  C   UNL     1      -9.187   4.775  74.331  1.00  0.00    -0.110 C  
HETATM    2  O   UNL     1     -10.082   4.376  73.298  1.00  0.00    -0.140 OA 
ENDROOT
BRANCH   2   3
HETATM    3  C   UNL     1     -10.152   5.202  72.201  1.00  0.00    -0.193 A  
HETATM    4  C   UNL     1      -9.353   5.145  71.048  1.00  0.00    -0.151 A  
HETATM    5  C   UNL     1     -11.253   7.193  71.334  1.00  0.00    -0.278 A  
HETATM    6  C   UNL     1      -9.529   6.115  70.045  1.00  0.00    -0.172 A  
HETATM    7  C   UNL     1     -10.477   7.140  70.171  1.00  0.00    -0.231 A  
HETATM    8  C   UNL     1     -11.085   6.236  72.341  1.00  0.00    -0.307 A  
BRANCH   4   9
HETATM    9  O   UNL     1      -8.394   4.169  70.981  1.00  0.00    -0.076 OA 
HETATM   10  C   UNL     1      -8.829   2.824  70.840  1.00  0.00    -0.082 C  
ENDBRANCH   4   9
BRANCH   7  11
HETATM   11  C   UNL     1     -10.513   8.264  69.135  1.00  0.00    -0.217 C  
BRANCH  11  12
HETATM   12  C   UNL     1     -11.375   9.390  69.721  1.00  0.00    -0.042 C  
BRANCH  12  13
HETATM   13  N   UNL     1     -11.264  10.790  69.297  1.00  0.00    -0.250 NA 
HETATM   14  C   UNL     1     -12.005  11.704  70.164  1.00  0.00    -0.359 C  
BRANCH  13  15
HETATM   15  C   UNL     1      -9.846  11.222  69.170  1.00  0.00    -0.004 C  
BRANCH  15  16
HETATM   16  C   UNL     1      -9.497  12.693  68.781  1.00  0.00     0.112 C  
BRANCH  16  17
HETATM   17  C   UNL     1      -9.368  12.954  67.263  1.00  0.00    -0.212 C  
BRANCH  17  18
HETATM   18  C   UNL     1      -9.872  14.299  66.669  1.00  0.00    -0.288 C  
HETATM   19  N   UNL     1     -10.338  13.823  64.087  1.00  0.00    -0.128 NA 
HETATM   20  C   UNL     1     -11.287  14.714  67.302  1.00  0.00    -0.364 C  
HETATM   21  C   UNL     1     -10.134  14.046  65.209  1.00  0.00    -0.318 C  
HETATM   22  C   UNL     1     -11.304  14.993  68.814  1.00  0.00    -0.306 C  
HETATM   23  C   UNL     1     -12.396  13.669  67.051  1.00  0.00    -0.277 C  
BRANCH  18  24
HETATM   24  C   UNL     1      -8.773  15.344  66.889  1.00  0.00    -0.285 A  
HETATM   25  C   UNL     1      -8.030  15.395  68.082  1.00  0.00    -0.132 A  
HETATM   26  C   UNL     1      -7.164  16.454  68.370  1.00  0.00    -0.158 A  
HETATM   27  C   UNL     1      -8.577  16.381  65.959  1.00  0.00    -0.246 A  
HETATM   28  C   UNL     1      -7.002  17.482  67.426  1.00  0.00    -0.164 A  
HETATM   29  C   UNL     1      -7.691  17.420  66.219  1.00  0.00    -0.340 A  
BRANCH  26  30
HETATM   30  O   UNL     1      -6.470  16.574  69.547  1.00  0.00    -0.210 OA 
HETATM   31  C   UNL     1      -6.013  15.373  70.159  1.00  0.00    -0.141 C  
ENDBRANCH  26  30
BRANCH  28  32
HETATM   32  O   UNL     1      -6.177  18.522  67.782  1.00  0.00    -0.186 OA 
HETATM   33  C   UNL     1      -6.250  19.696  66.983  1.00  0.00    -0.187 C  
ENDBRANCH  28  32
ENDBRANCH  18  24
ENDBRANCH  17  18
ENDBRANCH  16  17
ENDBRANCH  15  16
ENDBRANCH  13  15
ENDBRANCH  12  13
ENDBRANCH  11  12
ENDBRANCH   7  11
ENDBRANCH   2   3
TORSDOF 12
ENDMDL
MODEL      316
REMARK 921   NORMALIZED FREE ENERGY PREDICTED BY IDOCK:   -2.53 KCAL/MOL
REMARK 922        TOTAL FREE ENERGY PREDICTED BY IDOCK:   -6.52 KCAL/MOL
REMARK 923 INTER-LIGAND FREE ENERGY PREDICTED BY IDOCK:   -5.99 KCAL/MOL
REMARK 924 INTRA-LIGAND FREE ENERGY PREDICTED BY IDOCK:   -0.53 KCAL/MOL
REMARK 927      BINDING AFFINITY PREDICTED BY RF-SCORE:    0.00 PKD
ROOT
HETATM    1  C   UNL     1     -12.129   1.605  73.336  1.00  0.00    -0.097 C  
HETATM    2  O   UNL     1     -11.090   2.437  73.841  1.00  0.00    -0.186 OA 
ENDROOT
BRANCH   2   3
HETATM    3  C   UNL     1     -10.714   3.493  73.045  1.00  0.00    -0.137 A  
HETATM    4  C   UNL     1      -9.856   3.451  71.934  1.00  0.00    -0.167 A  
HETATM    5  C   UNL     1     -10.889   5.910  72.813  1.00  0.00    -0.289 A  
HETATM    6  C   UNL     1      -9.537   4.648  71.271  1.00  0.00    -0.238 A  
HETATM    7  C   UNL     1     -10.049   5.883  71.693  1.00  0.00    -0.233 A  
HETATM    8  C   UNL     1     -11.211   4.725  73.484  1.00  0.00    -0.392 A  
BRANCH   4   9
HETATM    9  O   UNL     1      -9.324   2.239  71.582  1.00  0.00    -0.091 OA 
HETATM   10  C   UNL     1      -8.053   1.895  72.115  1.00  0.00    -0.049 C  
ENDBRANCH   4   9
BRANCH   7  11
HETATM   11  C   UNL     1      -9.541   7.171  71.046  1.00  0.00    -0.158 C  
BRANCH  11  12
HETATM   12  C   UNL     1      -8.072   7.336  71.460  1.00  0.00    -0.101 C  
BRANCH  12  13
HETATM   13  N   UNL     1      -7.118   8.166  70.718  1.00  0.00    -0.047 NA 
HETATM   14  C   UNL     1      -5.728   7.887  71.076  1.00  0.00    -0.034 C  
BRANCH  13  15
HETATM   15  C   UNL     1      -7.311   8.057  69.247  1.00  0.00    -0.081 C  
BRANCH  15  16
HETATM   16  C   UNL     1      -7.605   9.328  68.390  1.00  0.00    -0.086 C  
BRANCH  16  17
HETATM   17  C   UNL     1      -7.347   9.167  66.874  1.00  0.00    -0.090 C  
BRANCH  17  18
HETATM   18  C   UNL     1      -8.546   9.188  65.885  1.00  0.00    -0.168 C  
HETATM   19  N   UNL     1      -7.590  10.192  63.608  1.00  0.00    -0.150 NA 
HETATM   20  C   UNL     1      -9.034   7.700  65.539  1.00  0.00     0.042 C  
HETATM   21  C   UNL     1      -8.021   9.759  64.596  1.00  0.00    -0.139 C  
HETATM   22  C   UNL     1      -9.587   6.872  66.711  1.00  0.00    -0.215 C  
HETATM   23  C   UNL     1      -7.932   6.834  64.891  1.00  0.00    -0.124 C  
BRANCH  18  24
HETATM   24  C   UNL     1      -9.642  10.064  66.504  1.00  0.00    -0.237 A  
HETATM   25  C   UNL     1      -9.892  11.368  66.044  1.00  0.00    -0.256 A  
HETATM   26  C   UNL     1     -10.752  12.240  66.721  1.00  0.00    -0.240 A  
HETATM   27  C   UNL     1     -10.332   9.638  67.653  1.00  0.00    -0.290 A  
HETATM   28  C   UNL     1     -11.413  11.789  67.875  1.00  0.00    -0.317 A  
HETATM   29  C   UNL     1     -11.216  10.484  68.313  1.00  0.00    -0.354 A  
BRANCH  26  30
HETATM   30  O   UNL     1     -10.974  13.539  66.343  1.00  0.00    -0.291 OA 
HETATM   31  C   UNL     1      -9.883  14.446  66.458  1.00  0.00    -0.287 C  
ENDBRANCH  26  30
BRANCH  28  32
HETATM   32  O   UNL     1     -12.207  12.701  68.528  1.00  0.00    -0.178 OA 
HETATM   33  C   UNL     1     -11.807  13.070  69.843  1.00  0.00    -0.307 C  
ENDBRANCH  28  32
ENDBRANCH  18  24
ENDBRANCH  17  18
ENDBRANCH  16  17
ENDBRANCH  15  16
ENDBRANCH  13  15
ENDBRANCH  12  13
ENDBRANCH  11  12
ENDBRANCH   7  11
ENDBRANCH   2   3
TORSDOF 12
ENDMDL
MODEL      317
REMARK 921   NORMALIZED FREE ENERGY PREDICTED BY IDOCK:   -2.48 KCAL/MOL
REMARK 922        TOTAL FREE ENERGY PREDICTED BY IDOCK:   -6.44 KCAL/MOL
REMARK 923 INTER-LIGAND FREE ENERGY PREDICTED BY IDOCK:   -5.18 KCAL/MOL
REMARK 924 INTRA-LIGAND FREE ENERGY PREDICTED BY IDOCK:   -1.26 KCAL/MOL
REMARK 927      BINDING AFFINITY PREDICTED BY RF-SCORE:    0.00 PKD
ROOT
HETATM    1  C   UNL     1     -12.018  11.671  69.278  1.00  0.00    -0.317 C  
HETATM    2  O   UNL     1     -10.640  11.991  69.116  1.00  0.00    -0.150 OA 
ENDROOT
BRANCH   2   3
HETATM    3  C   UNL     1     -10.020  11.470  68.006  1.00  0.00    -0.189 A  
HETATM    4  C   UNL     1      -8.642  11.451  67.737  1.00  0.00    -0.129 A  
HETATM    5  C   UNL     1     -10.453  10.464  65.831  1.00  0.00    -0.196 A  
HETATM    6  C   UNL     1      -8.191  10.924  66.514  1.00  0.00    -0.157 A  
HETATM    7  C   UNL     1      -9.081  10.422  65.555  1.00  0.00    -0.208 A  
HETATM    8  C   UNL     1     -10.915  10.990  67.042  1.00  0.00    -0.333 A  
BRANCH   4   9
HETATM    9  O   UNL     1      -7.801  12.003  68.666  1.00  0.00    -0.133 OA 
HETATM   10  C   UNL     1      -6.731  11.203  69.148  1.00  0.00    -0.092 C  
ENDBRANCH   4   9
BRANCH   7  11
HETATM   11  C   UNL     1      -8.557  10.017  64.177  1.00  0.00    -0.195 C  
BRANCH  11  12
HETATM   12  C   UNL     1      -7.100   9.574  64.362  1.00  0.00    -0.108 C  
BRANCH  12  13
HETATM   13  N   UNL     1      -6.699   8.170  64.499  1.00  0.00    -0.067 NA 
HETATM   14  C   UNL     1      -5.548   7.995  65.382  1.00  0.00    -0.036 C  
BRANCH  13  15
HETATM   15  C   UNL     1      -7.830   7.309  64.936  1.00  0.00    -0.126 C  
BRANCH  15  16
HETATM   16  C   UNL     1      -7.563   5.889  65.528  1.00  0.00    -0.084 C  
BRANCH  16  17
HETATM   17  C   UNL     1      -7.650   5.797  67.068  1.00  0.00    -0.099 C  
BRANCH  17  18
HETATM   18  C   UNL     1      -8.984   5.366  67.738  1.00  0.00    -0.108 C  
HETATM   19  N   UNL     1     -10.854   6.980  66.733  1.00  0.00    -0.269 NA 
HETATM   20  C   UNL     1      -9.400   3.882  67.294  1.00  0.00    -0.220 C  
HETATM   21  C   UNL     1     -10.049   6.274  67.183  1.00  0.00    -0.168 C  
HETATM   22  C   UNL     1      -8.443   2.752  67.707  1.00  0.00    -0.103 C  
HETATM   23  C   UNL     1      -9.594   3.735  65.769  1.00  0.00    -0.165 C  
BRANCH  18  24
HETATM   24  C   UNL     1      -8.816   5.527  69.253  1.00  0.00    -0.112 A  
HETATM   25  C   UNL     1      -9.914   5.765  70.097  1.00  0.00    -0.258 A  
HETATM   26  C   UNL     1      -9.753   6.102  71.445  1.00  0.00    -0.167 A  
HETATM   27  C   UNL     1      -7.533   5.591  69.826  1.00  0.00    -0.070 A  
HETATM   28  C   UNL     1      -8.457   6.173  71.982  1.00  0.00    -0.121 A  
HETATM   29  C   UNL     1      -7.362   5.890  71.173  1.00  0.00    -0.083 A  
BRANCH  26  30
HETATM   30  O   UNL     1     -10.794   6.403  72.286  1.00  0.00    -0.221 OA 
HETATM   31  C   UNL     1     -11.684   7.435  71.877  1.00  0.00    -0.288 C  
ENDBRANCH  26  30
BRANCH  28  32
HETATM   32  O   UNL     1      -8.355   6.557  73.298  1.00  0.00    -0.116 OA 
HETATM   33  C   UNL     1      -7.457   5.812  74.112  1.00  0.00    -0.092 C  
ENDBRANCH  28  32
ENDBRANCH  18  24
ENDBRANCH  17  18
ENDBRANCH  16  17
ENDBRANCH  15  16
ENDBRANCH  13  15
ENDBRANCH  12  13
ENDBRANCH  11  12
ENDBRANCH   7  11
ENDBRANCH   2   3
TORSDOF 12
ENDMDL
MODEL      318
REMARK 921   NORMALIZED FREE ENERGY PREDICTED BY IDOCK:   -2.47 KCAL/MOL
REMARK 922        TOTAL FREE ENERGY PREDICTED BY IDOCK:   -6.42 KCAL/MOL
REMARK 923 INTER-LIGAND FREE ENERGY PREDICTED BY IDOCK:   -6.00 KCAL/MOL
REMARK 924 INTRA-LIGAND FREE ENERGY PREDICTED BY IDOCK:   -0.42 KCAL/MOL
REMARK 927      BINDING AFFINITY PREDICTED BY RF-SCORE:    0.00 PKD
ROOT
HETATM    1  C   UNL     1     -11.177   4.889  72.679  1.00  0.00    -0.120 C  
HETATM    2  O   UNL     1      -9.802   4.947  73.043  1.00  0.00    -0.144 OA 
ENDROOT
BRANCH   2   3
HETATM    3  C   UNL     1      -9.031   5.861  72.365  1.00  0.00    -0.137 A  
HETATM    4  C   UNL     1      -8.272   5.632  71.206  1.00  0.00    -0.125 A  
HETATM    5  C   UNL     1      -8.201   8.148  72.452  1.00  0.00    -0.206 A  
HETATM    6  C   UNL     1      -7.494   6.679  70.680  1.00  0.00    -0.083 A  
HETATM    7  C   UNL     1      -7.452   7.942  71.287  1.00  0.00    -0.073 A  
HETATM    8  C   UNL     1      -8.976   7.114  72.986  1.00  0.00    -0.161 A  
BRANCH   4   9
HETATM    9  O   UNL     1      -8.285   4.372  70.670  1.00  0.00    -0.069 OA 
HETATM   10  C   UNL     1      -7.857   3.298  71.496  1.00  0.00    -0.056 C  
ENDBRANCH   4   9
BRANCH   7  11
HETATM   11  C   UNL     1      -6.465   8.991  70.777  1.00  0.00    -0.058 C  
BRANCH  11  12
HETATM   12  C   UNL     1      -7.289  10.102  70.113  1.00  0.00    -0.147 C  
BRANCH  12  13
HETATM   13  N   UNL     1      -6.691  11.317  69.549  1.00  0.00    -0.124 NA 
HETATM   14  C   UNL     1      -5.708  11.929  70.442  1.00  0.00    -0.163 C  
BRANCH  13  15
HETATM   15  C   UNL     1      -6.100  11.074  68.206  1.00  0.00    -0.049 C  
BRANCH  15  16
HETATM   16  C   UNL     1      -6.845  10.188  67.160  1.00  0.00    -0.082 C  
BRANCH  16  17
HETATM   17  C   UNL     1      -7.979  10.901  66.388  1.00  0.00    -0.157 C  
BRANCH  17  18
HETATM   18  C   UNL     1      -9.313  10.151  66.116  1.00  0.00    -0.217 C  
HETATM   19  N   UNL     1     -10.086  10.911  63.680  1.00  0.00    -0.344 NA 
HETATM   20  C   UNL     1      -9.076   8.568  66.028  1.00  0.00    -0.246 C  
HETATM   21  C   UNL     1      -9.764  10.576  64.745  1.00  0.00    -0.305 C  
HETATM   22  C   UNL     1      -8.566   7.881  67.305  1.00  0.00    -0.128 C  
HETATM   23  C   UNL     1      -8.094   8.160  64.907  1.00  0.00    -0.153 C  
BRANCH  18  24
HETATM   24  C   UNL     1     -10.307  10.562  67.208  1.00  0.00    -0.275 A  
HETATM   25  C   UNL     1     -10.770  11.884  67.325  1.00  0.00    -0.276 A  
HETATM   26  C   UNL     1     -11.522  12.311  68.424  1.00  0.00    -0.307 A  
HETATM   27  C   UNL     1     -10.670   9.656  68.220  1.00  0.00    -0.262 A  
HETATM   28  C   UNL     1     -11.855  11.384  69.426  1.00  0.00    -0.351 A  
HETATM   29  C   UNL     1     -11.448  10.060  69.299  1.00  0.00    -0.111 A  
BRANCH  26  30
HETATM   30  O   UNL     1     -11.939  13.604  68.609  1.00  0.00    -0.350 OA 
HETATM   31  C   UNL     1     -12.239  14.364  67.444  1.00  0.00    -0.195 C  
ENDBRANCH  26  30
BRANCH  28  32
HETATM   32  O   UNL     1     -12.552  11.868  70.508  1.00  0.00    -0.227 OA 
HETATM   33  C   UNL     1     -12.637  11.017  71.645  1.00  0.00    -0.297 C  
ENDBRANCH  28  32
ENDBRANCH  18  24
ENDBRANCH  17  18
ENDBRANCH  16  17
ENDBRANCH  15  16
ENDBRANCH  13  15
ENDBRANCH  12  13
ENDBRANCH  11  12
ENDBRANCH   7  11
ENDBRANCH   2   3
TORSDOF 12
ENDMDL
MODEL      319
REMARK 921   NORMALIZED FREE ENERGY PREDICTED BY IDOCK:   -2.46 KCAL/MOL
REMARK 922        TOTAL FREE ENERGY PREDICTED BY IDOCK:   -6.41 KCAL/MOL
REMARK 923 INTER-LIGAND FREE ENERGY PREDICTED BY IDOCK:   -5.37 KCAL/MOL
REMARK 924 INTRA-LIGAND FREE ENERGY PREDICTED BY IDOCK:   -1.04 KCAL/MOL
REMARK 927      BINDING AFFINITY PREDICTED BY RF-SCORE:    0.00 PKD
ROOT
HETATM    1  C   UNL     1      -6.540   7.875  64.175  1.00  0.00    -0.061 C  
HETATM    2  O   UNL     1      -5.467   8.193  65.056  1.00  0.00    -0.039 OA 
ENDROOT
BRANCH   2   3
HETATM    3  C   UNL     1      -5.777   8.992  66.130  1.00  0.00    -0.053 A  
HETATM    4  C   UNL     1      -5.811   8.614  67.482  1.00  0.00    -0.043 A  
HETATM    5  C   UNL     1      -6.558  11.217  66.737  1.00  0.00    -0.133 A  
HETATM    6  C   UNL     1      -6.210   9.557  68.446  1.00  0.00    -0.048 A  
HETATM    7  C   UNL     1      -6.580  10.862  68.091  1.00  0.00    -0.062 A  
HETATM    8  C   UNL     1      -6.166  10.286  65.768  1.00  0.00    -0.109 A  
BRANCH   4   9
HETATM    9  O   UNL     1      -5.503   7.316  67.792  1.00  0.00    -0.022 OA 
HETATM   10  C   UNL     1      -5.431   6.964  69.167  1.00  0.00    -0.014 C  
ENDBRANCH   4   9
BRANCH   7  11
HETATM   11  C   UNL     1      -7.166  11.794  69.151  1.00  0.00    -0.043 C  
BRANCH  11  12
HETATM   12  C   UNL     1      -7.197  13.203  68.545  1.00  0.00    -0.110 C  
BRANCH  12  13
HETATM   13  N   UNL     1      -8.138  14.242  68.977  1.00  0.00    -0.062 NA 
HETATM   14  C   UNL     1      -7.467  15.468  69.408  1.00  0.00    -0.219 C  
BRANCH  13  15
HETATM   15  C   UNL     1      -9.155  14.540  67.934  1.00  0.00    -0.191 C  
BRANCH  15  16
HETATM   16  C   UNL     1     -10.151  13.436  67.459  1.00  0.00    -0.227 C  
BRANCH  16  17
HETATM   17  C   UNL     1      -9.642  12.554  66.296  1.00  0.00    -0.246 C  
BRANCH  17  18
HETATM   18  C   UNL     1     -10.509  11.364  65.799  1.00  0.00    -0.314 C  
HETATM   19  N   UNL     1     -12.966  12.345  65.471  1.00  0.00     0.085 NA 
HETATM   20  C   UNL     1     -10.035  10.872  64.348  1.00  0.00    -0.381 C  
HETATM   21  C   UNL     1     -11.902  11.903  65.615  1.00  0.00    -0.043 C  
HETATM   22  C   UNL     1      -8.609  10.306  64.250  1.00  0.00    -0.198 C  
HETATM   23  C   UNL     1     -10.126  11.976  63.271  1.00  0.00    -0.379 C  
BRANCH  18  24
HETATM   24  C   UNL     1     -10.447  10.266  66.868  1.00  0.00    -0.291 A  
HETATM   25  C   UNL     1     -11.051  10.428  68.127  1.00  0.00    -0.344 A  
HETATM   26  C   UNL     1     -10.840   9.521  69.170  1.00  0.00    -0.173 A  
HETATM   27  C   UNL     1      -9.653   9.123  66.671  1.00  0.00    -0.263 A  
HETATM   28  C   UNL     1     -10.029   8.396  68.946  1.00  0.00    -0.187 A  
HETATM   29  C   UNL     1      -9.465   8.196  67.690  1.00  0.00    -0.172 A  
BRANCH  26  30
HETATM   30  O   UNL     1     -11.358   9.674  70.431  1.00  0.00    -0.251 OA 
HETATM   31  C   UNL     1     -11.895  10.949  70.764  1.00  0.00    -0.319 C  
ENDBRANCH  26  30
BRANCH  28  32
HETATM   32  O   UNL     1      -9.815   7.565  70.020  1.00  0.00    -0.179 OA 
HETATM   33  C   UNL     1     -10.915   6.764  70.435  1.00  0.00    -0.283 C  
ENDBRANCH  28  32
ENDBRANCH  18  24
ENDBRANCH  17  18
ENDBRANCH  16  17
ENDBRANCH  15  16
ENDBRANCH  13  15
ENDBRANCH  12  13
ENDBRANCH  11  12
ENDBRANCH   7  11
ENDBRANCH   2   3
TORSDOF 12
ENDMDL
MODEL      320
REMARK 921   NORMALIZED FREE ENERGY PREDICTED BY IDOCK:   -2.44 KCAL/MOL
REMARK 922        TOTAL FREE ENERGY PREDICTED BY IDOCK:   -6.38 KCAL/MOL
REMARK 923 INTER-LIGAND FREE ENERGY PREDICTED BY IDOCK:   -5.20 KCAL/MOL
REMARK 924 INTRA-LIGAND FREE ENERGY PREDICTED BY IDOCK:   -1.17 KCAL/MOL
REMARK 927      BINDING AFFINITY PREDICTED BY RF-SCORE:    0.00 PKD
ROOT
HETATM    1  C   UNL     1      -9.601  19.877  67.407  1.00  0.00    -0.374 C  
HETATM    2  O   UNL     1      -8.414  19.249  66.935  1.00  0.00    -0.271 OA 
ENDROOT
BRANCH   2   3
HETATM    3  C   UNL     1      -8.263  17.919  67.248  1.00  0.00    -0.217 A  
HETATM    4  C   UNL     1      -8.765  16.820  66.532  1.00  0.00    -0.275 A  
HETATM    5  C   UNL     1      -7.394  16.408  68.948  1.00  0.00    -0.214 A  
HETATM    6  C   UNL     1      -8.561  15.523  67.037  1.00  0.00    -0.262 A  
HETATM    7  C   UNL     1      -7.873  15.301  68.238  1.00  0.00    -0.116 A  
HETATM    8  C   UNL     1      -7.595  17.703  68.458  1.00  0.00    -0.272 A  
BRANCH   4   9
HETATM    9  O   UNL     1      -9.484  17.072  65.394  1.00  0.00    -0.326 OA 
HETATM   10  C   UNL     1     -10.715  16.382  65.223  1.00  0.00    -0.295 C  
ENDBRANCH   4   9
BRANCH   7  11
HETATM   11  C   UNL     1      -7.824  13.892  68.829  1.00  0.00    -0.079 C  
BRANCH  11  12
HETATM   12  C   UNL     1      -6.414  13.345  68.574  1.00  0.00    -0.086 C  
BRANCH  12  13
HETATM   13  N   UNL     1      -5.608  12.689  69.610  1.00  0.00    -0.088 NA 
HETATM   14  C   UNL     1      -5.325  13.565  70.745  1.00  0.00    -0.145 C  
BRANCH  13  15
HETATM   15  C   UNL     1      -6.225  11.417  70.072  1.00  0.00    -0.148 C  
BRANCH  15  16
HETATM   16  C   UNL     1      -6.257  10.166  69.138  1.00  0.00    -0.040 C  
BRANCH  16  17
HETATM   17  C   UNL     1      -7.089  10.337  67.846  1.00  0.00    -0.084 C  
BRANCH  17  18
HETATM   18  C   UNL     1      -8.434   9.574  67.692  1.00  0.00    -0.122 C  
HETATM   19  N   UNL     1      -9.464   9.418  70.147  1.00  0.00    -0.222 NA 
HETATM   20  C   UNL     1      -9.484  10.424  66.828  1.00  0.00    -0.198 C  
HETATM   21  C   UNL     1      -9.024   9.474  69.073  1.00  0.00    -0.144 C  
HETATM   22  C   UNL     1      -9.096  10.708  65.368  1.00  0.00    -0.214 C  
HETATM   23  C   UNL     1      -9.815  11.797  67.452  1.00  0.00    -0.189 C  
BRANCH  18  24
HETATM   24  C   UNL     1      -8.120   8.198  67.094  1.00  0.00    -0.116 A  
HETATM   25  C   UNL     1      -8.706   7.023  67.596  1.00  0.00    -0.121 A  
HETATM   26  C   UNL     1      -8.286   5.753  67.189  1.00  0.00    -0.102 A  
HETATM   27  C   UNL     1      -7.118   8.055  66.117  1.00  0.00    -0.062 A  
HETATM   28  C   UNL     1      -7.271   5.645  66.223  1.00  0.00    -0.077 A  
HETATM   29  C   UNL     1      -6.717   6.799  65.678  1.00  0.00    -0.051 A  
BRANCH  26  30
HETATM   30  O   UNL     1      -8.786   4.583  67.700  1.00  0.00    -0.103 OA 
HETATM   31  C   UNL     1      -8.579   4.336  69.086  1.00  0.00    -0.082 C  
ENDBRANCH  26  30
BRANCH  28  32
HETATM   32  O   UNL     1      -6.863   4.374  65.896  1.00  0.00    -0.055 OA 
HETATM   33  C   UNL     1      -7.043   3.975  64.542  1.00  0.00    -0.054 C  
ENDBRANCH  28  32
ENDBRANCH  18  24
ENDBRANCH  17  18
ENDBRANCH  16  17
ENDBRANCH  15  16
ENDBRANCH  13  15
ENDBRANCH  12  13
ENDBRANCH  11  12
ENDBRANCH   7  11
ENDBRANCH   2   3
TORSDOF 12
ENDMDL
MODEL      321
REMARK 921   NORMALIZED FREE ENERGY PREDICTED BY IDOCK:   -2.43 KCAL/MOL
REMARK 922        TOTAL FREE ENERGY PREDICTED BY IDOCK:   -6.36 KCAL/MOL
REMARK 923 INTER-LIGAND FREE ENERGY PREDICTED BY IDOCK:   -5.46 KCAL/MOL
REMARK 924 INTRA-LIGAND FREE ENERGY PREDICTED BY IDOCK:   -0.91 KCAL/MOL
REMARK 927      BINDING AFFINITY PREDICTED BY RF-SCORE:    0.00 PKD
ROOT
HETATM    1  C   UNL     1     -13.143  12.987  64.635  1.00  0.00     0.086 C  
HETATM    2  O   UNL     1     -12.310  12.269  65.539  1.00  0.00    -0.602 OA 
ENDROOT
BRANCH   2   3
HETATM    3  C   UNL     1     -11.106  11.833  65.042  1.00  0.00    -0.284 A  
HETATM    4  C   UNL     1     -10.204  12.562  64.249  1.00  0.00    -0.333 A  
HETATM    5  C   UNL     1      -9.675   9.871  64.856  1.00  0.00    -0.332 A  
HETATM    6  C   UNL     1      -9.039  11.929  63.780  1.00  0.00     0.381 A  
HETATM    7  C   UNL     1      -8.758  10.588  64.079  1.00  0.00    -0.176 A  
HETATM    8  C   UNL     1     -10.840  10.488  65.325  1.00  0.00     0.129 A  
BRANCH   4   9
HETATM    9  O   UNL     1     -10.535  13.850  63.924  1.00  0.00     0.094 OA 
HETATM   10  C   UNL     1     -10.198  14.874  64.850  1.00  0.00    -0.251 C  
ENDBRANCH   4   9
BRANCH   7  11
HETATM   11  C   UNL     1      -7.569   9.900  63.409  1.00  0.00    -0.139 C  
BRANCH  11  12
HETATM   12  C   UNL     1      -7.012   8.883  64.413  1.00  0.00    -0.088 C  
BRANCH  12  13
HETATM   13  N   UNL     1      -5.984   9.215  65.405  1.00  0.00    -0.058 NA 
HETATM   14  C   UNL     1      -5.207  10.398  65.040  1.00  0.00    -0.122 C  
BRANCH  13  15
HETATM   15  C   UNL     1      -6.555   9.364  66.770  1.00  0.00    -0.068 C  
BRANCH  15  16
HETATM   16  C   UNL     1      -6.981   8.108  67.593  1.00  0.00    -0.078 C  
BRANCH  16  17
HETATM   17  C   UNL     1      -8.505   7.939  67.786  1.00  0.00    -0.125 C  
BRANCH  17  18
HETATM   18  C   UNL     1      -9.121   8.092  69.205  1.00  0.00    -0.145 C  
HETATM   19  N   UNL     1     -10.867   6.092  69.456  1.00  0.00    -0.322 NA 
HETATM   20  C   UNL     1      -8.015   7.855  70.342  1.00  0.00    -0.097 C  
HETATM   21  C   UNL     1     -10.114   6.972  69.358  1.00  0.00    -0.169 C  
HETATM   22  C   UNL     1      -6.848   8.855  70.379  1.00  0.00    -0.049 C  
HETATM   23  C   UNL     1      -7.370   6.454  70.281  1.00  0.00    -0.089 C  
BRANCH  18  24
HETATM   24  C   UNL     1      -9.786   9.471  69.275  1.00  0.00    -0.184 A  
HETATM   25  C   UNL     1     -11.006   9.669  69.944  1.00  0.00    -0.281 A  
HETATM   26  C   UNL     1     -11.714  10.872  69.853  1.00  0.00    -0.339 A  
HETATM   27  C   UNL     1      -9.267  10.552  68.540  1.00  0.00    -0.168 A  
HETATM   28  C   UNL     1     -11.176  11.927  69.098  1.00  0.00    -0.255 A  
HETATM   29  C   UNL     1      -9.945  11.764  68.472  1.00  0.00    -0.203 A  
BRANCH  26  30
HETATM   30  O   UNL     1     -12.937  11.084  70.437  1.00  0.00    -0.201 OA 
HETATM   31  C   UNL     1     -12.977  11.150  71.858  1.00  0.00    -0.372 C  
ENDBRANCH  26  30
BRANCH  28  32
HETATM   32  O   UNL     1     -11.936  13.068  69.002  1.00  0.00    -0.303 OA 
HETATM   33  C   UNL     1     -11.526  14.029  68.036  1.00  0.00    -0.311 C  
ENDBRANCH  28  32
ENDBRANCH  18  24
ENDBRANCH  17  18
ENDBRANCH  16  17
ENDBRANCH  15  16
ENDBRANCH  13  15
ENDBRANCH  12  13
ENDBRANCH  11  12
ENDBRANCH   7  11
ENDBRANCH   2   3
TORSDOF 12
ENDMDL
MODEL      322
REMARK 921   NORMALIZED FREE ENERGY PREDICTED BY IDOCK:   -2.42 KCAL/MOL
REMARK 922        TOTAL FREE ENERGY PREDICTED BY IDOCK:   -6.34 KCAL/MOL
REMARK 923 INTER-LIGAND FREE ENERGY PREDICTED BY IDOCK:   -5.94 KCAL/MOL
REMARK 924 INTRA-LIGAND FREE ENERGY PREDICTED BY IDOCK:   -0.40 KCAL/MOL
REMARK 927      BINDING AFFINITY PREDICTED BY RF-SCORE:    0.00 PKD
ROOT
HETATM    1  C   UNL     1      -6.462   6.249  65.810  1.00  0.00    -0.043 C  
HETATM    2  O   UNL     1      -6.170   6.917  64.587  1.00  0.00    -0.035 OA 
ENDROOT
BRANCH   2   3
HETATM    3  C   UNL     1      -7.152   7.745  64.098  1.00  0.00    -0.075 A  
HETATM    4  C   UNL     1      -7.995   7.502  63.002  1.00  0.00    -0.111 A  
HETATM    5  C   UNL     1      -8.134   9.958  64.355  1.00  0.00    -0.157 A  
HETATM    6  C   UNL     1      -8.908   8.495  62.607  1.00  0.00     0.136 A  
HETATM    7  C   UNL     1      -8.994   9.724  63.276  1.00  0.00    -0.274 A  
HETATM    8  C   UNL     1      -7.219   8.979  64.756  1.00  0.00    -0.096 A  
BRANCH   4   9
HETATM    9  O   UNL     1      -7.846   6.317  62.331  1.00  0.00    -0.082 OA 
HETATM   10  C   UNL     1      -8.361   5.142  62.941  1.00  0.00    -0.111 C  
ENDBRANCH   4   9
BRANCH   7  11
HETATM   11  C   UNL     1      -9.880  10.832  62.706  1.00  0.00    -0.239 C  
BRANCH  11  12
HETATM   12  C   UNL     1     -10.872  11.228  63.808  1.00  0.00    -0.350 C  
BRANCH  12  13
HETATM   13  N   UNL     1     -11.448  12.572  63.923  1.00  0.00    -0.398 NA 
HETATM   14  C   UNL     1     -12.604  12.616  64.817  1.00  0.00    -0.454 C  
BRANCH  13  15
HETATM   15  C   UNL     1     -10.433  13.580  64.330  1.00  0.00    -0.346 C  
BRANCH  15  16
HETATM   16  C   UNL     1     -10.070  13.776  65.836  1.00  0.00    -0.325 C  
BRANCH  16  17
HETATM   17  C   UNL     1      -9.418  12.551  66.516  1.00  0.00    -0.240 C  
BRANCH  17  18
HETATM   18  C   UNL     1      -9.066  12.610  68.029  1.00  0.00    -0.207 C  
HETATM   19  N   UNL     1      -6.515  13.377  68.150  1.00  0.00    -0.104 NA 
HETATM   20  C   UNL     1      -9.905  13.757  68.772  1.00  0.00    -0.093 C  
HETATM   21  C   UNL     1      -7.625  13.036  68.112  1.00  0.00    -0.136 C  
HETATM   22  C   UNL     1     -11.432  13.581  68.795  1.00  0.00    -0.349 C  
HETATM   23  C   UNL     1      -9.650  15.167  68.196  1.00  0.00    -0.205 C  
BRANCH  18  24
HETATM   24  C   UNL     1      -9.292  11.211  68.612  1.00  0.00    -0.186 A  
HETATM   25  C   UNL     1      -8.220  10.401  69.026  1.00  0.00    -0.141 A  
HETATM   26  C   UNL     1      -8.398   9.059  69.378  1.00  0.00    -0.119 A  
HETATM   27  C   UNL     1     -10.575  10.636  68.611  1.00  0.00    -0.229 A  
HETATM   28  C   UNL     1      -9.691   8.511  69.351  1.00  0.00    -0.177 A  
HETATM   29  C   UNL     1     -10.769   9.313  68.994  1.00  0.00    -0.189 A  
BRANCH  26  30
HETATM   30  O   UNL     1      -7.372   8.218  69.725  1.00  0.00    -0.062 OA 
HETATM   31  C   UNL     1      -6.054   8.757  69.710  1.00  0.00    -0.035 C  
ENDBRANCH  26  30
BRANCH  28  32
HETATM   32  O   UNL     1      -9.801   7.176  69.658  1.00  0.00    -0.161 OA 
HETATM   33  C   UNL     1     -11.060   6.564  69.400  1.00  0.00    -0.348 C  
ENDBRANCH  28  32
ENDBRANCH  18  24
ENDBRANCH  17  18
ENDBRANCH  16  17
ENDBRANCH  15  16
ENDBRANCH  13  15
ENDBRANCH  12  13
ENDBRANCH  11  12
ENDBRANCH   7  11
ENDBRANCH   2   3
TORSDOF 12
ENDMDL
MODEL      323
REMARK 921   NORMALIZED FREE ENERGY PREDICTED BY IDOCK:   -2.38 KCAL/MOL
REMARK 922        TOTAL FREE ENERGY PREDICTED BY IDOCK:   -6.26 KCAL/MOL
REMARK 923 INTER-LIGAND FREE ENERGY PREDICTED BY IDOCK:   -5.52 KCAL/MOL
REMARK 924 INTRA-LIGAND FREE ENERGY PREDICTED BY IDOCK:   -0.74 KCAL/MOL
REMARK 927      BINDING AFFINITY PREDICTED BY RF-SCORE:    0.00 PKD
ROOT
HETATM    1  C   UNL     1      -9.182  13.481  66.636  1.00  0.00    -0.210 C  
HETATM    2  O   UNL     1     -10.599  13.411  66.757  1.00  0.00    -0.274 OA 
ENDROOT
BRANCH   2   3
HETATM    3  C   UNL     1     -11.084  12.885  67.930  1.00  0.00    -0.252 A  
HETATM    4  C   UNL     1     -10.839  11.602  68.447  1.00  0.00    -0.219 A  
HETATM    5  C   UNL     1     -12.590  13.340  69.789  1.00  0.00     0.069 A  
HETATM    6  C   UNL     1     -11.471  11.213  69.641  1.00  0.00    -0.383 A  
HETATM    7  C   UNL     1     -12.344  12.071  70.326  1.00  0.00    -0.275 A  
HETATM    8  C   UNL     1     -11.970  13.737  68.599  1.00  0.00    -0.401 A  
BRANCH   4   9
HETATM    9  O   UNL     1     -10.031  10.765  67.725  1.00  0.00    -0.167 OA 
HETATM   10  C   UNL     1     -10.656   9.799  66.891  1.00  0.00    -0.173 C  
ENDBRANCH   4   9
BRANCH   7  11
HETATM   11  C   UNL     1     -13.134  11.544  71.523  1.00  0.00    -0.429 C  
BRANCH  11  12
HETATM   12  C   UNL     1     -13.532  10.098  71.200  1.00  0.00    -0.201 C  
BRANCH  12  13
HETATM   13  N   UNL     1     -13.049   8.943  71.964  1.00  0.00    -0.372 NA 
HETATM   14  C   UNL     1     -13.958   8.558  73.042  1.00  0.00     0.332 C  
BRANCH  13  15
HETATM   15  C   UNL     1     -12.756   7.779  71.085  1.00  0.00    -0.176 C  
BRANCH  15  16
HETATM   16  C   UNL     1     -11.360   7.083  71.131  1.00  0.00    -0.319 C  
BRANCH  16  17
HETATM   17  C   UNL     1     -10.149   8.040  71.039  1.00  0.00    -0.213 C  
BRANCH  17  18
HETATM   18  C   UNL     1      -8.818   7.536  70.414  1.00  0.00    -0.145 C  
HETATM   19  N   UNL     1      -7.312   9.709  70.067  1.00  0.00    -0.111 NA 
HETATM   20  C   UNL     1      -8.015   6.605  71.443  1.00  0.00    -0.107 C  
HETATM   21  C   UNL     1      -7.960   8.754  70.207  1.00  0.00    -0.106 C  
HETATM   22  C   UNL     1      -8.702   5.293  71.859  1.00  0.00    -0.134 C  
HETATM   23  C   UNL     1      -7.649   7.326  72.759  1.00  0.00    -0.091 C  
BRANCH  18  24
HETATM   24  C   UNL     1      -9.161   6.836  69.094  1.00  0.00    -0.137 A  
HETATM   25  C   UNL     1      -8.169   6.499  68.157  1.00  0.00    -0.117 A  
HETATM   26  C   UNL     1      -8.487   6.038  66.876  1.00  0.00    -0.109 A  
HETATM   27  C   UNL     1     -10.502   6.645  68.715  1.00  0.00    -0.241 A  
HETATM   28  C   UNL     1      -9.837   5.873  66.523  1.00  0.00    -0.152 A  
HETATM   29  C   UNL     1     -10.829   6.153  67.457  1.00  0.00    -0.422 A  
BRANCH  26  30
HETATM   30  O   UNL     1      -7.552   5.759  65.911  1.00  0.00    -0.083 OA 
HETATM   31  C   UNL     1      -6.668   4.672  66.157  1.00  0.00    -0.050 C  
ENDBRANCH  26  30
BRANCH  28  32
HETATM   32  O   UNL     1     -10.093   5.465  65.236  1.00  0.00     0.247 OA 
HETATM   33  C   UNL     1     -10.772   4.224  65.083  1.00  0.00    -0.105 C  
ENDBRANCH  28  32
ENDBRANCH  18  24
ENDBRANCH  17  18
ENDBRANCH  16  17
ENDBRANCH  15  16
ENDBRANCH  13  15
ENDBRANCH  12  13
ENDBRANCH  11  12
ENDBRANCH   7  11
ENDBRANCH   2   3
TORSDOF 12
ENDMDL
MODEL      324
REMARK 921   NORMALIZED FREE ENERGY PREDICTED BY IDOCK:   -2.37 KCAL/MOL
REMARK 922        TOTAL FREE ENERGY PREDICTED BY IDOCK:   -6.25 KCAL/MOL
REMARK 923 INTER-LIGAND FREE ENERGY PREDICTED BY IDOCK:   -5.95 KCAL/MOL
REMARK 924 INTRA-LIGAND FREE ENERGY PREDICTED BY IDOCK:   -0.30 KCAL/MOL
REMARK 927      BINDING AFFINITY PREDICTED BY RF-SCORE:    0.00 PKD
ROOT
HETATM    1  C   UNL     1     -11.432   9.706  68.469  1.00  0.00     0.313 C  
HETATM    2  O   UNL     1     -10.329   9.990  69.323  1.00  0.00    -0.192 OA 
ENDROOT
BRANCH   2   3
HETATM    3  C   UNL     1      -9.383  10.855  68.827  1.00  0.00    -0.185 A  
HETATM    4  C   UNL     1      -9.396  11.498  67.579  1.00  0.00    -0.166 A  
HETATM    5  C   UNL     1      -7.200  11.825  69.298  1.00  0.00     0.009 A  
HETATM    6  C   UNL     1      -8.307  12.308  67.215  1.00  0.00    -0.182 A  
HETATM    7  C   UNL     1      -7.206  12.487  68.064  1.00  0.00    -0.105 A  
HETATM    8  C   UNL     1      -8.277  11.013  69.670  1.00  0.00     0.379 A  
BRANCH   4   9
HETATM    9  O   UNL     1     -10.457  11.256  66.746  1.00  0.00    -0.228 OA 
HETATM   10  C   UNL     1     -11.082  12.373  66.130  1.00  0.00    -0.302 C  
ENDBRANCH   4   9
BRANCH   7  11
HETATM   11  C   UNL     1      -5.976  13.238  67.556  1.00  0.00    -0.073 C  
BRANCH  11  12
HETATM   12  C   UNL     1      -5.500  14.148  68.695  1.00  0.00    -0.089 C  
BRANCH  12  13
HETATM   13  N   UNL     1      -5.627  15.609  68.662  1.00  0.00    -0.096 NA 
HETATM   14  C   UNL     1      -6.188  16.099  67.404  1.00  0.00    -0.166 C  
BRANCH  13  15
HETATM   15  C   UNL     1      -6.406  16.126  69.819  1.00  0.00    -0.175 C  
BRANCH  15  16
HETATM   16  C   UNL     1      -7.952  15.925  69.887  1.00  0.00     0.400 C  
BRANCH  16  17
HETATM   17  C   UNL     1      -8.677  15.962  68.523  1.00  0.00    -0.194 C  
BRANCH  17  18
HETATM   18  C   UNL     1     -10.104  16.571  68.427  1.00  0.00    -0.255 C  
HETATM   19  N   UNL     1      -9.911  19.031  69.437  1.00  0.00    -0.158 NA 
HETATM   20  C   UNL     1     -10.549  16.758  66.898  1.00  0.00    -0.219 C  
HETATM   21  C   UNL     1     -10.010  17.959  69.000  1.00  0.00    -0.273 C  
HETATM   22  C   UNL     1     -10.682  15.473  66.063  1.00  0.00    -0.331 C  
HETATM   23  C   UNL     1      -9.610  17.687  66.099  1.00  0.00    -0.206 C  
BRANCH  18  24
HETATM   24  C   UNL     1     -11.047  15.672  69.234  1.00  0.00    -0.293 A  
HETATM   25  C   UNL     1     -11.766  16.160  70.339  1.00  0.00    -0.237 A  
HETATM   26  C   UNL     1     -12.476  15.310  71.194  1.00  0.00    -0.375 A  
HETATM   27  C   UNL     1     -11.104  14.289  68.983  1.00  0.00    -0.284 A  
HETATM   28  C   UNL     1     -12.501  13.932  70.923  1.00  0.00    -0.375 A  
HETATM   29  C   UNL     1     -11.837  13.440  69.805  1.00  0.00    -0.393 A  
BRANCH  26  30
HETATM   30  O   UNL     1     -13.138  15.737  72.317  1.00  0.00    -0.432 OA 
HETATM   31  C   UNL     1     -12.408  15.745  73.539  1.00  0.00    -0.552 C  
ENDBRANCH  26  30
BRANCH  28  32
HETATM   32  O   UNL     1     -13.171  13.139  71.823  1.00  0.00    -0.410 OA 
HETATM   33  C   UNL     1     -12.776  11.773  71.888  1.00  0.00    -0.110 C  
ENDBRANCH  28  32
ENDBRANCH  18  24
ENDBRANCH  17  18
ENDBRANCH  16  17
ENDBRANCH  15  16
ENDBRANCH  13  15
ENDBRANCH  12  13
ENDBRANCH  11  12
ENDBRANCH   7  11
ENDBRANCH   2   3
TORSDOF 12
ENDMDL
MODEL      325
REMARK 921   NORMALIZED FREE ENERGY PREDICTED BY IDOCK:   -2.27 KCAL/MOL
REMARK 922        TOTAL FREE ENERGY PREDICTED BY IDOCK:   -6.09 KCAL/MOL
REMARK 923 INTER-LIGAND FREE ENERGY PREDICTED BY IDOCK:   -4.49 KCAL/MOL
REMARK 924 INTRA-LIGAND FREE ENERGY PREDICTED BY IDOCK:   -1.60 KCAL/MOL
REMARK 927      BINDING AFFINITY PREDICTED BY RF-SCORE:    0.00 PKD
ROOT
HETATM    1  C   UNL     1     -11.801  10.209  69.825  1.00  0.00    -0.088 C  
HETATM    2  O   UNL     1     -11.133  11.202  69.052  1.00  0.00    -0.205 OA 
ENDROOT
BRANCH   2   3
HETATM    3  C   UNL     1     -10.603  10.786  67.855  1.00  0.00    -0.221 A  
HETATM    4  C   UNL     1     -10.767  11.396  66.600  1.00  0.00    -0.269 A  
HETATM    5  C   UNL     1      -9.329   8.993  66.811  1.00  0.00    -0.213 A  
HETATM    6  C   UNL     1     -10.194  10.793  65.466  1.00  0.00    -0.330 A  
HETATM    7  C   UNL     1      -9.469   9.597  65.555  1.00  0.00    -0.330 A  
HETATM    8  C   UNL     1      -9.898   9.581  67.946  1.00  0.00    -0.186 A  
BRANCH   4   9
HETATM    9  O   UNL     1     -11.531  12.531  66.535  1.00  0.00    -0.320 OA 
HETATM   10  C   UNL     1     -11.953  12.971  65.252  1.00  0.00    -0.407 C  
ENDBRANCH   4   9
BRANCH   7  11
HETATM   11  C   UNL     1      -9.012   8.895  64.277  1.00  0.00     0.089 C  
BRANCH  11  12
HETATM   12  C   UNL     1      -7.498   8.677  64.398  1.00  0.00    -0.108 C  
BRANCH  12  13
HETATM   13  N   UNL     1      -6.869   7.354  64.317  1.00  0.00    -0.050 NA 
HETATM   14  C   UNL     1      -5.439   7.390  64.617  1.00  0.00    -0.033 C  
BRANCH  13  15
HETATM   15  C   UNL     1      -7.560   6.356  65.177  1.00  0.00    -0.089 C  
BRANCH  15  16
HETATM   16  C   UNL     1      -6.955   4.932  65.381  1.00  0.00    -0.062 C  
BRANCH  16  17
HETATM   17  C   UNL     1      -6.708   4.532  66.853  1.00  0.00    -0.051 C  
BRANCH  17  18
HETATM   18  C   UNL     1      -7.713   3.588  67.571  1.00  0.00    -0.077 C  
HETATM   19  N   UNL     1      -9.891   3.544  66.034  1.00  0.00    -0.027 NA 
HETATM   20  C   UNL     1      -7.167   2.081  67.603  1.00  0.00    -0.047 C  
HETATM   21  C   UNL     1      -8.951   3.558  66.716  1.00  0.00    -0.150 C  
HETATM   22  C   UNL     1      -5.868   1.841  68.390  1.00  0.00    -0.023 C  
HETATM   23  C   UNL     1      -6.924   1.492  66.196  1.00  0.00    -0.045 C  
BRANCH  18  24
HETATM   24  C   UNL     1      -7.983   4.171  68.963  1.00  0.00    -0.067 A  
HETATM   25  C   UNL     1      -8.913   3.587  69.840  1.00  0.00    -0.173 A  
HETATM   26  C   UNL     1      -9.306   4.214  71.027  1.00  0.00    -0.149 A  
HETATM   27  C   UNL     1      -7.413   5.398  69.346  1.00  0.00    -0.070 A  
HETATM   28  C   UNL     1      -8.729   5.448  71.373  1.00  0.00    -0.131 A  
HETATM   29  C   UNL     1      -7.769   6.013  70.541  1.00  0.00    -0.101 A  
BRANCH  26  30
HETATM   30  O   UNL     1     -10.256   3.711  71.879  1.00  0.00    -0.146 OA 
HETATM   31  C   UNL     1     -10.096   2.364  72.310  1.00  0.00    -0.155 C  
ENDBRANCH  26  30
BRANCH  28  32
HETATM   32  O   UNL     1      -9.187   6.043  72.524  1.00  0.00    -0.142 OA 
HETATM   33  C   UNL     1      -8.351   7.035  73.106  1.00  0.00    -0.112 C  
ENDBRANCH  28  32
ENDBRANCH  18  24
ENDBRANCH  17  18
ENDBRANCH  16  17
ENDBRANCH  15  16
ENDBRANCH  13  15
ENDBRANCH  12  13
ENDBRANCH  11  12
ENDBRANCH   7  11
ENDBRANCH   2   3
TORSDOF 12
ENDMDL
MODEL      326
REMARK 921   NORMALIZED FREE ENERGY PREDICTED BY IDOCK:   -2.26 KCAL/MOL
REMARK 922        TOTAL FREE ENERGY PREDICTED BY IDOCK:   -6.07 KCAL/MOL
REMARK 923 INTER-LIGAND FREE ENERGY PREDICTED BY IDOCK:   -5.84 KCAL/MOL
REMARK 924 INTRA-LIGAND FREE ENERGY PREDICTED BY IDOCK:   -0.23 KCAL/MOL
REMARK 927      BINDING AFFINITY PREDICTED BY RF-SCORE:    0.00 PKD
ROOT
HETATM    1  C   UNL     1     -13.053   6.456  71.956  1.00  0.00     0.202 C  
HETATM    2  O   UNL     1     -12.015   5.653  72.508  1.00  0.00    -0.258 OA 
ENDROOT
BRANCH   2   3
HETATM    3  C   UNL     1     -10.866   5.545  71.761  1.00  0.00    -0.211 A  
HETATM    4  C   UNL     1      -9.628   5.034  72.183  1.00  0.00    -0.150 A  
HETATM    5  C   UNL     1      -9.895   6.101  69.599  1.00  0.00    -0.196 A  
HETATM    6  C   UNL     1      -8.540   5.055  71.292  1.00  0.00    -0.132 A  
HETATM    7  C   UNL     1      -8.658   5.579  69.997  1.00  0.00    -0.120 A  
HETATM    8  C   UNL     1     -10.984   6.089  70.477  1.00  0.00    -0.388 A  
BRANCH   4   9
HETATM    9  O   UNL     1      -9.527   4.585  73.473  1.00  0.00    -0.117 OA 
HETATM   10  C   UNL     1      -8.250   4.160  73.927  1.00  0.00    -0.092 C  
ENDBRANCH   4   9
BRANCH   7  11
HETATM   11  C   UNL     1      -7.410   5.734  69.130  1.00  0.00    -0.083 C  
BRANCH  11  12
HETATM   12  C   UNL     1      -7.283   4.458  68.288  1.00  0.00    -0.060 C  
BRANCH  12  13
HETATM   13  N   UNL     1      -7.065   4.471  66.838  1.00  0.00    -0.067 NA 
HETATM   14  C   UNL     1      -7.288   3.165  66.221  1.00  0.00    -0.071 C  
BRANCH  13  15
HETATM   15  C   UNL     1      -7.881   5.515  66.162  1.00  0.00    -0.100 C  
BRANCH  15  16
HETATM   16  C   UNL     1      -7.898   6.980  66.702  1.00  0.00    -0.106 C  
BRANCH  16  17
HETATM   17  C   UNL     1      -8.039   8.074  65.619  1.00  0.00    -0.121 C  
BRANCH  17  18
HETATM   18  C   UNL     1      -7.676   9.546  65.962  1.00  0.00    -0.100 C  
HETATM   19  N   UNL     1      -6.950   9.534  68.528  1.00  0.00    -0.065 NA 
HETATM   20  C   UNL     1      -6.384  10.026  65.142  1.00  0.00    -0.114 C  
HETATM   21  C   UNL     1      -7.270   9.554  67.411  1.00  0.00    -0.087 C  
HETATM   22  C   UNL     1      -6.523  10.068  63.612  1.00  0.00    -0.131 C  
HETATM   23  C   UNL     1      -5.129   9.175  65.430  1.00  0.00    -0.036 C  
BRANCH  18  24
HETATM   24  C   UNL     1      -8.920  10.403  65.702  1.00  0.00    -0.198 A  
HETATM   25  C   UNL     1      -9.844  10.690  66.722  1.00  0.00    -0.240 A  
HETATM   26  C   UNL     1     -11.072  11.305  66.457  1.00  0.00    -0.216 A  
HETATM   27  C   UNL     1      -9.252  10.802  64.395  1.00  0.00    -0.250 A  
HETATM   28  C   UNL     1     -11.379  11.678  65.137  1.00  0.00    -0.156 A  
HETATM   29  C   UNL     1     -10.454  11.446  64.125  1.00  0.00    -0.421 A  
BRANCH  26  30
HETATM   30  O   UNL     1     -12.027  11.546  67.411  1.00  0.00    -0.623 OA 
HETATM   31  C   UNL     1     -11.677  11.281  68.764  1.00  0.00    -0.338 C  
ENDBRANCH  26  30
BRANCH  28  32
HETATM   32  O   UNL     1     -12.619  12.232  64.926  1.00  0.00    -0.547 OA 
HETATM   33  C   UNL     1     -12.652  13.618  64.607  1.00  0.00    -0.242 C  
ENDBRANCH  28  32
ENDBRANCH  18  24
ENDBRANCH  17  18
ENDBRANCH  16  17
ENDBRANCH  15  16
ENDBRANCH  13  15
ENDBRANCH  12  13
ENDBRANCH  11  12
ENDBRANCH   7  11
ENDBRANCH   2   3
TORSDOF 12
ENDMDL
MODEL      327
REMARK 921   NORMALIZED FREE ENERGY PREDICTED BY IDOCK:   -2.26 KCAL/MOL
REMARK 922        TOTAL FREE ENERGY PREDICTED BY IDOCK:   -6.07 KCAL/MOL
REMARK 923 INTER-LIGAND FREE ENERGY PREDICTED BY IDOCK:   -4.54 KCAL/MOL
REMARK 924 INTRA-LIGAND FREE ENERGY PREDICTED BY IDOCK:   -1.52 KCAL/MOL
REMARK 927      BINDING AFFINITY PREDICTED BY RF-SCORE:    0.00 PKD
ROOT
HETATM    1  C   UNL     1      -8.562   9.143  69.870  1.00  0.00    -0.150 C  
HETATM    2  O   UNL     1      -7.752   9.266  68.705  1.00  0.00    -0.082 OA 
ENDROOT
BRANCH   2   3
HETATM    3  C   UNL     1      -8.403   9.606  67.544  1.00  0.00    -0.118 A  
HETATM    4  C   UNL     1      -7.842   9.723  66.262  1.00  0.00    -0.106 A  
HETATM    5  C   UNL     1     -10.551  10.344  66.665  1.00  0.00    -0.245 A  
HETATM    6  C   UNL     1      -8.656  10.141  65.194  1.00  0.00    -0.175 A  
HETATM    7  C   UNL     1     -10.011  10.448  65.378  1.00  0.00    -0.362 A  
HETATM    8  C   UNL     1      -9.751   9.933  67.736  1.00  0.00    -0.175 A  
BRANCH   4   9
HETATM    9  O   UNL     1      -6.502   9.474  66.125  1.00  0.00    -0.067 OA 
HETATM   10  C   UNL     1      -5.608  10.570  66.266  1.00  0.00    -0.076 C  
ENDBRANCH   4   9
BRANCH   7  11
HETATM   11  C   UNL     1     -10.809  11.057  64.225  1.00  0.00    -0.262 C  
BRANCH  11  12
HETATM   12  C   UNL     1     -10.485  12.557  64.194  1.00  0.00    -0.403 C  
BRANCH  12  13
HETATM   13  N   UNL     1     -11.442  13.592  64.600  1.00  0.00    -0.350 NA 
HETATM   14  C   UNL     1     -12.655  13.038  65.197  1.00  0.00    -0.469 C  
BRANCH  13  15
HETATM   15  C   UNL     1     -10.823  14.596  65.507  1.00  0.00    -0.345 C  
BRANCH  15  16
HETATM   16  C   UNL     1      -9.853  15.682  64.944  1.00  0.00     0.409 C  
BRANCH  16  17
HETATM   17  C   UNL     1     -10.071  17.106  65.504  1.00  0.00     0.010 C  
BRANCH  17  18
HETATM   18  C   UNL     1      -9.348  17.536  66.811  1.00  0.00    -0.275 C  
HETATM   19  N   UNL     1      -6.743  17.219  66.337  1.00  0.00    -0.243 NA 
HETATM   20  C   UNL     1      -9.556  19.100  67.097  1.00  0.00    -0.378 C  
HETATM   21  C   UNL     1      -7.876  17.356  66.559  1.00  0.00    -0.285 C  
HETATM   22  C   UNL     1     -11.000  19.563  67.350  1.00  0.00    -0.427 C  
HETATM   23  C   UNL     1      -9.014  20.003  65.967  1.00  0.00    -0.267 C  
BRANCH  18  24
HETATM   24  C   UNL     1      -9.858  16.634  67.941  1.00  0.00    -0.248 A  
HETATM   25  C   UNL     1      -9.053  15.628  68.503  1.00  0.00    -0.196 A  
HETATM   26  C   UNL     1      -9.567  14.681  69.394  1.00  0.00     0.066 A  
HETATM   27  C   UNL     1     -11.204  16.689  68.345  1.00  0.00    -0.239 A  
HETATM   28  C   UNL     1     -10.920  14.754  69.766  1.00  0.00    -0.234 A  
HETATM   29  C   UNL     1     -11.717  15.774  69.258  1.00  0.00    -0.384 A  
BRANCH  26  30
HETATM   30  O   UNL     1      -8.832  13.647  69.916  1.00  0.00     1.566 OA 
HETATM   31  C   UNL     1      -7.889  13.019  69.056  1.00  0.00     0.249 C  
ENDBRANCH  26  30
BRANCH  28  32
HETATM   32  O   UNL     1     -11.383  13.769  70.605  1.00  0.00     0.062 OA 
HETATM   33  C   UNL     1     -12.429  14.131  71.499  1.00  0.00    -0.341 C  
ENDBRANCH  28  32
ENDBRANCH  18  24
ENDBRANCH  17  18
ENDBRANCH  16  17
ENDBRANCH  15  16
ENDBRANCH  13  15
ENDBRANCH  12  13
ENDBRANCH  11  12
ENDBRANCH   7  11
ENDBRANCH   2   3
TORSDOF 12
ENDMDL
MODEL      328
REMARK 921   NORMALIZED FREE ENERGY PREDICTED BY IDOCK:   -2.25 KCAL/MOL
REMARK 922        TOTAL FREE ENERGY PREDICTED BY IDOCK:   -6.05 KCAL/MOL
REMARK 923 INTER-LIGAND FREE ENERGY PREDICTED BY IDOCK:   -5.17 KCAL/MOL
REMARK 924 INTRA-LIGAND FREE ENERGY PREDICTED BY IDOCK:   -0.88 KCAL/MOL
REMARK 927      BINDING AFFINITY PREDICTED BY RF-SCORE:    0.00 PKD
ROOT
HETATM    1  C   UNL     1      -9.603  19.536  68.811  1.00  0.00    -0.412 C  
HETATM    2  O   UNL     1      -9.279  18.384  68.039  1.00  0.00    -0.280 OA 
ENDROOT
BRANCH   2   3
HETATM    3  C   UNL     1      -9.708  17.177  68.536  1.00  0.00    -0.291 A  
HETATM    4  C   UNL     1      -8.926  16.036  68.779  1.00  0.00    -0.226 A  
HETATM    5  C   UNL     1     -11.703  15.944  69.192  1.00  0.00    -0.369 A  
HETATM    6  C   UNL     1      -9.551  14.863  69.239  1.00  0.00    -0.131 A  
HETATM    7  C   UNL     1     -10.935  14.803  69.455  1.00  0.00    -0.287 A  
HETATM    8  C   UNL     1     -11.093  17.115  68.731  1.00  0.00     0.001 A  
BRANCH   4   9
HETATM    9  O   UNL     1      -7.587  16.107  68.501  1.00  0.00    -0.154 OA 
HETATM   10  C   UNL     1      -7.112  15.413  67.355  1.00  0.00    -0.196 C  
ENDBRANCH   4   9
BRANCH   7  11
HETATM   11  C   UNL     1     -11.588  13.463  69.792  1.00  0.00    -0.305 C  
BRANCH  11  12
HETATM   12  C   UNL     1     -11.469  12.577  68.545  1.00  0.00    -0.305 C  
BRANCH  12  13
HETATM   13  N   UNL     1     -11.012  11.184  68.590  1.00  0.00    -0.202 NA 
HETATM   14  C   UNL     1     -11.357  10.436  67.383  1.00  0.00     0.037 C  
BRANCH  13  15
HETATM   15  C   UNL     1      -9.554  11.086  68.868  1.00  0.00    -0.163 C  
BRANCH  15  16
HETATM   16  C   UNL     1      -8.562  10.637  67.749  1.00  0.00    -0.123 C  
BRANCH  16  17
HETATM   17  C   UNL     1      -7.723   9.382  68.085  1.00  0.00    -0.083 C  
BRANCH  17  18
HETATM   18  C   UNL     1      -7.733   8.169  67.114  1.00  0.00    -0.097 C  
HETATM   19  N   UNL     1      -9.082   8.977  64.960  1.00  0.00    -0.163 NA 
HETATM   20  C   UNL     1      -6.252   7.828  66.602  1.00  0.00    -0.049 C  
HETATM   21  C   UNL     1      -8.497   8.610  65.895  1.00  0.00    -0.146 C  
HETATM   22  C   UNL     1      -5.244   7.385  67.675  1.00  0.00    -0.021 C  
HETATM   23  C   UNL     1      -5.582   9.000  65.852  1.00  0.00    -0.045 C  
BRANCH  18  24
HETATM   24  C   UNL     1      -8.415   7.002  67.837  1.00  0.00    -0.124 A  
HETATM   25  C   UNL     1      -7.999   6.578  69.110  1.00  0.00    -0.111 A  
HETATM   26  C   UNL     1      -8.482   5.402  69.693  1.00  0.00    -0.100 A  
HETATM   27  C   UNL     1      -9.384   6.224  67.179  1.00  0.00    -0.130 A  
HETATM   28  C   UNL     1      -9.438   4.639  69.003  1.00  0.00    -0.155 A  
HETATM   29  C   UNL     1      -9.899   5.073  67.764  1.00  0.00    -0.199 A  
BRANCH  26  30
HETATM   30  O   UNL     1      -8.056   4.919  70.904  1.00  0.00    -0.090 OA 
HETATM   31  C   UNL     1      -6.660   4.977  71.173  1.00  0.00    -0.038 C  
ENDBRANCH  26  30
BRANCH  28  32
HETATM   32  O   UNL     1      -9.842   3.468  69.600  1.00  0.00    -0.110 OA 
HETATM   33  C   UNL     1      -8.921   2.384  69.565  1.00  0.00    -0.104 C  
ENDBRANCH  28  32
ENDBRANCH  18  24
ENDBRANCH  17  18
ENDBRANCH  16  17
ENDBRANCH  15  16
ENDBRANCH  13  15
ENDBRANCH  12  13
ENDBRANCH  11  12
ENDBRANCH   7  11
ENDBRANCH   2   3
TORSDOF 12
ENDMDL
MODEL      329
REMARK 921   NORMALIZED FREE ENERGY PREDICTED BY IDOCK:   -2.24 KCAL/MOL
REMARK 922        TOTAL FREE ENERGY PREDICTED BY IDOCK:   -6.04 KCAL/MOL
REMARK 923 INTER-LIGAND FREE ENERGY PREDICTED BY IDOCK:   -5.05 KCAL/MOL
REMARK 924 INTRA-LIGAND FREE ENERGY PREDICTED BY IDOCK:   -0.98 KCAL/MOL
REMARK 927      BINDING AFFINITY PREDICTED BY RF-SCORE:    0.00 PKD
ROOT
HETATM    1  C   UNL     1      -9.533  19.786  67.702  1.00  0.00    -0.352 C  
HETATM    2  O   UNL     1      -8.248  19.235  67.433  1.00  0.00    -0.274 OA 
ENDROOT
BRANCH   2   3
HETATM    3  C   UNL     1      -8.126  17.874  67.578  1.00  0.00    -0.225 A  
HETATM    4  C   UNL     1      -8.601  16.884  66.701  1.00  0.00    -0.247 A  
HETATM    5  C   UNL     1      -7.363  16.143  69.110  1.00  0.00    -0.215 A  
HETATM    6  C   UNL     1      -8.435  15.531  67.043  1.00  0.00    -0.266 A  
HETATM    7  C   UNL     1      -7.814  15.144  68.239  1.00  0.00    -0.124 A  
HETATM    8  C   UNL     1      -7.525  17.493  68.783  1.00  0.00    -0.258 A  
BRANCH   4   9
HETATM    9  O   UNL     1      -9.257  17.292  65.570  1.00  0.00    -0.343 OA 
HETATM   10  C   UNL     1     -10.675  17.358  65.615  1.00  0.00    -0.111 C  
ENDBRANCH   4   9
BRANCH   7  11
HETATM   11  C   UNL     1      -7.809  13.670  68.644  1.00  0.00    -0.096 C  
BRANCH  11  12
HETATM   12  C   UNL     1      -6.573  13.029  67.999  1.00  0.00    -0.116 C  
BRANCH  12  13
HETATM   13  N   UNL     1      -5.461  12.471  68.775  1.00  0.00    -0.057 NA 
HETATM   14  C   UNL     1      -5.130  13.279  69.948  1.00  0.00    -0.084 C  
BRANCH  13  15
HETATM   15  C   UNL     1      -5.709  11.058  69.165  1.00  0.00    -0.040 C  
BRANCH  15  16
HETATM   16  C   UNL     1      -6.239  10.028  68.119  1.00  0.00    -0.053 C  
BRANCH  16  17
HETATM   17  C   UNL     1      -7.778   9.945  68.006  1.00  0.00    -0.086 C  
BRANCH  17  18
HETATM   18  C   UNL     1      -8.516   8.665  68.489  1.00  0.00    -0.131 C  
HETATM   19  N   UNL     1      -7.274   7.914  70.726  1.00  0.00    -0.052 NA 
HETATM   20  C   UNL     1     -10.026   8.996  68.915  1.00  0.00    -0.197 C  
HETATM   21  C   UNL     1      -7.821   8.226  69.750  1.00  0.00    -0.100 C  
HETATM   22  C   UNL     1     -10.953   9.511  67.802  1.00  0.00    -0.165 C  
HETATM   23  C   UNL     1     -10.124  10.029  70.059  1.00  0.00    -0.289 C  
BRANCH  18  24
HETATM   24  C   UNL     1      -8.410   7.619  67.373  1.00  0.00    -0.116 A  
HETATM   25  C   UNL     1      -7.799   7.914  66.142  1.00  0.00    -0.094 A  
HETATM   26  C   UNL     1      -7.865   7.037  65.055  1.00  0.00    -0.125 A  
HETATM   27  C   UNL     1      -9.056   6.376  67.496  1.00  0.00    -0.114 A  
HETATM   28  C   UNL     1      -8.532   5.809  65.205  1.00  0.00    -0.148 A  
HETATM   29  C   UNL     1      -9.097   5.481  66.433  1.00  0.00    -0.145 A  
BRANCH  26  30
HETATM   30  O   UNL     1      -7.338   7.312  63.819  1.00  0.00    -0.075 OA 
HETATM   31  C   UNL     1      -6.224   8.196  63.768  1.00  0.00    -0.067 C  
ENDBRANCH  26  30
BRANCH  28  32
HETATM   32  O   UNL     1      -8.609   5.009  64.091  1.00  0.00    -0.139 OA 
HETATM   33  C   UNL     1      -9.350   3.801  64.223  1.00  0.00    -0.148 C  
ENDBRANCH  28  32
ENDBRANCH  18  24
ENDBRANCH  17  18
ENDBRANCH  16  17
ENDBRANCH  15  16
ENDBRANCH  13  15
ENDBRANCH  12  13
ENDBRANCH  11  12
ENDBRANCH   7  11
ENDBRANCH   2   3
TORSDOF 12
ENDMDL
MODEL      330
REMARK 921   NORMALIZED FREE ENERGY PREDICTED BY IDOCK:   -2.20 KCAL/MOL
REMARK 922        TOTAL FREE ENERGY PREDICTED BY IDOCK:   -5.97 KCAL/MOL
REMARK 923 INTER-LIGAND FREE ENERGY PREDICTED BY IDOCK:   -5.04 KCAL/MOL
REMARK 924 INTRA-LIGAND FREE ENERGY PREDICTED BY IDOCK:   -0.93 KCAL/MOL
REMARK 927      BINDING AFFINITY PREDICTED BY RF-SCORE:    0.00 PKD
ROOT
HETATM    1  C   UNL     1      -5.390  13.942  72.427  1.00  0.00    -0.188 C  
HETATM    2  O   UNL     1      -5.336  14.846  71.327  1.00  0.00    -0.136 OA 
ENDROOT
BRANCH   2   3
HETATM    3  C   UNL     1      -6.023  14.471  70.198  1.00  0.00    -0.150 A  
HETATM    4  C   UNL     1      -6.736  15.308  69.325  1.00  0.00    -0.148 A  
HETATM    5  C   UNL     1      -6.733  12.531  68.909  1.00  0.00    -0.098 A  
HETATM    6  C   UNL     1      -7.431  14.737  68.244  1.00  0.00    -0.115 A  
HETATM    7  C   UNL     1      -7.435  13.353  68.020  1.00  0.00    -0.139 A  
HETATM    8  C   UNL     1      -6.041  13.087  69.990  1.00  0.00    -0.112 A  
BRANCH   4   9
HETATM    9  O   UNL     1      -6.765  16.649  69.604  1.00  0.00    -0.223 OA 
HETATM   10  C   UNL     1      -6.258  17.540  68.621  1.00  0.00    -0.181 C  
ENDBRANCH   4   9
BRANCH   7  11
HETATM   11  C   UNL     1      -8.339  12.768  66.936  1.00  0.00    -0.064 C  
BRANCH  11  12
HETATM   12  C   UNL     1      -9.757  12.699  67.518  1.00  0.00    -0.196 C  
BRANCH  12  13
HETATM   13  N   UNL     1     -10.372  11.454  67.989  1.00  0.00    -0.179 NA 
HETATM   14  C   UNL     1     -11.273  11.662  69.121  1.00  0.00    -0.263 C  
BRANCH  13  15
HETATM   15  C   UNL     1     -11.066  10.727  66.894  1.00  0.00    -0.133 C  
BRANCH  15  16
HETATM   16  C   UNL     1     -10.527   9.352  66.387  1.00  0.00    -0.165 C  
BRANCH  16  17
HETATM   17  C   UNL     1     -10.620   8.197  67.410  1.00  0.00    -0.325 C  
BRANCH  17  18
HETATM   18  C   UNL     1      -9.349   7.370  67.752  1.00  0.00    -0.144 C  
HETATM   19  N   UNL     1      -7.356   9.135  67.907  1.00  0.00    -0.083 NA 
HETATM   20  C   UNL     1      -9.466   6.710  69.209  1.00  0.00    -0.141 C  
HETATM   21  C   UNL     1      -8.214   8.354  67.837  1.00  0.00    -0.127 C  
HETATM   22  C   UNL     1     -10.592   5.682  69.405  1.00  0.00    -0.374 C  
HETATM   23  C   UNL     1      -9.642   7.751  70.336  1.00  0.00    -0.175 C  
BRANCH  18  24
HETATM   24  C   UNL     1      -9.147   6.345  66.630  1.00  0.00    -0.155 A  
HETATM   25  C   UNL     1      -9.436   4.982  66.814  1.00  0.00    -0.148 A  
HETATM   26  C   UNL     1      -9.078   4.015  65.869  1.00  0.00    -0.143 A  
HETATM   27  C   UNL     1      -8.522   6.719  65.426  1.00  0.00    -0.102 A  
HETATM   28  C   UNL     1      -8.441   4.420  64.684  1.00  0.00    -0.125 A  
HETATM   29  C   UNL     1      -8.194   5.771  64.464  1.00  0.00    -0.122 A  
BRANCH  26  30
HETATM   30  O   UNL     1      -9.284   2.670  66.037  1.00  0.00    -0.132 OA 
HETATM   31  C   UNL     1      -8.611   2.039  67.121  1.00  0.00    -0.102 C  
ENDBRANCH  26  30
BRANCH  28  32
HETATM   32  O   UNL     1      -8.066   3.424  63.814  1.00  0.00    -0.086 OA 
HETATM   33  C   UNL     1      -7.781   3.819  62.477  1.00  0.00    -0.061 C  
ENDBRANCH  28  32
ENDBRANCH  18  24
ENDBRANCH  17  18
ENDBRANCH  16  17
ENDBRANCH  15  16
ENDBRANCH  13  15
ENDBRANCH  12  13
ENDBRANCH  11  12
ENDBRANCH   7  11
ENDBRANCH   2   3
TORSDOF 12
ENDMDL
MODEL      331
REMARK 921   NORMALIZED FREE ENERGY PREDICTED BY IDOCK:   -2.09 KCAL/MOL
REMARK 922        TOTAL FREE ENERGY PREDICTED BY IDOCK:   -5.77 KCAL/MOL
REMARK 923 INTER-LIGAND FREE ENERGY PREDICTED BY IDOCK:   -4.79 KCAL/MOL
REMARK 924 INTRA-LIGAND FREE ENERGY PREDICTED BY IDOCK:   -0.99 KCAL/MOL
REMARK 927      BINDING AFFINITY PREDICTED BY RF-SCORE:    0.00 PKD
ROOT
HETATM    1  C   UNL     1      -5.219  13.577  71.628  1.00  0.00    -0.192 C  
HETATM    2  O   UNL     1      -5.274  14.365  70.443  1.00  0.00    -0.095 OA 
ENDROOT
BRANCH   2   3
HETATM    3  C   UNL     1      -5.877  13.785  69.354  1.00  0.00    -0.095 A  
HETATM    4  C   UNL     1      -6.762  14.397  68.451  1.00  0.00    -0.103 A  
HETATM    5  C   UNL     1      -6.171  11.664  68.195  1.00  0.00    -0.046 A  
HETATM    6  C   UNL     1      -7.330  13.627  67.421  1.00  0.00    -0.127 A  
HETATM    7  C   UNL     1      -7.041  12.263  67.276  1.00  0.00    -0.138 A  
HETATM    8  C   UNL     1      -5.601  12.419  69.226  1.00  0.00    -0.075 A  
BRANCH   4   9
HETATM    9  O   UNL     1      -7.072  15.716  68.654  1.00  0.00    -0.118 OA 
HETATM   10  C   UNL     1      -8.435  16.100  68.536  1.00  0.00    -0.197 C  
ENDBRANCH   4   9
BRANCH   7  11
HETATM   11  C   UNL     1      -7.811  11.434  66.249  1.00  0.00    -0.015 C  
BRANCH  11  12
HETATM   12  C   UNL     1      -9.129  11.009  66.908  1.00  0.00    -0.156 C  
BRANCH  12  13
HETATM   13  N   UNL     1      -9.343   9.678  67.488  1.00  0.00    -0.130 NA 
HETATM   14  C   UNL     1     -10.305   9.690  68.589  1.00  0.00    -0.203 C  
BRANCH  13  15
HETATM   15  C   UNL     1      -9.738   8.680  66.459  1.00  0.00    -0.255 C  
BRANCH  15  16
HETATM   16  C   UNL     1      -8.764   7.527  66.059  1.00  0.00    -0.178 C  
BRANCH  16  17
HETATM   17  C   UNL     1      -7.856   7.014  67.199  1.00  0.00    -0.109 C  
BRANCH  17  18
HETATM   18  C   UNL     1      -8.307   5.795  68.051  1.00  0.00    -0.103 C  
HETATM   19  N   UNL     1      -9.446   4.097  66.339  1.00  0.00    -0.175 NA 
HETATM   20  C   UNL     1      -7.042   5.020  68.662  1.00  0.00    -0.057 C  
HETATM   21  C   UNL     1      -8.958   4.830  67.097  1.00  0.00    -0.112 C  
HETATM   22  C   UNL     1      -6.170   5.809  69.652  1.00  0.00    -0.032 C  
HETATM   23  C   UNL     1      -6.078   4.482  67.583  1.00  0.00    -0.028 C  
BRANCH  18  24
HETATM   24  C   UNL     1      -9.284   6.308  69.114  1.00  0.00    -0.128 A  
HETATM   25  C   UNL     1      -8.834   6.836  70.337  1.00  0.00    -0.152 A  
HETATM   26  C   UNL     1      -9.712   7.128  71.385  1.00  0.00    -0.168 A  
HETATM   27  C   UNL     1     -10.670   6.127  68.957  1.00  0.00    -0.377 A  
HETATM   28  C   UNL     1     -11.089   6.921  71.201  1.00  0.00    -0.260 A  
HETATM   29  C   UNL     1     -11.555   6.447  69.980  1.00  0.00    -0.446 A  
BRANCH  26  30
HETATM   30  O   UNL     1      -9.309   7.584  72.614  1.00  0.00    -0.142 OA 
HETATM   31  C   UNL     1      -9.272   6.640  73.679  1.00  0.00    -0.143 C  
ENDBRANCH  26  30
BRANCH  28  32
HETATM   32  O   UNL     1     -11.901   7.177  72.280  1.00  0.00    -0.280 OA 
HETATM   33  C   UNL     1     -13.299   7.003  72.083  1.00  0.00     0.047 C  
ENDBRANCH  28  32
ENDBRANCH  18  24
ENDBRANCH  17  18
ENDBRANCH  16  17
ENDBRANCH  15  16
ENDBRANCH  13  15
ENDBRANCH  12  13
ENDBRANCH  11  12
ENDBRANCH   7  11
ENDBRANCH   2   3
TORSDOF 12
ENDMDL
MODEL      332
REMARK 921   NORMALIZED FREE ENERGY PREDICTED BY IDOCK:   -2.06 KCAL/MOL
REMARK 922        TOTAL FREE ENERGY PREDICTED BY IDOCK:   -5.72 KCAL/MOL
REMARK 923 INTER-LIGAND FREE ENERGY PREDICTED BY IDOCK:   -5.52 KCAL/MOL
REMARK 924 INTRA-LIGAND FREE ENERGY PREDICTED BY IDOCK:   -0.20 KCAL/MOL
REMARK 927      BINDING AFFINITY PREDICTED BY RF-SCORE:    0.00 PKD
ROOT
HETATM    1  C   UNL     1     -12.464  11.724  62.903  1.00  0.00     0.330 C  
HETATM    2  O   UNL     1     -11.855  12.663  63.784  1.00  0.00    -0.413 OA 
ENDROOT
BRANCH   2   3
HETATM    3  C   UNL     1     -11.191  12.139  64.867  1.00  0.00    -0.323 A  
HETATM    4  C   UNL     1     -10.492  12.851  65.855  1.00  0.00    -0.279 A  
HETATM    5  C   UNL     1     -10.513  10.043  65.904  1.00  0.00    -0.115 A  
HETATM    6  C   UNL     1      -9.820  12.139  66.865  1.00  0.00    -0.213 A  
HETATM    7  C   UNL     1      -9.826  10.738  66.906  1.00  0.00    -0.224 A  
HETATM    8  C   UNL     1     -11.182  10.740  64.892  1.00  0.00     0.432 A  
BRANCH   4   9
HETATM    9  O   UNL     1     -10.454  14.216  65.754  1.00  0.00    -0.289 OA 
HETATM   10  C   UNL     1     -11.673  14.927  65.922  1.00  0.00    -0.175 C  
ENDBRANCH   4   9
BRANCH   7  11
HETATM   11  C   UNL     1      -8.945  10.010  67.921  1.00  0.00    -0.131 C  
BRANCH  11  12
HETATM   12  C   UNL     1      -7.520   9.994  67.352  1.00  0.00    -0.091 C  
BRANCH  12  13
HETATM   13  N   UNL     1      -6.506  10.995  67.698  1.00  0.00    -0.059 NA 
HETATM   14  C   UNL     1      -5.143  10.521  67.468  1.00  0.00    -0.036 C  
BRANCH  13  15
HETATM   15  C   UNL     1      -6.738  12.286  66.997  1.00  0.00    -0.038 C  
BRANCH  15  16
HETATM   16  C   UNL     1      -6.612  13.640  67.764  1.00  0.00    -0.178 C  
BRANCH  16  17
HETATM   17  C   UNL     1      -7.877  14.527  67.736  1.00  0.00    -0.171 C  
BRANCH  17  18
HETATM   18  C   UNL     1      -8.139  15.529  68.895  1.00  0.00    -0.194 C  
HETATM   19  N   UNL     1      -6.274  15.016  70.731  1.00  0.00     0.008 NA 
HETATM   20  C   UNL     1      -7.884  17.039  68.420  1.00  0.00    -0.233 C  
HETATM   21  C   UNL     1      -7.095  15.246  69.942  1.00  0.00    -0.102 C  
HETATM   22  C   UNL     1      -8.805  17.571  67.310  1.00  0.00    -0.235 C  
HETATM   23  C   UNL     1      -6.442  17.288  67.929  1.00  0.00    -0.161 C  
BRANCH  18  24
HETATM   24  C   UNL     1      -9.561  15.280  69.410  1.00  0.00    -0.245 A  
HETATM   25  C   UNL     1     -10.184  16.160  70.311  1.00  0.00     0.196 A  
HETATM   26  C   UNL     1     -11.397  15.847  70.933  1.00  0.00    -0.391 A  
HETATM   27  C   UNL     1     -10.229  14.079  69.110  1.00  0.00    -0.025 A  
HETATM   28  C   UNL     1     -12.031  14.632  70.623  1.00  0.00    -0.315 A  
HETATM   29  C   UNL     1     -11.453  13.773  69.694  1.00  0.00    -0.300 A  
BRANCH  26  30
HETATM   30  O   UNL     1     -12.007  16.648  71.864  1.00  0.00    -0.300 OA 
HETATM   31  C   UNL     1     -12.167  16.116  73.175  1.00  0.00    -0.542 C  
ENDBRANCH  26  30
BRANCH  28  32
HETATM   32  O   UNL     1     -13.194  14.353  71.299  1.00  0.00    -0.331 OA 
HETATM   33  C   UNL     1     -13.384  13.005  71.714  1.00  0.00    -0.378 C  
ENDBRANCH  28  32
ENDBRANCH  18  24
ENDBRANCH  17  18
ENDBRANCH  16  17
ENDBRANCH  15  16
ENDBRANCH  13  15
ENDBRANCH  12  13
ENDBRANCH  11  12
ENDBRANCH   7  11
ENDBRANCH   2   3
TORSDOF 12
ENDMDL
MODEL      333
REMARK 921   NORMALIZED FREE ENERGY PREDICTED BY IDOCK:   -2.03 KCAL/MOL
REMARK 922        TOTAL FREE ENERGY PREDICTED BY IDOCK:   -5.68 KCAL/MOL
REMARK 923 INTER-LIGAND FREE ENERGY PREDICTED BY IDOCK:   -5.47 KCAL/MOL
REMARK 924 INTRA-LIGAND FREE ENERGY PREDICTED BY IDOCK:   -0.20 KCAL/MOL
REMARK 927      BINDING AFFINITY PREDICTED BY RF-SCORE:    0.00 PKD
ROOT
HETATM    1  C   UNL     1      -8.738   7.980  62.330  1.00  0.00     0.113 C  
HETATM    2  O   UNL     1      -8.865   7.926  63.747  1.00  0.00     0.412 OA 
ENDROOT
BRANCH   2   3
HETATM    3  C   UNL     1      -8.044   8.764  64.464  1.00  0.00    -0.156 A  
HETATM    4  C   UNL     1      -8.363   9.454  65.645  1.00  0.00    -0.124 A  
HETATM    5  C   UNL     1      -5.855   9.830  64.438  1.00  0.00    -0.092 A  
HETATM    6  C   UNL     1      -7.410  10.318  66.211  1.00  0.00    -0.118 A  
HETATM    7  C   UNL     1      -6.151  10.512  65.624  1.00  0.00    -0.131 A  
HETATM    8  C   UNL     1      -6.797   8.970  63.863  1.00  0.00    -0.088 A  
BRANCH   4   9
HETATM    9  O   UNL     1      -9.621   9.292  66.161  1.00  0.00    -0.217 OA 
HETATM   10  C   UNL     1      -9.739   8.674  67.434  1.00  0.00    -0.175 C  
ENDBRANCH   4   9
BRANCH   7  11
HETATM   11  C   UNL     1      -5.216  11.585  66.182  1.00  0.00     0.028 C  
BRANCH  11  12
HETATM   12  C   UNL     1      -5.349  11.549  67.710  1.00  0.00    -0.049 C  
BRANCH  12  13
HETATM   13  N   UNL     1      -5.848  12.681  68.499  1.00  0.00    -0.058 NA 
HETATM   14  C   UNL     1      -5.717  13.958  67.801  1.00  0.00    -0.070 C  
BRANCH  13  15
HETATM   15  C   UNL     1      -7.250  12.471  68.947  1.00  0.00    -0.050 C  
BRANCH  15  16
HETATM   16  C   UNL     1      -8.306  13.613  68.812  1.00  0.00     0.041 C  
BRANCH  16  17
HETATM   17  C   UNL     1      -9.023  13.681  67.445  1.00  0.00    -0.218 C  
BRANCH  17  18
HETATM   18  C   UNL     1     -10.043  14.821  67.169  1.00  0.00    -0.240 C  
HETATM   19  N   UNL     1     -10.668  14.624  64.584  1.00  0.00    -0.359 NA 
HETATM   20  C   UNL     1     -11.410  14.578  67.971  1.00  0.00    -0.326 C  
HETATM   21  C   UNL     1     -10.401  14.725  65.710  1.00  0.00    -0.340 C  
HETATM   22  C   UNL     1     -11.313  14.586  69.506  1.00  0.00    -0.313 C  
HETATM   23  C   UNL     1     -12.107  13.251  67.599  1.00  0.00    -0.295 C  
BRANCH  18  24
HETATM   24  C   UNL     1      -9.359  16.149  67.513  1.00  0.00    -0.217 A  
HETATM   25  C   UNL     1      -9.602  17.318  66.772  1.00  0.00    -0.279 A  
HETATM   26  C   UNL     1      -8.845  18.480  66.953  1.00  0.00    -0.283 A  
HETATM   27  C   UNL     1      -8.350  16.200  68.492  1.00  0.00    -0.195 A  
HETATM   28  C   UNL     1      -7.834  18.493  67.929  1.00  0.00    -0.253 A  
HETATM   29  C   UNL     1      -7.616  17.360  68.706  1.00  0.00    -0.252 A  
BRANCH  26  30
HETATM   30  O   UNL     1      -9.006  19.621  66.209  1.00  0.00    -0.362 OA 
HETATM   31  C   UNL     1     -10.328  20.133  66.080  1.00  0.00    -0.373 C  
ENDBRANCH  26  30
BRANCH  28  32
HETATM   32  O   UNL     1      -7.089  19.643  68.031  1.00  0.00    -0.256 OA 
HETATM   33  C   UNL     1      -5.957  19.748  67.176  1.00  0.00    -0.176 C  
ENDBRANCH  28  32
ENDBRANCH  18  24
ENDBRANCH  17  18
ENDBRANCH  16  17
ENDBRANCH  15  16
ENDBRANCH  13  15
ENDBRANCH  12  13
ENDBRANCH  11  12
ENDBRANCH   7  11
ENDBRANCH   2   3
TORSDOF 12
ENDMDL
MODEL      334
REMARK 921   NORMALIZED FREE ENERGY PREDICTED BY IDOCK:   -1.99 KCAL/MOL
REMARK 922        TOTAL FREE ENERGY PREDICTED BY IDOCK:   -5.61 KCAL/MOL
REMARK 923 INTER-LIGAND FREE ENERGY PREDICTED BY IDOCK:   -4.75 KCAL/MOL
REMARK 924 INTRA-LIGAND FREE ENERGY PREDICTED BY IDOCK:   -0.87 KCAL/MOL
REMARK 927      BINDING AFFINITY PREDICTED BY RF-SCORE:    0.00 PKD
ROOT
HETATM    1  C   UNL     1     -12.474  12.594  63.434  1.00  0.00    -0.372 C  
HETATM    2  O   UNL     1     -11.629  13.477  64.165  1.00  0.00    -0.384 OA 
ENDROOT
BRANCH   2   3
HETATM    3  C   UNL     1     -10.775  12.891  65.068  1.00  0.00    -0.305 A  
HETATM    4  C   UNL     1     -10.143  13.511  66.159  1.00  0.00    -0.304 A  
HETATM    5  C   UNL     1      -9.595  10.821  65.568  1.00  0.00    -0.269 A  
HETATM    6  C   UNL     1      -9.250  12.764  66.947  1.00  0.00    -0.229 A  
HETATM    7  C   UNL     1      -8.970  11.418  66.669  1.00  0.00    -0.183 A  
HETATM    8  C   UNL     1     -10.483  11.554  64.774  1.00  0.00    -0.354 A  
BRANCH   4   9
HETATM    9  O   UNL     1     -10.389  14.842  66.369  1.00  0.00    -0.278 OA 
HETATM   10  C   UNL     1     -11.579  15.193  67.062  1.00  0.00    -0.174 C  
ENDBRANCH   4   9
BRANCH   7  11
HETATM   11  C   UNL     1      -7.870  10.700  67.449  1.00  0.00    -0.110 C  
BRANCH  11  12
HETATM   12  C   UNL     1      -6.628  10.664  66.549  1.00  0.00    -0.108 C  
BRANCH  12  13
HETATM   13  N   UNL     1      -6.320   9.546  65.651  1.00  0.00    -0.067 NA 
HETATM   14  C   UNL     1      -5.296   9.880  64.664  1.00  0.00    -0.074 C  
BRANCH  13  15
HETATM   15  C   UNL     1      -5.943   8.318  66.402  1.00  0.00    -0.041 C  
BRANCH  15  16
HETATM   16  C   UNL     1      -6.747   6.993  66.210  1.00  0.00    -0.053 C  
BRANCH  16  17
HETATM   17  C   UNL     1      -6.766   6.057  67.439  1.00  0.00    -0.061 C  
BRANCH  17  18
HETATM   18  C   UNL     1      -8.127   5.584  68.023  1.00  0.00    -0.096 C  
HETATM   19  N   UNL     1      -9.897   7.460  67.346  1.00  0.00    -0.157 NA 
HETATM   20  C   UNL     1      -8.623   4.236  67.310  1.00  0.00    -0.105 C  
HETATM   21  C   UNL     1      -9.135   6.638  67.653  1.00  0.00    -0.112 C  
HETATM   22  C   UNL     1      -7.733   2.996  67.499  1.00  0.00    -0.069 C  
HETATM   23  C   UNL     1      -8.816   4.389  65.785  1.00  0.00    -0.122 C  
BRANCH  18  24
HETATM   24  C   UNL     1      -7.959   5.449  69.540  1.00  0.00    -0.089 A  
HETATM   25  C   UNL     1      -7.456   6.501  70.324  1.00  0.00    -0.094 A  
HETATM   26  C   UNL     1      -7.120   6.327  71.670  1.00  0.00    -0.082 A  
HETATM   27  C   UNL     1      -8.163   4.209  70.173  1.00  0.00    -0.068 A  
HETATM   28  C   UNL     1      -7.322   5.072  72.269  1.00  0.00    -0.091 A  
HETATM   29  C   UNL     1      -7.867   4.034  71.520  1.00  0.00    -0.065 A  
BRANCH  26  30
HETATM   30  O   UNL     1      -6.568   7.309  72.453  1.00  0.00    -0.051 OA 
HETATM   31  C   UNL     1      -5.480   8.044  71.905  1.00  0.00    -0.035 C  
ENDBRANCH  26  30
BRANCH  28  32
HETATM   32  O   UNL     1      -6.928   4.943  73.579  1.00  0.00    -0.068 OA 
HETATM   33  C   UNL     1      -7.594   3.950  74.351  1.00  0.00    -0.074 C  
ENDBRANCH  28  32
ENDBRANCH  18  24
ENDBRANCH  17  18
ENDBRANCH  16  17
ENDBRANCH  15  16
ENDBRANCH  13  15
ENDBRANCH  12  13
ENDBRANCH  11  12
ENDBRANCH   7  11
ENDBRANCH   2   3
TORSDOF 12
ENDMDL
MODEL      335
REMARK 921   NORMALIZED FREE ENERGY PREDICTED BY IDOCK:   -1.87 KCAL/MOL
REMARK 922        TOTAL FREE ENERGY PREDICTED BY IDOCK:   -5.40 KCAL/MOL
REMARK 923 INTER-LIGAND FREE ENERGY PREDICTED BY IDOCK:   -4.52 KCAL/MOL
REMARK 924 INTRA-LIGAND FREE ENERGY PREDICTED BY IDOCK:   -0.88 KCAL/MOL
REMARK 927      BINDING AFFINITY PREDICTED BY RF-SCORE:    0.00 PKD
ROOT
HETATM    1  C   UNL     1      -9.947   7.908  73.442  1.00  0.00    -0.206 C  
HETATM    2  O   UNL     1      -8.919   7.585  72.511  1.00  0.00    -0.124 OA 
ENDROOT
BRANCH   2   3
HETATM    3  C   UNL     1      -9.097   6.432  71.785  1.00  0.00    -0.143 A  
HETATM    4  C   UNL     1     -10.073   6.191  70.805  1.00  0.00    -0.193 A  
HETATM    5  C   UNL     1      -8.306   4.140  71.552  1.00  0.00    -0.095 A  
HETATM    6  C   UNL     1     -10.141   4.922  70.203  1.00  0.00    -0.332 A  
HETATM    7  C   UNL     1      -9.263   3.890  70.561  1.00  0.00    -0.203 A  
HETATM    8  C   UNL     1      -8.231   5.398  72.161  1.00  0.00    -0.115 A  
BRANCH   4   9
HETATM    9  O   UNL     1     -10.956   7.199  70.520  1.00  0.00    -0.246 OA 
HETATM   10  C   UNL     1     -12.320   7.001  70.864  1.00  0.00    -0.314 C  
ENDBRANCH   4   9
BRANCH   7  11
HETATM   11  C   UNL     1      -9.484   2.484  70.003  1.00  0.00    -0.141 C  
BRANCH  11  12
HETATM   12  C   UNL     1      -9.112   2.525  68.515  1.00  0.00    -0.157 C  
BRANCH  12  13
HETATM   13  N   UNL     1      -7.779   2.177  68.011  1.00  0.00    -0.055 NA 
HETATM   14  C   UNL     1      -7.826   1.469  66.733  1.00  0.00    -0.066 C  
BRANCH  13  15
HETATM   15  C   UNL     1      -6.891   3.366  67.919  1.00  0.00    -0.050 C  
BRANCH  15  16
HETATM   16  C   UNL     1      -7.340   4.632  67.124  1.00  0.00    -0.077 C  
BRANCH  16  17
HETATM   17  C   UNL     1      -6.798   4.722  65.679  1.00  0.00    -0.061 C  
BRANCH  17  18
HETATM   18  C   UNL     1      -7.596   5.518  64.609  1.00  0.00    -0.079 C  
HETATM   19  N   UNL     1      -5.775   6.485  62.918  1.00  0.00    -0.030 NA 
HETATM   20  C   UNL     1      -8.528   4.543  63.741  1.00  0.00    -0.122 C  
HETATM   21  C   UNL     1      -6.578   6.075  63.650  1.00  0.00    -0.033 C  
HETATM   22  C   UNL     1      -9.641   3.806  64.502  1.00  0.00    -0.171 C  
HETATM   23  C   UNL     1      -7.734   3.452  62.990  1.00  0.00    -0.067 C  
BRANCH  18  24
HETATM   24  C   UNL     1      -8.373   6.622  65.335  1.00  0.00    -0.130 A  
HETATM   25  C   UNL     1      -8.012   7.975  65.224  1.00  0.00    -0.124 A  
HETATM   26  C   UNL     1      -8.589   8.964  66.027  1.00  0.00    -0.145 A  
HETATM   27  C   UNL     1      -9.384   6.294  66.257  1.00  0.00    -0.155 A  
HETATM   28  C   UNL     1      -9.585   8.602  66.950  1.00  0.00    -0.194 A  
HETATM   29  C   UNL     1      -9.990   7.274  67.035  1.00  0.00    -0.293 A  
BRANCH  26  30
HETATM   30  O   UNL     1      -8.220  10.285  65.996  1.00  0.00    -0.130 OA 
HETATM   31  C   UNL     1      -7.089  10.626  65.203  1.00  0.00     0.064 C  
ENDBRANCH  26  30
BRANCH  28  32
HETATM   32  O   UNL     1     -10.081   9.605  67.747  1.00  0.00    -0.166 OA 
HETATM   33  C   UNL     1      -9.469   9.770  69.021  1.00  0.00    -0.173 C  
ENDBRANCH  28  32
ENDBRANCH  18  24
ENDBRANCH  17  18
ENDBRANCH  16  17
ENDBRANCH  15  16
ENDBRANCH  13  15
ENDBRANCH  12  13
ENDBRANCH  11  12
ENDBRANCH   7  11
ENDBRANCH   2   3
TORSDOF 12
ENDMDL
MODEL      336
REMARK 921   NORMALIZED FREE ENERGY PREDICTED BY IDOCK:   -1.77 KCAL/MOL
REMARK 922        TOTAL FREE ENERGY PREDICTED BY IDOCK:   -5.23 KCAL/MOL
REMARK 923 INTER-LIGAND FREE ENERGY PREDICTED BY IDOCK:   -4.99 KCAL/MOL
REMARK 924 INTRA-LIGAND FREE ENERGY PREDICTED BY IDOCK:   -0.24 KCAL/MOL
REMARK 927      BINDING AFFINITY PREDICTED BY RF-SCORE:    0.00 PKD
ROOT
HETATM    1  C   UNL     1     -12.765  12.344  63.827  1.00  0.00    -0.364 C  
HETATM    2  O   UNL     1     -11.435  12.849  63.891  1.00  0.00    -0.391 OA 
ENDROOT
BRANCH   2   3
HETATM    3  C   UNL     1     -10.450  11.935  64.178  1.00  0.00    -0.349 A  
HETATM    4  C   UNL     1      -9.938  11.613  65.446  1.00  0.00    -0.250 A  
HETATM    5  C   UNL     1      -8.837  10.428  63.150  1.00  0.00    -0.220 A  
HETATM    6  C   UNL     1      -8.883  10.688  65.544  1.00  0.00    -0.202 A  
HETATM    7  C   UNL     1      -8.327  10.084  64.408  1.00  0.00    -0.169 A  
HETATM    8  C   UNL     1      -9.883  11.350  63.040  1.00  0.00    -0.373 A  
BRANCH   4   9
HETATM    9  O   UNL     1     -10.460  12.265  66.531  1.00  0.00    -0.223 OA 
HETATM   10  C   UNL     1     -11.479  11.606  67.271  1.00  0.00    -0.277 C  
ENDBRANCH   4   9
BRANCH   7  11
HETATM   11  C   UNL     1      -7.076   9.217  64.551  1.00  0.00    -0.093 C  
BRANCH  11  12
HETATM   12  C   UNL     1      -7.178   8.100  63.505  1.00  0.00    -0.094 C  
BRANCH  12  13
HETATM   13  N   UNL     1      -7.238   6.677  63.855  1.00  0.00    -0.059 NA 
HETATM   14  C   UNL     1      -6.242   5.878  63.143  1.00  0.00    -0.021 C  
BRANCH  13  15
HETATM   15  C   UNL     1      -7.133   6.459  65.322  1.00  0.00    -0.061 C  
BRANCH  15  16
HETATM   16  C   UNL     1      -6.919   5.024  65.898  1.00  0.00    -0.066 C  
BRANCH  16  17
HETATM   17  C   UNL     1      -8.137   4.430  66.641  1.00  0.00    -0.102 C  
BRANCH  17  18
HETATM   18  C   UNL     1      -7.952   3.836  68.066  1.00  0.00    -0.076 C  
HETATM   19  N   UNL     1      -9.581   1.728  68.189  1.00  0.00    -0.166 NA 
HETATM   20  C   UNL     1      -6.469   3.257  68.261  1.00  0.00    -0.036 C  
HETATM   21  C   UNL     1      -8.872   2.648  68.151  1.00  0.00    -0.122 C  
HETATM   22  C   UNL     1      -5.322   4.277  68.176  1.00  0.00    -0.012 C  
HETATM   23  C   UNL     1      -6.116   2.138  67.258  1.00  0.00    -0.020 C  
BRANCH  18  24
HETATM   24  C   UNL     1      -8.321   4.929  69.075  1.00  0.00    -0.082 A  
HETATM   25  C   UNL     1      -7.891   4.875  70.412  1.00  0.00    -0.066 A  
HETATM   26  C   UNL     1      -8.376   5.758  71.382  1.00  0.00    -0.127 A  
HETATM   27  C   UNL     1      -9.229   5.945  68.727  1.00  0.00    -0.120 A  
HETATM   28  C   UNL     1      -9.294   6.752  71.005  1.00  0.00    -0.160 A  
HETATM   29  C   UNL     1      -9.690   6.851  69.675  1.00  0.00    -0.157 A  
BRANCH  26  30
HETATM   30  O   UNL     1      -8.032   5.700  72.708  1.00  0.00    -0.101 OA 
HETATM   31  C   UNL     1      -8.139   4.436  73.354  1.00  0.00    -0.095 C  
ENDBRANCH  26  30
BRANCH  28  32
HETATM   32  O   UNL     1      -9.775   7.560  72.007  1.00  0.00    -0.156 OA 
HETATM   33  C   UNL     1      -8.857   8.485  72.577  1.00  0.00    -0.175 C  
ENDBRANCH  28  32
ENDBRANCH  18  24
ENDBRANCH  17  18
ENDBRANCH  16  17
ENDBRANCH  15  16
ENDBRANCH  13  15
ENDBRANCH  12  13
ENDBRANCH  11  12
ENDBRANCH   7  11
ENDBRANCH   2   3
TORSDOF 12
ENDMDL
MODEL      337
REMARK 921   NORMALIZED FREE ENERGY PREDICTED BY IDOCK:   -1.71 KCAL/MOL
REMARK 922        TOTAL FREE ENERGY PREDICTED BY IDOCK:   -5.13 KCAL/MOL
REMARK 923 INTER-LIGAND FREE ENERGY PREDICTED BY IDOCK:   -5.12 KCAL/MOL
REMARK 924 INTRA-LIGAND FREE ENERGY PREDICTED BY IDOCK:   -0.01 KCAL/MOL
REMARK 927      BINDING AFFINITY PREDICTED BY RF-SCORE:    0.00 PKD
ROOT
HETATM    1  C   UNL     1      -8.522  20.171  67.891  1.00  0.00    -0.201 C  
HETATM    2  O   UNL     1      -8.034  18.909  67.448  1.00  0.00    -0.244 OA 
ENDROOT
BRANCH   2   3
HETATM    3  C   UNL     1      -8.976  17.931  67.239  1.00  0.00    -0.250 A  
HETATM    4  C   UNL     1      -8.797  16.544  67.360  1.00  0.00    -0.191 A  
HETATM    5  C   UNL     1     -11.262  17.565  66.485  1.00  0.00     0.729 A  
HETATM    6  C   UNL     1      -9.866  15.686  67.049  1.00  0.00    -0.237 A  
HETATM    7  C   UNL     1     -11.105  16.180  66.617  1.00  0.00     0.052 A  
HETATM    8  C   UNL     1     -10.204  18.428  66.788  1.00  0.00    -0.410 A  
BRANCH   4   9
HETATM    9  O   UNL     1      -7.558  16.088  67.727  1.00  0.00    -0.129 OA 
HETATM   10  C   UNL     1      -6.454  16.442  66.905  1.00  0.00    -0.104 C  
ENDBRANCH   4   9
BRANCH   7  11
HETATM   11  C   UNL     1     -12.177  15.205  66.131  1.00  0.00     0.403 C  
BRANCH  11  12
HETATM   12  C   UNL     1     -11.687  14.619  64.801  1.00  0.00    -0.428 C  
BRANCH  12  13
HETATM   13  N   UNL     1     -11.385  13.196  64.613  1.00  0.00    -0.319 NA 
HETATM   14  C   UNL     1      -9.952  12.933  64.494  1.00  0.00    -0.135 C  
BRANCH  13  15
HETATM   15  C   UNL     1     -11.985  12.355  65.682  1.00  0.00    -0.386 C  
BRANCH  15  16
HETATM   16  C   UNL     1     -11.088  11.728  66.795  1.00  0.00    -0.360 C  
BRANCH  16  17
HETATM   17  C   UNL     1     -11.394  10.249  67.126  1.00  0.00     0.202 C  
BRANCH  17  18
HETATM   18  C   UNL     1     -10.222   9.258  67.368  1.00  0.00    -0.304 C  
HETATM   19  N   UNL     1     -11.161   6.851  66.708  1.00  0.00    -0.208 NA 
HETATM   20  C   UNL     1      -9.006   9.546  66.363  1.00  0.00    -0.182 C  
HETATM   21  C   UNL     1     -10.741   7.893  67.005  1.00  0.00    -0.219 C  
HETATM   22  C   UNL     1      -8.316  10.913  66.500  1.00  0.00    -0.155 C  
HETATM   23  C   UNL     1      -9.402   9.418  64.876  1.00  0.00    -0.218 C  
BRANCH  18  24
HETATM   24  C   UNL     1      -9.831   9.356  68.847  1.00  0.00    -0.176 A  
HETATM   25  C   UNL     1      -8.546   9.761  69.246  1.00  0.00    -0.158 A  
HETATM   26  C   UNL     1      -8.120   9.671  70.575  1.00  0.00    -0.109 A  
HETATM   27  C   UNL     1     -10.705   8.897  69.849  1.00  0.00    -0.236 A  
HETATM   28  C   UNL     1      -9.013   9.193  71.548  1.00  0.00    -0.008 A  
HETATM   29  C   UNL     1     -10.305   8.837  71.179  1.00  0.00    -0.315 A  
BRANCH  26  30
HETATM   30  O   UNL     1      -6.855   9.995  70.995  1.00  0.00    -0.340 OA 
HETATM   31  C   UNL     1      -5.783   9.735  70.095  1.00  0.00    -0.044 C  
ENDBRANCH  26  30
BRANCH  28  32
HETATM   32  O   UNL     1      -8.526   9.079  72.829  1.00  0.00    -0.283 OA 
HETATM   33  C   UNL     1      -8.226   7.764  73.282  1.00  0.00    -0.158 C  
ENDBRANCH  28  32
ENDBRANCH  18  24
ENDBRANCH  17  18
ENDBRANCH  16  17
ENDBRANCH  15  16
ENDBRANCH  13  15
ENDBRANCH  12  13
ENDBRANCH  11  12
ENDBRANCH   7  11
ENDBRANCH   2   3
TORSDOF 12
ENDMDL
MODEL      338
REMARK 921   NORMALIZED FREE ENERGY PREDICTED BY IDOCK:   -1.68 KCAL/MOL
REMARK 922        TOTAL FREE ENERGY PREDICTED BY IDOCK:   -5.07 KCAL/MOL
REMARK 923 INTER-LIGAND FREE ENERGY PREDICTED BY IDOCK:   -4.50 KCAL/MOL
REMARK 924 INTRA-LIGAND FREE ENERGY PREDICTED BY IDOCK:   -0.58 KCAL/MOL
REMARK 927      BINDING AFFINITY PREDICTED BY RF-SCORE:    0.00 PKD
ROOT
HETATM    1  C   UNL     1      -7.487   8.892  71.244  1.00  0.00    -0.103 C  
HETATM    2  O   UNL     1      -7.370   8.650  69.846  1.00  0.00    -0.050 OA 
ENDROOT
BRANCH   2   3
HETATM    3  C   UNL     1      -8.266   9.309  69.038  1.00  0.00    -0.111 A  
HETATM    4  C   UNL     1      -8.050  10.507  68.338  1.00  0.00    -0.119 A  
HETATM    5  C   UNL     1     -10.576   9.282  68.270  1.00  0.00    -0.237 A  
HETATM    6  C   UNL     1      -9.108  11.069  67.601  1.00  0.00    -0.145 A  
HETATM    7  C   UNL     1     -10.373  10.467  67.553  1.00  0.00    -0.268 A  
HETATM    8  C   UNL     1      -9.533   8.715  69.010  1.00  0.00    -0.153 A  
BRANCH   4   9
HETATM    9  O   UNL     1      -6.823  11.104  68.453  1.00  0.00    -0.061 OA 
HETATM   10  C   UNL     1      -5.842  10.796  67.472  1.00  0.00    -0.044 C  
ENDBRANCH   4   9
BRANCH   7  11
HETATM   11  C   UNL     1     -11.532  11.201  66.880  1.00  0.00    -0.054 C  
BRANCH  11  12
HETATM   12  C   UNL     1     -10.945  11.989  65.702  1.00  0.00    -0.297 C  
BRANCH  12  13
HETATM   13  N   UNL     1     -10.904  13.454  65.657  1.00  0.00    -0.280 NA 
HETATM   14  C   UNL     1     -11.548  14.001  64.464  1.00  0.00    -0.391 C  
BRANCH  13  15
HETATM   15  C   UNL     1     -11.475  14.065  66.887  1.00  0.00    -0.356 C  
BRANCH  15  16
HETATM   16  C   UNL     1     -10.625  15.046  67.753  1.00  0.00    -0.264 C  
BRANCH  16  17
HETATM   17  C   UNL     1     -10.210  16.354  67.042  1.00  0.00    -0.282 C  
BRANCH  17  18
HETATM   18  C   UNL     1      -9.607  17.522  67.871  1.00  0.00    -0.277 C  
HETATM   19  N   UNL     1     -11.484  19.416  67.925  1.00  0.00     0.589 NA 
HETATM   20  C   UNL     1      -9.379  17.087  69.398  1.00  0.00     0.155 C  
HETATM   21  C   UNL     1     -10.655  18.602  67.905  1.00  0.00    -0.349 C  
HETATM   22  C   UNL     1      -8.369  15.953  69.641  1.00  0.00     0.064 C  
HETATM   23  C   UNL     1     -10.680  16.654  70.109  1.00  0.00    -0.090 C  
BRANCH  18  24
HETATM   24  C   UNL     1      -8.325  17.979  67.166  1.00  0.00    -0.241 A  
HETATM   25  C   UNL     1      -7.598  19.097  67.609  1.00  0.00    -0.266 A  
HETATM   26  C   UNL     1      -6.542  19.635  66.866  1.00  0.00    -0.193 A  
HETATM   27  C   UNL     1      -7.921  17.379  65.960  1.00  0.00    -0.200 A  
HETATM   28  C   UNL     1      -6.173  19.020  65.657  1.00  0.00    -0.236 A  
HETATM   29  C   UNL     1      -6.850  17.883  65.231  1.00  0.00     0.447 A  
BRANCH  26  30
HETATM   30  O   UNL     1      -5.848  20.761  67.229  1.00  0.00    -0.186 OA 
HETATM   31  C   UNL     1      -6.022  21.231  68.561  1.00  0.00    -0.103 C  
ENDBRANCH  26  30
BRANCH  28  32
HETATM   32  O   UNL     1      -5.163  19.619  64.944  1.00  0.00    -0.150 OA 
HETATM   33  C   UNL     1      -5.276  19.585  63.526  1.00  0.00    -0.248 C  
ENDBRANCH  28  32
ENDBRANCH  18  24
ENDBRANCH  17  18
ENDBRANCH  16  17
ENDBRANCH  15  16
ENDBRANCH  13  15
ENDBRANCH  12  13
ENDBRANCH  11  12
ENDBRANCH   7  11
ENDBRANCH   2   3
TORSDOF 12
ENDMDL
MODEL      339
REMARK 921   NORMALIZED FREE ENERGY PREDICTED BY IDOCK:   -1.64 KCAL/MOL
REMARK 922        TOTAL FREE ENERGY PREDICTED BY IDOCK:   -5.01 KCAL/MOL
REMARK 923 INTER-LIGAND FREE ENERGY PREDICTED BY IDOCK:   -5.01 KCAL/MOL
REMARK 924 INTRA-LIGAND FREE ENERGY PREDICTED BY IDOCK:    0.00 KCAL/MOL
REMARK 927      BINDING AFFINITY PREDICTED BY RF-SCORE:    0.00 PKD
ROOT
HETATM    1  C   UNL     1      -8.852   4.202  70.822  1.00  0.00    -0.086 C  
HETATM    2  O   UNL     1      -9.487   4.429  69.568  1.00  0.00    -0.146 OA 
ENDROOT
BRANCH   2   3
HETATM    3  C   UNL     1      -8.716   5.016  68.594  1.00  0.00    -0.093 A  
HETATM    4  C   UNL     1      -7.765   4.386  67.774  1.00  0.00    -0.080 A  
HETATM    5  C   UNL     1      -8.145   7.163  67.597  1.00  0.00    -0.114 A  
HETATM    6  C   UNL     1      -7.023   5.162  66.865  1.00  0.00    -0.064 A  
HETATM    7  C   UNL     1      -7.206   6.549  66.761  1.00  0.00    -0.077 A  
HETATM    8  C   UNL     1      -8.886   6.403  68.508  1.00  0.00    -0.119 A  
BRANCH   4   9
HETATM    9  O   UNL     1      -7.566   3.042  67.941  1.00  0.00    -0.057 OA 
HETATM   10  C   UNL     1      -8.387   2.154  67.195  1.00  0.00    -0.083 C  
ENDBRANCH   4   9
BRANCH   7  11
HETATM   11  C   UNL     1      -6.262   7.369  65.883  1.00  0.00    -0.041 C  
BRANCH  11  12
HETATM   12  C   UNL     1      -7.028   7.719  64.600  1.00  0.00    -0.063 C  
BRANCH  12  13
HETATM   13  N   UNL     1      -7.573   9.054  64.330  1.00  0.00    -0.112 NA 
HETATM   14  C   UNL     1      -8.636   9.037  63.327  1.00  0.00    -0.142 C  
BRANCH  13  15
HETATM   15  C   UNL     1      -8.035   9.728  65.572  1.00  0.00    -0.123 C  
BRANCH  15  16
HETATM   16  C   UNL     1      -8.327  11.262  65.581  1.00  0.00     0.080 C  
BRANCH  16  17
HETATM   17  C   UNL     1      -8.834  11.823  66.929  1.00  0.00    -0.191 C  
BRANCH  17  18
HETATM   18  C   UNL     1      -9.993  12.859  66.942  1.00  0.00    -0.238 C  
HETATM   19  N   UNL     1      -8.841  15.238  66.589  1.00  0.00    -0.276 NA 
HETATM   20  C   UNL     1     -10.966  12.651  65.684  1.00  0.00    -0.313 C  
HETATM   21  C   UNL     1      -9.355  14.209  66.749  1.00  0.00    -0.282 C  
HETATM   22  C   UNL     1     -11.720  11.314  65.618  1.00  0.00     0.522 C  
HETATM   23  C   UNL     1     -10.246  12.800  64.326  1.00  0.00    -0.352 C  
BRANCH  18  24
HETATM   24  C   UNL     1     -10.705  12.741  68.294  1.00  0.00    -0.257 A  
HETATM   25  C   UNL     1     -10.847  11.505  68.948  1.00  0.00    -0.263 A  
HETATM   26  C   UNL     1     -11.655  11.354  70.079  1.00  0.00    -0.299 A  
HETATM   27  C   UNL     1     -11.370  13.848  68.849  1.00  0.00    -0.319 A  
HETATM   28  C   UNL     1     -12.319  12.478  70.600  1.00  0.00    -0.282 A  
HETATM   29  C   UNL     1     -12.148  13.718  69.995  1.00  0.00    -0.416 A  
BRANCH  26  30
HETATM   30  O   UNL     1     -11.871  10.156  70.710  1.00  0.00    -0.297 OA 
HETATM   31  C   UNL     1     -13.081   9.470  70.407  1.00  0.00     0.423 C  
ENDBRANCH  26  30
BRANCH  28  32
HETATM   32  O   UNL     1     -13.139  12.263  71.682  1.00  0.00    -0.409 OA 
HETATM   33  C   UNL     1     -13.959  13.353  72.087  1.00  0.00    -0.437 C  
ENDBRANCH  28  32
ENDBRANCH  18  24
ENDBRANCH  17  18
ENDBRANCH  16  17
ENDBRANCH  15  16
ENDBRANCH  13  15
ENDBRANCH  12  13
ENDBRANCH  11  12
ENDBRANCH   7  11
ENDBRANCH   2   3
TORSDOF 12
ENDMDL
MODEL      340
REMARK 921   NORMALIZED FREE ENERGY PREDICTED BY IDOCK:   -1.55 KCAL/MOL
REMARK 922        TOTAL FREE ENERGY PREDICTED BY IDOCK:   -4.86 KCAL/MOL
REMARK 923 INTER-LIGAND FREE ENERGY PREDICTED BY IDOCK:   -4.54 KCAL/MOL
REMARK 924 INTRA-LIGAND FREE ENERGY PREDICTED BY IDOCK:   -0.32 KCAL/MOL
REMARK 927      BINDING AFFINITY PREDICTED BY RF-SCORE:    0.00 PKD
ROOT
HETATM    1  C   UNL     1      -5.473  14.086  72.167  1.00  0.00    -0.201 C  
HETATM    2  O   UNL     1      -5.261  12.717  71.834  1.00  0.00    -0.337 OA 
ENDROOT
BRANCH   2   3
HETATM    3  C   UNL     1      -5.677  12.324  70.585  1.00  0.00    -0.135 A  
HETATM    4  C   UNL     1      -6.373  13.098  69.642  1.00  0.00    -0.086 A  
HETATM    5  C   UNL     1      -5.814  10.400  69.099  1.00  0.00    -0.037 A  
HETATM    6  C   UNL     1      -6.769  12.506  68.430  1.00  0.00    -0.081 A  
HETATM    7  C   UNL     1      -6.493  11.162  68.141  1.00  0.00    -0.057 A  
HETATM    8  C   UNL     1      -5.417  10.976  70.310  1.00  0.00    -0.091 A  
BRANCH   4   9
HETATM    9  O   UNL     1      -6.681  14.389  69.977  1.00  0.00    -0.145 OA 
HETATM   10  C   UNL     1      -7.225  15.224  68.964  1.00  0.00    -0.151 C  
ENDBRANCH   4   9
BRANCH   7  11
HETATM   11  C   UNL     1      -7.090  10.522  66.888  1.00  0.00    -0.101 C  
BRANCH  11  12
HETATM   12  C   UNL     1      -6.931   9.004  67.037  1.00  0.00    -0.078 C  
BRANCH  12  13
HETATM   13  N   UNL     1      -8.068   8.085  67.152  1.00  0.00    -0.115 NA 
HETATM   14  C   UNL     1      -9.071   8.545  68.111  1.00  0.00    -0.138 C  
BRANCH  13  15
HETATM   15  C   UNL     1      -8.694   7.807  65.832  1.00  0.00    -0.149 C  
BRANCH  15  16
HETATM   16  C   UNL     1      -8.627   6.377  65.208  1.00  0.00    -0.051 C  
BRANCH  16  17
HETATM   17  C   UNL     1      -8.180   5.261  66.180  1.00  0.00    -0.110 C  
BRANCH  17  18
HETATM   18  C   UNL     1      -9.037   3.971  66.313  1.00  0.00    -0.139 C  
HETATM   19  N   UNL     1     -11.241   4.414  64.878  1.00  0.00    -0.159 NA 
HETATM   20  C   UNL     1      -8.308   2.721  65.623  1.00  0.00    -0.093 C  
HETATM   21  C   UNL     1     -10.288   4.210  65.512  1.00  0.00    -0.124 C  
HETATM   22  C   UNL     1      -6.965   2.290  66.235  1.00  0.00    -0.044 C  
HETATM   23  C   UNL     1      -8.039   2.928  64.116  1.00  0.00    -0.082 C  
BRANCH  18  24
HETATM   24  C   UNL     1      -9.332   3.763  67.803  1.00  0.00    -0.237 A  
HETATM   25  C   UNL     1      -9.435   4.845  68.693  1.00  0.00    -0.198 A  
HETATM   26  C   UNL     1      -9.513   4.660  70.077  1.00  0.00    -0.172 A  
HETATM   27  C   UNL     1      -9.361   2.468  68.350  1.00  0.00    -0.259 A  
HETATM   28  C   UNL     1      -9.523   3.353  70.593  1.00  0.00    -0.173 A  
HETATM   29  C   UNL     1      -9.474   2.271  69.722  1.00  0.00    -0.115 A  
BRANCH  26  30
HETATM   30  O   UNL     1      -9.550   5.688  70.984  1.00  0.00    -0.162 OA 
HETATM   31  C   UNL     1     -10.716   6.503  70.997  1.00  0.00    -0.243 C  
ENDBRANCH  26  30
BRANCH  28  32
HETATM   32  O   UNL     1      -9.551   3.231  71.962  1.00  0.00    -0.124 OA 
HETATM   33  C   UNL     1     -10.249   2.108  72.488  1.00  0.00    -0.156 C  
ENDBRANCH  28  32
ENDBRANCH  18  24
ENDBRANCH  17  18
ENDBRANCH  16  17
ENDBRANCH  15  16
ENDBRANCH  13  15
ENDBRANCH  12  13
ENDBRANCH  11  12
ENDBRANCH   7  11
ENDBRANCH   2   3
TORSDOF 12
ENDMDL
MODEL      341
REMARK 921   NORMALIZED FREE ENERGY PREDICTED BY IDOCK:   -1.54 KCAL/MOL
REMARK 922        TOTAL FREE ENERGY PREDICTED BY IDOCK:   -4.85 KCAL/MOL
REMARK 923 INTER-LIGAND FREE ENERGY PREDICTED BY IDOCK:   -4.68 KCAL/MOL
REMARK 924 INTRA-LIGAND FREE ENERGY PREDICTED BY IDOCK:   -0.17 KCAL/MOL
REMARK 927      BINDING AFFINITY PREDICTED BY RF-SCORE:    0.00 PKD
ROOT
HETATM    1  C   UNL     1      -5.491  13.834  72.590  1.00  0.00    -0.059 C  
HETATM    2  O   UNL     1      -5.531  14.756  71.506  1.00  0.00    -0.130 OA 
ENDROOT
BRANCH   2   3
HETATM    3  C   UNL     1      -6.159  14.324  70.363  1.00  0.00    -0.176 A  
HETATM    4  C   UNL     1      -7.007  15.072  69.529  1.00  0.00    -0.187 A  
HETATM    5  C   UNL     1      -6.559  12.352  68.991  1.00  0.00    -0.100 A  
HETATM    6  C   UNL     1      -7.611  14.443  68.426  1.00  0.00    -0.122 A  
HETATM    7  C   UNL     1      -7.393  13.088  68.141  1.00  0.00    -0.118 A  
HETATM    8  C   UNL     1      -5.955  12.966  70.094  1.00  0.00    -0.136 A  
BRANCH   4   9
HETATM    9  O   UNL     1      -7.249  16.377  69.868  1.00  0.00     0.066 OA 
HETATM   10  C   UNL     1      -6.919  17.379  68.917  1.00  0.00    -0.244 C  
ENDBRANCH   4   9
BRANCH   7  11
HETATM   11  C   UNL     1      -8.201  12.411  67.035  1.00  0.00    -0.141 C  
BRANCH  11  12
HETATM   12  C   UNL     1      -9.580  12.079  67.621  1.00  0.00    -0.188 C  
BRANCH  12  13
HETATM   13  N   UNL     1      -9.951  10.740  68.091  1.00  0.00    -0.157 NA 
HETATM   14  C   UNL     1     -10.862  10.775  69.234  1.00  0.00    -0.242 C  
BRANCH  13  15
HETATM   15  C   UNL     1     -10.513   9.902  66.999  1.00  0.00    -0.230 C  
BRANCH  15  16
HETATM   16  C   UNL     1      -9.808   8.576  66.574  1.00  0.00    -0.342 C  
BRANCH  16  17
HETATM   17  C   UNL     1      -9.982   7.399  67.561  1.00  0.00    -0.225 C  
BRANCH  17  18
HETATM   18  C   UNL     1      -8.749   6.539  67.956  1.00  0.00    -0.116 C  
HETATM   19  N   UNL     1      -8.478   4.727  66.019  1.00  0.00    -0.115 NA 
HETATM   20  C   UNL     1      -7.405   7.414  67.930  1.00  0.00    -0.093 C  
HETATM   21  C   UNL     1      -8.588   5.507  66.873  1.00  0.00    -0.110 C  
HETATM   22  C   UNL     1      -7.329   8.579  68.930  1.00  0.00    -0.086 C  
HETATM   23  C   UNL     1      -7.102   8.024  66.545  1.00  0.00    -0.075 C  
BRANCH  18  24
HETATM   24  C   UNL     1      -9.043   5.907  69.321  1.00  0.00    -0.128 A  
HETATM   25  C   UNL     1      -8.305   6.249  70.467  1.00  0.00    -0.129 A  
HETATM   26  C   UNL     1      -8.434   5.545  71.669  1.00  0.00    -0.131 A  
HETATM   27  C   UNL     1      -9.965   4.851  69.436  1.00  0.00    -0.282 A  
HETATM   28  C   UNL     1      -9.354   4.486  71.745  1.00  0.00    -0.142 A  
HETATM   29  C   UNL     1     -10.128   4.168  70.635  1.00  0.00    -0.078 A  
BRANCH  26  30
HETATM   30  O   UNL     1      -7.689   5.805  72.790  1.00  0.00    -0.096 OA 
HETATM   31  C   UNL     1      -6.350   5.323  72.809  1.00  0.00    -0.047 C  
ENDBRANCH  26  30
BRANCH  28  32
HETATM   32  O   UNL     1      -9.404   3.797  72.934  1.00  0.00    -0.104 OA 
HETATM   33  C   UNL     1     -10.560   3.997  73.738  1.00  0.00    -0.216 C  
ENDBRANCH  28  32
ENDBRANCH  18  24
ENDBRANCH  17  18
ENDBRANCH  16  17
ENDBRANCH  15  16
ENDBRANCH  13  15
ENDBRANCH  12  13
ENDBRANCH  11  12
ENDBRANCH   7  11
ENDBRANCH   2   3
TORSDOF 12
ENDMDL
MODEL      342
REMARK 921   NORMALIZED FREE ENERGY PREDICTED BY IDOCK:   -1.54 KCAL/MOL
REMARK 922        TOTAL FREE ENERGY PREDICTED BY IDOCK:   -4.84 KCAL/MOL
REMARK 923 INTER-LIGAND FREE ENERGY PREDICTED BY IDOCK:   -4.52 KCAL/MOL
REMARK 924 INTRA-LIGAND FREE ENERGY PREDICTED BY IDOCK:   -0.32 KCAL/MOL
REMARK 927      BINDING AFFINITY PREDICTED BY RF-SCORE:    0.00 PKD
ROOT
HETATM    1  C   UNL     1     -11.856  15.493  64.249  1.00  0.00    -0.173 C  
HETATM    2  O   UNL     1     -12.568  14.380  64.782  1.00  0.00    -0.598 OA 
ENDROOT
BRANCH   2   3
HETATM    3  C   UNL     1     -11.824  13.257  65.055  1.00  0.00    -0.352 A  
HETATM    4  C   UNL     1     -11.308  12.867  66.301  1.00  0.00    -0.323 A  
HETATM    5  C   UNL     1     -10.732  11.348  64.010  1.00  0.00    -0.450 A  
HETATM    6  C   UNL     1     -10.515  11.708  66.381  1.00  0.00    -0.283 A  
HETATM    7  C   UNL     1     -10.224  10.936  65.248  1.00  0.00    -0.351 A  
HETATM    8  C   UNL     1     -11.519  12.501  63.917  1.00  0.00    -0.507 A  
BRANCH   4   9
HETATM    9  O   UNL     1     -11.559  13.674  67.379  1.00  0.00    -0.317 OA 
HETATM   10  C   UNL     1     -10.583  14.650  67.716  1.00  0.00    -0.251 C  
ENDBRANCH   4   9
BRANCH   7  11
HETATM   11  C   UNL     1      -9.224   9.785  65.356  1.00  0.00    -0.282 C  
BRANCH  11  12
HETATM   12  C   UNL     1      -9.644   8.934  66.562  1.00  0.00    -0.232 C  
BRANCH  12  13
HETATM   13  N   UNL     1      -9.703   7.469  66.528  1.00  0.00    -0.193 NA 
HETATM   14  C   UNL     1      -8.426   6.860  66.158  1.00  0.00    -0.136 C  
BRANCH  13  15
HETATM   15  C   UNL     1     -10.201   6.902  67.810  1.00  0.00    -0.180 C  
BRANCH  15  16
HETATM   16  C   UNL     1      -9.201   6.377  68.887  1.00  0.00    -0.128 C  
BRANCH  16  17
HETATM   17  C   UNL     1      -9.037   7.287  70.125  1.00  0.00    -0.148 C  
BRANCH  17  18
HETATM   18  C   UNL     1      -7.613   7.703  70.591  1.00  0.00    -0.080 C  
HETATM   19  N   UNL     1      -7.973   9.664  72.361  1.00  0.00     1.281 NA 
HETATM   20  C   UNL     1      -6.899   6.512  71.393  1.00  0.00    -0.063 C  
HETATM   21  C   UNL     1      -7.801   8.814  71.587  1.00  0.00    -0.076 C  
HETATM   22  C   UNL     1      -6.625   5.223  70.602  1.00  0.00    -0.038 C  
HETATM   23  C   UNL     1      -7.675   6.077  72.655  1.00  0.00    -0.100 C  
BRANCH  18  24
HETATM   24  C   UNL     1      -6.836   8.159  69.351  1.00  0.00    -0.043 A  
HETATM   25  C   UNL     1      -6.879   9.490  68.901  1.00  0.00    -0.055 A  
HETATM   26  C   UNL     1      -6.333   9.874  67.672  1.00  0.00    -0.059 A  
HETATM   27  C   UNL     1      -6.173   7.221  68.539  1.00  0.00    -0.035 A  
HETATM   28  C   UNL     1      -5.691   8.910  66.877  1.00  0.00    -0.045 A  
HETATM   29  C   UNL     1      -5.595   7.599  67.332  1.00  0.00    -0.035 A  
BRANCH  26  30
HETATM   30  O   UNL     1      -6.410  11.147  67.167  1.00  0.00    -0.066 OA 
HETATM   31  C   UNL     1      -5.471  12.098  67.655  1.00  0.00    -0.093 C  
ENDBRANCH  26  30
BRANCH  28  32
HETATM   32  O   UNL     1      -5.217   9.331  65.658  1.00  0.00    -0.038 OA 
HETATM   33  C   UNL     1      -6.121   9.257  64.561  1.00  0.00    -0.072 C  
ENDBRANCH  28  32
ENDBRANCH  18  24
ENDBRANCH  17  18
ENDBRANCH  16  17
ENDBRANCH  15  16
ENDBRANCH  13  15
ENDBRANCH  12  13
ENDBRANCH  11  12
ENDBRANCH   7  11
ENDBRANCH   2   3
TORSDOF 12
ENDMDL
MODEL      343
REMARK 921   NORMALIZED FREE ENERGY PREDICTED BY IDOCK:   -1.49 KCAL/MOL
REMARK 922        TOTAL FREE ENERGY PREDICTED BY IDOCK:   -4.75 KCAL/MOL
REMARK 923 INTER-LIGAND FREE ENERGY PREDICTED BY IDOCK:   -5.11 KCAL/MOL
REMARK 924 INTRA-LIGAND FREE ENERGY PREDICTED BY IDOCK:    0.36 KCAL/MOL
REMARK 927      BINDING AFFINITY PREDICTED BY RF-SCORE:    0.00 PKD
ROOT
HETATM    1  C   UNL     1      -5.470  18.559  65.371  1.00  0.00    -0.187 C  
HETATM    2  O   UNL     1      -6.203  18.398  66.581  1.00  0.00    -0.164 OA 
ENDROOT
BRANCH   2   3
HETATM    3  C   UNL     1      -7.134  17.387  66.599  1.00  0.00    -0.240 A  
HETATM    4  C   UNL     1      -8.528  17.521  66.500  1.00  0.00    -0.268 A  
HETATM    5  C   UNL     1      -7.391  14.986  66.906  1.00  0.00     0.259 A  
HETATM    6  C   UNL     1      -9.334  16.372  66.596  1.00  0.00    -0.282 A  
HETATM    7  C   UNL     1      -8.781  15.099  66.792  1.00  0.00    -0.307 A  
HETATM    8  C   UNL     1      -6.579  16.121  66.817  1.00  0.00     0.085 A  
BRANCH   4   9
HETATM    9  O   UNL     1      -9.043  18.783  66.369  1.00  0.00    -0.315 OA 
HETATM   10  C   UNL     1      -9.187  19.564  67.547  1.00  0.00    -0.315 C  
ENDBRANCH   4   9
BRANCH   7  11
HETATM   11  C   UNL     1      -9.703  13.910  67.058  1.00  0.00    -0.250 C  
BRANCH  11  12
HETATM   12  C   UNL     1      -8.921  12.641  66.693  1.00  0.00    -0.164 C  
BRANCH  12  13
HETATM   13  N   UNL     1      -9.563  11.347  66.440  1.00  0.00    -0.200 NA 
HETATM   14  C   UNL     1      -9.985  11.188  65.049  1.00  0.00    -0.273 C  
BRANCH  13  15
HETATM   15  C   UNL     1      -8.704  10.208  66.860  1.00  0.00    -0.129 C  
BRANCH  15  16
HETATM   16  C   UNL     1      -9.313   9.003  67.644  1.00  0.00    -0.154 C  
BRANCH  16  17
HETATM   17  C   UNL     1      -9.589   7.743  66.792  1.00  0.00    -0.274 C  
BRANCH  17  18
HETATM   18  C   UNL     1      -8.846   6.417  67.119  1.00  0.00    -0.113 C  
HETATM   19  N   UNL     1     -10.295   4.480  65.998  1.00  0.00    -0.269 NA 
HETATM   20  C   UNL     1      -7.414   6.367  66.399  1.00  0.00    -0.086 C  
HETATM   21  C   UNL     1      -9.657   5.313  66.496  1.00  0.00    -0.156 C  
HETATM   22  C   UNL     1      -6.394   7.433  66.833  1.00  0.00    -0.048 C  
HETATM   23  C   UNL     1      -7.502   6.466  64.861  1.00  0.00    -0.085 C  
BRANCH  18  24
HETATM   24  C   UNL     1      -8.770   6.292  68.645  1.00  0.00    -0.120 A  
HETATM   25  C   UNL     1      -7.563   6.474  69.341  1.00  0.00    -0.096 A  
HETATM   26  C   UNL     1      -7.441   6.177  70.702  1.00  0.00    -0.087 A  
HETATM   27  C   UNL     1      -9.882   5.843  69.380  1.00  0.00    -0.207 A  
HETATM   28  C   UNL     1      -8.567   5.715  71.405  1.00  0.00    -0.132 A  
HETATM   29  C   UNL     1      -9.782   5.578  70.742  1.00  0.00    -0.232 A  
BRANCH  26  30
HETATM   30  O   UNL     1      -6.268   6.279  71.404  1.00  0.00    -0.038 OA 
HETATM   31  C   UNL     1      -5.862   5.146  72.164  1.00  0.00    -0.021 C  
ENDBRANCH  26  30
BRANCH  28  32
HETATM   32  O   UNL     1      -8.379   5.390  72.727  1.00  0.00    -0.112 OA 
HETATM   33  C   UNL     1      -9.329   5.905  73.652  1.00  0.00    -0.134 C  
ENDBRANCH  28  32
ENDBRANCH  18  24
ENDBRANCH  17  18
ENDBRANCH  16  17
ENDBRANCH  15  16
ENDBRANCH  13  15
ENDBRANCH  12  13
ENDBRANCH  11  12
ENDBRANCH   7  11
ENDBRANCH   2   3
TORSDOF 12
ENDMDL
MODEL      344
REMARK 921   NORMALIZED FREE ENERGY PREDICTED BY IDOCK:   -1.46 KCAL/MOL
REMARK 922        TOTAL FREE ENERGY PREDICTED BY IDOCK:   -4.70 KCAL/MOL
REMARK 923 INTER-LIGAND FREE ENERGY PREDICTED BY IDOCK:   -5.79 KCAL/MOL
REMARK 924 INTRA-LIGAND FREE ENERGY PREDICTED BY IDOCK:    1.09 KCAL/MOL
REMARK 927      BINDING AFFINITY PREDICTED BY RF-SCORE:    0.00 PKD
ROOT
HETATM    1  C   UNL     1     -12.040  16.256  70.297  1.00  0.00     0.226 C  
HETATM    2  O   UNL     1     -11.229  16.091  69.138  1.00  0.00    -0.298 OA 
ENDROOT
BRANCH   2   3
HETATM    3  C   UNL     1     -10.913  14.799  68.795  1.00  0.00    -0.259 A  
HETATM    4  C   UNL     1     -11.596  13.632  69.175  1.00  0.00    -0.309 A  
HETATM    5  C   UNL     1      -9.243  13.443  67.654  1.00  0.00    -0.212 A  
HETATM    6  C   UNL     1     -11.091  12.382  68.775  1.00  0.00    -0.307 A  
HETATM    7  C   UNL     1      -9.921  12.272  68.010  1.00  0.00    -0.202 A  
HETATM    8  C   UNL     1      -9.733  14.692  68.049  1.00  0.00    -0.216 A  
BRANCH   4   9
HETATM    9  O   UNL     1     -12.701  13.768  69.973  1.00  0.00    -0.213 OA 
HETATM   10  C   UNL     1     -12.614  13.295  71.310  1.00  0.00    -0.308 C  
ENDBRANCH   4   9
BRANCH   7  11
HETATM   11  C   UNL     1      -9.322  10.891  67.744  1.00  0.00    -0.162 C  
BRANCH  11  12
HETATM   12  C   UNL     1     -10.447  10.010  67.187  1.00  0.00    -0.244 C  
BRANCH  12  13
HETATM   13  N   UNL     1     -10.556   8.574  67.466  1.00  0.00    -0.247 NA 
HETATM   14  C   UNL     1      -9.573   7.780  66.730  1.00  0.00    -0.212 C  
BRANCH  13  15
HETATM   15  C   UNL     1     -10.480   8.283  68.922  1.00  0.00    -0.191 C  
BRANCH  15  16
HETATM   16  C   UNL     1     -10.922   6.892  69.477  1.00  0.00    -0.289 C  
BRANCH  16  17
HETATM   17  C   UNL     1     -10.816   6.738  71.011  1.00  0.00    -0.280 C  
BRANCH  17  18
HETATM   18  C   UNL     1      -9.452   6.357  71.652  1.00  0.00    -0.160 C  
HETATM   19  N   UNL     1      -8.426   8.637  72.581  1.00  0.00    -0.411 NA 
HETATM   20  C   UNL     1      -9.659   5.415  72.933  1.00  0.00    -0.158 C  
HETATM   21  C   UNL     1      -8.858   7.637  72.176  1.00  0.00    -0.125 C  
HETATM   22  C   UNL     1     -10.297   4.040  72.674  1.00  0.00    -0.229 C  
HETATM   23  C   UNL     1     -10.509   6.073  74.042  1.00  0.00    -0.272 C  
BRANCH  18  24
HETATM   24  C   UNL     1      -8.586   5.722  70.558  1.00  0.00    -0.138 A  
HETATM   25  C   UNL     1      -9.032   4.615  69.815  1.00  0.00    -0.140 A  
HETATM   26  C   UNL     1      -8.183   3.912  68.953  1.00  0.00    -0.073 A  
HETATM   27  C   UNL     1      -7.256   6.137  70.368  1.00  0.00    -0.086 A  
HETATM   28  C   UNL     1      -6.855   4.344  68.798  1.00  0.00    -0.050 A  
HETATM   29  C   UNL     1      -6.414   5.468  69.487  1.00  0.00    -0.042 A  
BRANCH  26  30
HETATM   30  O   UNL     1      -8.559   2.790  68.259  1.00  0.00    -0.077 OA 
HETATM   31  C   UNL     1      -8.061   1.540  68.723  1.00  0.00    -0.048 C  
ENDBRANCH  26  30
BRANCH  28  32
HETATM   32  O   UNL     1      -6.053   3.587  67.978  1.00  0.00    -0.030 OA 
HETATM   33  C   UNL     1      -6.197   3.792  66.578  1.00  0.00    -0.032 C  
ENDBRANCH  28  32
ENDBRANCH  18  24
ENDBRANCH  17  18
ENDBRANCH  16  17
ENDBRANCH  15  16
ENDBRANCH  13  15
ENDBRANCH  12  13
ENDBRANCH  11  12
ENDBRANCH   7  11
ENDBRANCH   2   3
TORSDOF 12
ENDMDL
MODEL      345
REMARK 921   NORMALIZED FREE ENERGY PREDICTED BY IDOCK:   -1.45 KCAL/MOL
REMARK 922        TOTAL FREE ENERGY PREDICTED BY IDOCK:   -4.69 KCAL/MOL
REMARK 923 INTER-LIGAND FREE ENERGY PREDICTED BY IDOCK:   -4.90 KCAL/MOL
REMARK 924 INTRA-LIGAND FREE ENERGY PREDICTED BY IDOCK:    0.20 KCAL/MOL
REMARK 927      BINDING AFFINITY PREDICTED BY RF-SCORE:    0.00 PKD
ROOT
HETATM    1  C   UNL     1     -10.398  19.022  68.010  1.00  0.00    -0.394 C  
HETATM    2  O   UNL     1      -9.436  18.296  68.769  1.00  0.00    -0.319 OA 
ENDROOT
BRANCH   2   3
HETATM    3  C   UNL     1      -9.110  17.046  68.300  1.00  0.00    -0.241 A  
HETATM    4  C   UNL     1      -8.091  16.723  67.389  1.00  0.00    -0.170 A  
HETATM    5  C   UNL     1      -9.806  14.713  68.341  1.00  0.00    -0.220 A  
HETATM    6  C   UNL     1      -7.940  15.387  66.977  1.00  0.00    -0.259 A  
HETATM    7  C   UNL     1      -8.784  14.371  67.447  1.00  0.00    -0.214 A  
HETATM    8  C   UNL     1      -9.969  16.039  68.756  1.00  0.00    -0.224 A  
BRANCH   4   9
HETATM    9  O   UNL     1      -7.321  17.745  66.901  1.00  0.00    -0.182 OA 
HETATM   10  C   UNL     1      -6.178  17.403  66.131  1.00  0.00    -0.169 C  
ENDBRANCH   4   9
BRANCH   7  11
HETATM   11  C   UNL     1      -8.688  12.971  66.843  1.00  0.00    -0.158 C  
BRANCH  11  12
HETATM   12  C   UNL     1      -7.589  12.223  67.609  1.00  0.00    -0.144 C  
BRANCH  12  13
HETATM   13  N   UNL     1      -7.839  11.000  68.379  1.00  0.00    -0.119 NA 
HETATM   14  C   UNL     1      -9.056  11.078  69.185  1.00  0.00     0.010 C  
BRANCH  13  15
HETATM   15  C   UNL     1      -7.862   9.791  67.513  1.00  0.00    -0.095 C  
BRANCH  15  16
HETATM   16  C   UNL     1      -7.862   8.363  68.144  1.00  0.00    -0.111 C  
BRANCH  16  17
HETATM   17  C   UNL     1      -9.257   7.822  68.534  1.00  0.00    -0.137 C  
BRANCH  17  18
HETATM   18  C   UNL     1      -9.375   6.442  69.240  1.00  0.00    -0.138 C  
HETATM   19  N   UNL     1     -11.972   6.105  69.740  1.00  0.00     0.269 NA 
HETATM   20  C   UNL     1      -8.960   5.251  68.250  1.00  0.00    -0.116 C  
HETATM   21  C   UNL     1     -10.837   6.241  69.534  1.00  0.00    -0.340 C  
HETATM   22  C   UNL     1      -7.503   5.247  67.759  1.00  0.00    -0.076 C  
HETATM   23  C   UNL     1      -9.835   5.182  66.979  1.00  0.00    -0.197 C  
BRANCH  18  24
HETATM   24  C   UNL     1      -8.529   6.501  70.517  1.00  0.00    -0.138 A  
HETATM   25  C   UNL     1      -9.058   6.147  71.770  1.00  0.00    -0.145 A  
HETATM   26  C   UNL     1      -8.360   6.377  72.960  1.00  0.00    -0.116 A  
HETATM   27  C   UNL     1      -7.237   7.056  70.492  1.00  0.00    -0.068 A  
HETATM   28  C   UNL     1      -7.078   6.948  72.901  1.00  0.00    -0.074 A  
HETATM   29  C   UNL     1      -6.519   7.257  71.666  1.00  0.00    -0.040 A  
BRANCH  26  30
HETATM   30  O   UNL     1      -8.865   6.106  74.206  1.00  0.00    -0.125 OA 
HETATM   31  C   UNL     1     -10.270   6.246  74.383  1.00  0.00    -0.321 C  
ENDBRANCH  26  30
BRANCH  28  32
HETATM   32  O   UNL     1      -6.459   7.198  74.103  1.00  0.00    -0.077 OA 
HETATM   33  C   UNL     1      -5.326   6.396  74.416  1.00  0.00    -0.049 C  
ENDBRANCH  28  32
ENDBRANCH  18  24
ENDBRANCH  17  18
ENDBRANCH  16  17
ENDBRANCH  15  16
ENDBRANCH  13  15
ENDBRANCH  12  13
ENDBRANCH  11  12
ENDBRANCH   7  11
ENDBRANCH   2   3
TORSDOF 12
ENDMDL
MODEL      346
REMARK 921   NORMALIZED FREE ENERGY PREDICTED BY IDOCK:   -1.37 KCAL/MOL
REMARK 922        TOTAL FREE ENERGY PREDICTED BY IDOCK:   -4.56 KCAL/MOL
REMARK 923 INTER-LIGAND FREE ENERGY PREDICTED BY IDOCK:   -3.08 KCAL/MOL
REMARK 924 INTRA-LIGAND FREE ENERGY PREDICTED BY IDOCK:   -1.48 KCAL/MOL
REMARK 927      BINDING AFFINITY PREDICTED BY RF-SCORE:    0.00 PKD
ROOT
HETATM    1  C   UNL     1     -13.138  12.984  64.641  1.00  0.00     0.086 C  
HETATM    2  O   UNL     1     -12.314  12.275  65.561  1.00  0.00    -0.602 OA 
ENDROOT
BRANCH   2   3
HETATM    3  C   UNL     1     -11.108  11.828  65.078  1.00  0.00    -0.284 A  
HETATM    4  C   UNL     1     -10.198  12.544  64.283  1.00  0.00    -0.333 A  
HETATM    5  C   UNL     1      -9.684   9.859  64.925  1.00  0.00    -0.332 A  
HETATM    6  C   UNL     1      -9.032  11.902  63.830  1.00  0.00     0.545 A  
HETATM    7  C   UNL     1      -8.758  10.563  64.147  1.00  0.00    -0.180 A  
HETATM    8  C   UNL     1     -10.849  10.486  65.379  1.00  0.00     0.100 A  
BRANCH   4   9
HETATM    9  O   UNL     1     -10.522  13.830  63.940  1.00  0.00    -0.018 OA 
HETATM   10  C   UNL     1     -10.189  14.863  64.857  1.00  0.00    -0.251 C  
ENDBRANCH   4   9
BRANCH   7  11
HETATM   11  C   UNL     1      -7.568   9.863  63.493  1.00  0.00    -0.143 C  
BRANCH  11  12
HETATM   12  C   UNL     1      -7.023   8.853  64.512  1.00  0.00    -0.085 C  
BRANCH  12  13
HETATM   13  N   UNL     1      -5.965   9.176  65.475  1.00  0.00    -0.054 NA 
HETATM   14  C   UNL     1      -5.137  10.303  65.049  1.00  0.00    -0.086 C  
BRANCH  13  15
HETATM   15  C   UNL     1      -6.509   9.413  66.839  1.00  0.00    -0.067 C  
BRANCH  15  16
HETATM   16  C   UNL     1      -6.863   8.212  67.771  1.00  0.00    -0.073 C  
BRANCH  16  17
HETATM   17  C   UNL     1      -8.372   8.025  68.051  1.00  0.00    -0.126 C  
BRANCH  17  18
HETATM   18  C   UNL     1      -8.918   8.235  69.491  1.00  0.00    -0.150 C  
HETATM   19  N   UNL     1      -7.354  10.091  70.595  1.00  0.00    -0.306 NA 
HETATM   20  C   UNL     1     -10.393   8.864  69.462  1.00  0.00    -0.213 C  
HETATM   21  C   UNL     1      -8.040   9.277  70.129  1.00  0.00    -0.145 C  
HETATM   22  C   UNL     1     -11.490   8.003  68.815  1.00  0.00     0.926 C  
HETATM   23  C   UNL     1     -10.457  10.234  68.753  1.00  0.00    -0.222 C  
BRANCH  18  24
HETATM   24  C   UNL     1      -8.840   6.887  70.217  1.00  0.00    -0.148 A  
HETATM   25  C   UNL     1      -8.443   6.795  71.562  1.00  0.00    -0.119 A  
HETATM   26  C   UNL     1      -8.185   5.565  72.175  1.00  0.00    -0.112 A  
HETATM   27  C   UNL     1      -9.021   5.684  69.511  1.00  0.00    -0.129 A  
HETATM   28  C   UNL     1      -8.361   4.382  71.437  1.00  0.00    -0.092 A  
HETATM   29  C   UNL     1      -8.803   4.454  70.120  1.00  0.00    -0.126 A  
BRANCH  26  30
HETATM   30  O   UNL     1      -7.736   5.433  73.464  1.00  0.00    -0.095 OA 
HETATM   31  C   UNL     1      -8.351   6.249  74.455  1.00  0.00    -0.126 C  
ENDBRANCH  26  30
BRANCH  28  32
HETATM   32  O   UNL     1      -8.045   3.205  72.073  1.00  0.00    -0.060 OA 
HETATM   33  C   UNL     1      -8.678   2.028  71.586  1.00  0.00    -0.063 C  
ENDBRANCH  28  32
ENDBRANCH  18  24
ENDBRANCH  17  18
ENDBRANCH  16  17
ENDBRANCH  15  16
ENDBRANCH  13  15
ENDBRANCH  12  13
ENDBRANCH  11  12
ENDBRANCH   7  11
ENDBRANCH   2   3
TORSDOF 12
ENDMDL
MODEL      347
REMARK 921   NORMALIZED FREE ENERGY PREDICTED BY IDOCK:   -1.37 KCAL/MOL
REMARK 922        TOTAL FREE ENERGY PREDICTED BY IDOCK:   -4.55 KCAL/MOL
REMARK 923 INTER-LIGAND FREE ENERGY PREDICTED BY IDOCK:   -5.81 KCAL/MOL
REMARK 924 INTRA-LIGAND FREE ENERGY PREDICTED BY IDOCK:    1.26 KCAL/MOL
REMARK 927      BINDING AFFINITY PREDICTED BY RF-SCORE:    0.00 PKD
ROOT
HETATM    1  C   UNL     1     -12.127  11.020  70.629  1.00  0.00    -0.373 C  
HETATM    2  O   UNL     1     -12.997  12.147  70.626  1.00  0.00    -0.006 OA 
ENDROOT
BRANCH   2   3
HETATM    3  C   UNL     1     -12.398  13.377  70.503  1.00  0.00    -0.329 A  
HETATM    4  C   UNL     1     -12.908  14.613  70.934  1.00  0.00    -0.365 A  
HETATM    5  C   UNL     1     -10.470  14.514  69.544  1.00  0.00    -0.080 A  
HETATM    6  C   UNL     1     -12.177  15.785  70.670  1.00  0.00    -0.422 A  
HETATM    7  C   UNL     1     -10.956  15.751  69.982  1.00  0.00    -0.344 A  
HETATM    8  C   UNL     1     -11.190  13.342  69.797  1.00  0.00    -0.029 A  
BRANCH   4   9
HETATM    9  O   UNL     1     -14.132  14.620  71.549  1.00  0.00    -0.410 OA 
HETATM   10  C   UNL     1     -14.411  15.679  72.455  1.00  0.00    -0.332 C  
ENDBRANCH   4   9
BRANCH   7  11
HETATM   11  C   UNL     1     -10.286  17.062  69.573  1.00  0.00    -0.106 C  
BRANCH  11  12
HETATM   12  C   UNL     1      -9.838  16.904  68.114  1.00  0.00    -0.264 C  
BRANCH  12  13
HETATM   13  N   UNL     1     -10.776  16.721  67.002  1.00  0.00    -0.223 NA 
HETATM   14  C   UNL     1     -10.436  17.534  65.836  1.00  0.00    -0.249 C  
BRANCH  13  15
HETATM   15  C   UNL     1     -10.914  15.290  66.621  1.00  0.00    -0.297 C  
BRANCH  15  16
HETATM   16  C   UNL     1     -12.312  14.698  66.256  1.00  0.00    -0.085 C  
BRANCH  16  17
HETATM   17  C   UNL     1     -12.385  13.154  66.248  1.00  0.00    -0.346 C  
BRANCH  17  18
HETATM   18  C   UNL     1     -11.692  12.359  65.106  1.00  0.00    -0.430 C  
HETATM   19  N   UNL     1     -13.661  11.475  63.540  1.00  0.00     0.129 NA 
HETATM   20  C   UNL     1     -10.801  13.326  64.189  1.00  0.00    -0.369 C  
HETATM   21  C   UNL     1     -12.793  11.849  64.217  1.00  0.00     0.011 C  
HETATM   22  C   UNL     1      -9.614  14.019  64.877  1.00  0.00     0.483 C  
HETATM   23  C   UNL     1     -11.618  14.453  63.519  1.00  0.00     0.844 C  
BRANCH  18  24
HETATM   24  C   UNL     1     -10.894  11.221  65.753  1.00  0.00    -0.257 A  
HETATM   25  C   UNL     1     -10.037  10.400  65.000  1.00  0.00    -0.379 A  
HETATM   26  C   UNL     1      -9.455   9.247  65.537  1.00  0.00    -0.240 A  
HETATM   27  C   UNL     1     -11.112  10.870  67.097  1.00  0.00    -0.308 A  
HETATM   28  C   UNL     1      -9.705   8.916  66.879  1.00  0.00    -0.202 A  
HETATM   29  C   UNL     1     -10.510   9.747  67.652  1.00  0.00    -0.305 A  
BRANCH  26  30
HETATM   30  O   UNL     1      -8.665   8.385  64.820  1.00  0.00    -0.110 OA 
HETATM   31  C   UNL     1      -7.949   8.925  63.714  1.00  0.00    -0.154 C  
ENDBRANCH  26  30
BRANCH  28  32
HETATM   32  O   UNL     1      -9.149   7.747  67.340  1.00  0.00    -0.125 OA 
HETATM   33  C   UNL     1      -9.407   7.411  68.698  1.00  0.00    -0.139 C  
ENDBRANCH  28  32
ENDBRANCH  18  24
ENDBRANCH  17  18
ENDBRANCH  16  17
ENDBRANCH  15  16
ENDBRANCH  13  15
ENDBRANCH  12  13
ENDBRANCH  11  12
ENDBRANCH   7  11
ENDBRANCH   2   3
TORSDOF 12
ENDMDL
MODEL      348
REMARK 921   NORMALIZED FREE ENERGY PREDICTED BY IDOCK:   -1.35 KCAL/MOL
REMARK 922        TOTAL FREE ENERGY PREDICTED BY IDOCK:   -4.52 KCAL/MOL
REMARK 923 INTER-LIGAND FREE ENERGY PREDICTED BY IDOCK:   -5.27 KCAL/MOL
REMARK 924 INTRA-LIGAND FREE ENERGY PREDICTED BY IDOCK:    0.75 KCAL/MOL
REMARK 927      BINDING AFFINITY PREDICTED BY RF-SCORE:    0.00 PKD
ROOT
HETATM    1  C   UNL     1      -6.385  19.332  64.080  1.00  0.00     0.501 C  
HETATM    2  O   UNL     1      -6.160  18.971  65.439  1.00  0.00    -0.206 OA 
ENDROOT
BRANCH   2   3
HETATM    3  C   UNL     1      -7.175  18.286  66.062  1.00  0.00    -0.263 A  
HETATM    4  C   UNL     1      -8.487  18.736  66.286  1.00  0.00    -0.241 A  
HETATM    5  C   UNL     1      -7.677  16.236  67.277  1.00  0.00    -0.210 A  
HETATM    6  C   UNL     1      -9.380  17.916  66.997  1.00  0.00    -0.267 A  
HETATM    7  C   UNL     1      -8.993  16.663  67.493  1.00  0.00    -0.204 A  
HETATM    8  C   UNL     1      -6.778  17.045  66.574  1.00  0.00    -0.267 A  
BRANCH   4   9
HETATM    9  O   UNL     1      -8.817  19.989  65.843  1.00  0.00    -0.310 OA 
HETATM   10  C   UNL     1     -10.197  20.305  65.723  1.00  0.00    -0.165 C  
ENDBRANCH   4   9
BRANCH   7  11
HETATM   11  C   UNL     1      -9.945  15.885  68.401  1.00  0.00    -0.222 C  
BRANCH  11  12
HETATM   12  C   UNL     1     -10.145  14.502  67.768  1.00  0.00    -0.225 C  
BRANCH  12  13
HETATM   13  N   UNL     1     -11.132  13.532  68.254  1.00  0.00    -0.249 NA 
HETATM   14  C   UNL     1     -12.340  13.495  67.432  1.00  0.00    -0.087 C  
BRANCH  13  15
HETATM   15  C   UNL     1     -10.551  12.169  68.392  1.00  0.00    -0.226 C  
BRANCH  15  16
HETATM   16  C   UNL     1      -9.019  11.937  68.196  1.00  0.00    -0.185 C  
BRANCH  16  17
HETATM   17  C   UNL     1      -8.384  10.918  69.169  1.00  0.00    -0.077 C  
BRANCH  17  18
HETATM   18  C   UNL     1      -8.455   9.400  68.846  1.00  0.00    -0.122 C  
HETATM   19  N   UNL     1      -6.238   8.335  69.877  1.00  0.00    -0.032 NA 
HETATM   20  C   UNL     1      -9.676   8.703  69.617  1.00  0.00    -0.179 C  
HETATM   21  C   UNL     1      -7.205   8.786  69.417  1.00  0.00    -0.061 C  
HETATM   22  C   UNL     1     -11.086   9.187  69.241  1.00  0.00     0.001 C  
HETATM   23  C   UNL     1      -9.580   8.831  71.152  1.00  0.00    -0.309 C  
BRANCH  18  24
HETATM   24  C   UNL     1      -8.528   9.253  67.322  1.00  0.00    -0.125 A  
HETATM   25  C   UNL     1      -7.466   8.708  66.580  1.00  0.00    -0.089 A  
HETATM   26  C   UNL     1      -7.443   8.746  65.182  1.00  0.00    -0.090 A  
HETATM   27  C   UNL     1      -9.606   9.801  66.603  1.00  0.00    -0.239 A  
HETATM   28  C   UNL     1      -8.529   9.314  64.495  1.00  0.00    -0.181 A  
HETATM   29  C   UNL     1      -9.611   9.811  65.213  1.00  0.00    -0.368 A  
BRANCH  26  30
HETATM   30  O   UNL     1      -6.399   8.283  64.423  1.00  0.00    -0.064 OA 
HETATM   31  C   UNL     1      -5.138   8.921  64.593  1.00  0.00    -0.038 C  
ENDBRANCH  26  30
BRANCH  28  32
HETATM   32  O   UNL     1      -8.431   9.369  63.125  1.00  0.00    -0.178 OA 
HETATM   33  C   UNL     1      -9.333  10.242  62.456  1.00  0.00    -0.296 C  
ENDBRANCH  28  32
ENDBRANCH  18  24
ENDBRANCH  17  18
ENDBRANCH  16  17
ENDBRANCH  15  16
ENDBRANCH  13  15
ENDBRANCH  12  13
ENDBRANCH  11  12
ENDBRANCH   7  11
ENDBRANCH   2   3
TORSDOF 12
ENDMDL
MODEL      349
REMARK 921   NORMALIZED FREE ENERGY PREDICTED BY IDOCK:   -1.30 KCAL/MOL
REMARK 922        TOTAL FREE ENERGY PREDICTED BY IDOCK:   -4.43 KCAL/MOL
REMARK 923 INTER-LIGAND FREE ENERGY PREDICTED BY IDOCK:   -3.88 KCAL/MOL
REMARK 924 INTRA-LIGAND FREE ENERGY PREDICTED BY IDOCK:   -0.55 KCAL/MOL
REMARK 927      BINDING AFFINITY PREDICTED BY RF-SCORE:    0.00 PKD
ROOT
HETATM    1  C   UNL     1      -8.375  13.122  66.134  1.00  0.00     1.024 C  
HETATM    2  O   UNL     1      -9.785  12.955  66.242  1.00  0.00    -0.267 OA 
ENDROOT
BRANCH   2   3
HETATM    3  C   UNL     1     -10.281  12.769  67.510  1.00  0.00    -0.216 A  
HETATM    4  C   UNL     1      -9.810  11.866  68.478  1.00  0.00    -0.183 A  
HETATM    5  C   UNL     1     -12.079  13.433  69.012  1.00  0.00    -0.299 A  
HETATM    6  C   UNL     1     -10.482  11.772  69.709  1.00  0.00     0.605 A  
HETATM    7  C   UNL     1     -11.612  12.551  69.993  1.00  0.00    -0.207 A  
HETATM    8  C   UNL     1     -11.421  13.534  67.781  1.00  0.00    -0.349 A  
BRANCH   4   9
HETATM    9  O   UNL     1      -8.741  11.075  68.149  1.00  0.00    -0.130 OA 
HETATM   10  C   UNL     1      -8.985   9.694  67.924  1.00  0.00    -0.118 C  
ENDBRANCH   4   9
BRANCH   7  11
HETATM   11  C   UNL     1     -12.404  12.292  71.274  1.00  0.00    -0.161 C  
BRANCH  11  12
HETATM   12  C   UNL     1     -13.038  10.901  71.140  1.00  0.00    -0.257 C  
BRANCH  12  13
HETATM   13  N   UNL     1     -12.506   9.709  71.808  1.00  0.00    -0.389 NA 
HETATM   14  C   UNL     1     -13.553   8.881  72.404  1.00  0.00    -0.447 C  
BRANCH  13  15
HETATM   15  C   UNL     1     -11.650   8.898  70.901  1.00  0.00    -0.283 C  
BRANCH  15  16
HETATM   16  C   UNL     1     -10.689   7.812  71.479  1.00  0.00    -0.255 C  
BRANCH  16  17
HETATM   17  C   UNL     1      -9.212   8.249  71.610  1.00  0.00    -0.245 C  
BRANCH  17  18
HETATM   18  C   UNL     1      -8.117   7.182  71.889  1.00  0.00    -0.097 C  
HETATM   19  N   UNL     1      -5.820   8.274  71.089  1.00  0.00    -0.033 NA 
HETATM   20  C   UNL     1      -7.955   6.920  73.463  1.00  0.00    -0.109 C  
HETATM   21  C   UNL     1      -6.814   7.784  71.436  1.00  0.00    -0.049 C  
HETATM   22  C   UNL     1      -9.178   6.336  74.188  1.00  0.00    -0.164 C  
HETATM   23  C   UNL     1      -7.559   8.187  74.253  1.00  0.00    -0.262 C  
BRANCH  18  24
HETATM   24  C   UNL     1      -8.483   5.924  71.093  1.00  0.00    -0.124 A  
HETATM   25  C   UNL     1      -8.613   4.670  71.714  1.00  0.00    -0.129 A  
HETATM   26  C   UNL     1      -8.756   3.490  70.976  1.00  0.00    -0.074 A  
HETATM   27  C   UNL     1      -8.552   5.962  69.689  1.00  0.00    -0.121 A  
HETATM   28  C   UNL     1      -8.806   3.561  69.574  1.00  0.00    -0.090 A  
HETATM   29  C   UNL     1      -8.730   4.800  68.947  1.00  0.00    -0.107 A  
BRANCH  26  30
HETATM   30  O   UNL     1      -8.823   2.241  71.539  1.00  0.00    -0.066 OA 
HETATM   31  C   UNL     1     -10.087   1.819  72.039  1.00  0.00    -0.152 C  
ENDBRANCH  26  30
BRANCH  28  32
HETATM   32  O   UNL     1      -8.898   2.368  68.898  1.00  0.00    -0.076 OA 
HETATM   33  C   UNL     1      -7.732   1.935  68.207  1.00  0.00    -0.053 C  
ENDBRANCH  28  32
ENDBRANCH  18  24
ENDBRANCH  17  18
ENDBRANCH  16  17
ENDBRANCH  15  16
ENDBRANCH  13  15
ENDBRANCH  12  13
ENDBRANCH  11  12
ENDBRANCH   7  11
ENDBRANCH   2   3
TORSDOF 12
ENDMDL
MODEL      350
REMARK 921   NORMALIZED FREE ENERGY PREDICTED BY IDOCK:   -1.18 KCAL/MOL
REMARK 922        TOTAL FREE ENERGY PREDICTED BY IDOCK:   -4.23 KCAL/MOL
REMARK 923 INTER-LIGAND FREE ENERGY PREDICTED BY IDOCK:   -3.02 KCAL/MOL
REMARK 924 INTRA-LIGAND FREE ENERGY PREDICTED BY IDOCK:   -1.21 KCAL/MOL
REMARK 927      BINDING AFFINITY PREDICTED BY RF-SCORE:    0.00 PKD
ROOT
HETATM    1  C   UNL     1      -5.214  13.588  71.627  1.00  0.00    -0.192 C  
HETATM    2  O   UNL     1      -5.208  14.381  70.444  1.00  0.00    -0.095 OA 
ENDROOT
BRANCH   2   3
HETATM    3  C   UNL     1      -5.840  13.843  69.349  1.00  0.00    -0.093 A  
HETATM    4  C   UNL     1      -6.618  14.528  68.401  1.00  0.00    -0.103 A  
HETATM    5  C   UNL     1      -6.344  11.738  68.233  1.00  0.00    -0.050 A  
HETATM    6  C   UNL     1      -7.240  13.800  67.371  1.00  0.00    -0.107 A  
HETATM    7  C   UNL     1      -7.108  12.408  67.271  1.00  0.00    -0.128 A  
HETATM    8  C   UNL     1      -5.723  12.451  69.265  1.00  0.00    -0.079 A  
BRANCH   4   9
HETATM    9  O   UNL     1      -6.778  15.879  68.560  1.00  0.00    -0.118 OA 
HETATM   10  C   UNL     1      -8.081  16.417  68.383  1.00  0.00    -0.188 C  
ENDBRANCH   4   9
BRANCH   7  11
HETATM   11  C   UNL     1      -7.937  11.645  66.238  1.00  0.00     0.082 C  
BRANCH  11  12
HETATM   12  C   UNL     1      -9.341  11.465  66.830  1.00  0.00    -0.181 C  
BRANCH  12  13
HETATM   13  N   UNL     1      -9.783  10.229  67.485  1.00  0.00    -0.166 NA 
HETATM   14  C   UNL     1     -10.790  10.465  68.517  1.00  0.00    -0.237 C  
BRANCH  13  15
HETATM   15  C   UNL     1     -10.266   9.221  66.503  1.00  0.00    -0.246 C  
BRANCH  15  16
HETATM   16  C   UNL     1      -9.487   7.885  66.291  1.00  0.00    -0.220 C  
BRANCH  16  17
HETATM   17  C   UNL     1      -8.768   7.341  67.546  1.00  0.00    -0.121 C  
BRANCH  17  18
HETATM   18  C   UNL     1      -7.255   6.991  67.473  1.00  0.00    -0.090 C  
HETATM   19  N   UNL     1      -6.146   8.884  65.957  1.00  0.00    -0.052 NA 
HETATM   20  C   UNL     1      -6.563   7.120  68.914  1.00  0.00    -0.048 C  
HETATM   21  C   UNL     1      -6.617   8.049  66.614  1.00  0.00    -0.056 C  
HETATM   22  C   UNL     1      -7.071   6.163  70.004  1.00  0.00    -0.072 C  
HETATM   23  C   UNL     1      -6.667   8.540  69.514  1.00  0.00    -0.041 C  
BRANCH  18  24
HETATM   24  C   UNL     1      -7.133   5.592  66.858  1.00  0.00    -0.070 A  
HETATM   25  C   UNL     1      -7.233   4.430  67.641  1.00  0.00    -0.068 A  
HETATM   26  C   UNL     1      -6.934   3.163  67.129  1.00  0.00    -0.050 A  
HETATM   27  C   UNL     1      -6.766   5.435  65.509  1.00  0.00    -0.041 A  
HETATM   28  C   UNL     1      -6.555   3.043  65.781  1.00  0.00    -0.036 A  
HETATM   29  C   UNL     1      -6.501   4.177  64.979  1.00  0.00    -0.035 A  
BRANCH  26  30
HETATM   30  O   UNL     1      -6.958   2.013  67.875  1.00  0.00    -0.041 OA 
HETATM   31  C   UNL     1      -8.008   1.874  68.825  1.00  0.00    -0.048 C  
ENDBRANCH  26  30
BRANCH  28  32
HETATM   32  O   UNL     1      -6.225   1.782  65.344  1.00  0.00    -0.021 OA 
HETATM   33  C   UNL     1      -5.875   1.655  63.971  1.00  0.00    -0.009 C  
ENDBRANCH  28  32
ENDBRANCH  18  24
ENDBRANCH  17  18
ENDBRANCH  16  17
ENDBRANCH  15  16
ENDBRANCH  13  15
ENDBRANCH  12  13
ENDBRANCH  11  12
ENDBRANCH   7  11
ENDBRANCH   2   3
TORSDOF 12
ENDMDL
MODEL      351
REMARK 921   NORMALIZED FREE ENERGY PREDICTED BY IDOCK:   -1.05 KCAL/MOL
REMARK 922        TOTAL FREE ENERGY PREDICTED BY IDOCK:   -4.01 KCAL/MOL
REMARK 923 INTER-LIGAND FREE ENERGY PREDICTED BY IDOCK:   -3.95 KCAL/MOL
REMARK 924 INTRA-LIGAND FREE ENERGY PREDICTED BY IDOCK:   -0.06 KCAL/MOL
REMARK 927      BINDING AFFINITY PREDICTED BY RF-SCORE:    0.00 PKD
ROOT
HETATM    1  C   UNL     1      -5.324  13.347  71.050  1.00  0.00    -0.182 C  
HETATM    2  O   UNL     1      -6.103  12.217  70.671  1.00  0.00    -0.269 OA 
ENDROOT
BRANCH   2   3
HETATM    3  C   UNL     1      -6.088  11.887  69.337  1.00  0.00    -0.096 A  
HETATM    4  C   UNL     1      -6.868  12.455  68.317  1.00  0.00    -0.080 A  
HETATM    5  C   UNL     1      -5.139  10.320  67.733  1.00  0.00    -0.030 A  
HETATM    6  C   UNL     1      -6.760  11.948  67.010  1.00  0.00    -0.119 A  
HETATM    7  C   UNL     1      -5.897  10.886  66.701  1.00  0.00    -0.096 A  
HETATM    8  C   UNL     1      -5.241  10.813  69.038  1.00  0.00    -0.041 A  
BRANCH   4   9
HETATM    9  O   UNL     1      -7.745  13.449  68.660  1.00  0.00    -0.130 OA 
HETATM   10  C   UNL     1      -8.111  14.384  67.655  1.00  0.00    -0.177 C  
ENDBRANCH   4   9
BRANCH   7  11
HETATM   11  C   UNL     1      -5.939  10.262  65.307  1.00  0.00    -0.127 C  
BRANCH  11  12
HETATM   12  C   UNL     1      -6.334   8.790  65.483  1.00  0.00    -0.062 C  
BRANCH  12  13
HETATM   13  N   UNL     1      -7.628   8.249  65.055  1.00  0.00    -0.089 NA 
HETATM   14  C   UNL     1      -8.418   9.212  64.291  1.00  0.00    -0.187 C  
BRANCH  13  15
HETATM   15  C   UNL     1      -7.476   6.978  64.297  1.00  0.00    -0.098 C  
BRANCH  15  16
HETATM   16  C   UNL     1      -7.877   5.615  64.946  1.00  0.00    -0.110 C  
BRANCH  16  17
HETATM   17  C   UNL     1      -7.950   5.623  66.490  1.00  0.00    -0.101 C  
BRANCH  17  18
HETATM   18  C   UNL     1      -9.139   4.924  67.206  1.00  0.00    -0.122 C  
HETATM   19  N   UNL     1     -11.229   6.551  66.895  1.00  0.00    -0.308 NA 
HETATM   20  C   UNL     1      -9.533   3.557  66.467  1.00  0.00    -0.172 C  
HETATM   21  C   UNL     1     -10.325   5.836  67.043  1.00  0.00    -0.250 C  
HETATM   22  C   UNL     1      -8.462   2.454  66.453  1.00  0.00    -0.100 C  
HETATM   23  C   UNL     1      -9.952   3.759  64.994  1.00  0.00    -0.152 C  
BRANCH  18  24
HETATM   24  C   UNL     1      -8.748   4.736  68.676  1.00  0.00    -0.111 A  
HETATM   25  C   UNL     1      -7.948   5.672  69.353  1.00  0.00    -0.099 A  
HETATM   26  C   UNL     1      -7.430   5.419  70.627  1.00  0.00    -0.079 A  
HETATM   27  C   UNL     1      -9.058   3.540  69.349  1.00  0.00    -0.200 A  
HETATM   28  C   UNL     1      -7.745   4.208  71.266  1.00  0.00    -0.070 A  
HETATM   29  C   UNL     1      -8.578   3.293  70.630  1.00  0.00    -0.116 A  
BRANCH  26  30
HETATM   30  O   UNL     1      -6.594   6.277  71.296  1.00  0.00    -0.048 OA 
HETATM   31  C   UNL     1      -7.152   7.502  71.756  1.00  0.00    -0.063 C  
ENDBRANCH  26  30
BRANCH  28  32
HETATM   32  O   UNL     1      -7.169   3.990  72.494  1.00  0.00    -0.054 OA 
HETATM   33  C   UNL     1      -5.763   3.772  72.510  1.00  0.00    -0.008 C  
ENDBRANCH  28  32
ENDBRANCH  18  24
ENDBRANCH  17  18
ENDBRANCH  16  17
ENDBRANCH  15  16
ENDBRANCH  13  15
ENDBRANCH  12  13
ENDBRANCH  11  12
ENDBRANCH   7  11
ENDBRANCH   2   3
TORSDOF 12
ENDMDL
MODEL      352
REMARK 921   NORMALIZED FREE ENERGY PREDICTED BY IDOCK:   -1.03 KCAL/MOL
REMARK 922        TOTAL FREE ENERGY PREDICTED BY IDOCK:   -3.97 KCAL/MOL
REMARK 923 INTER-LIGAND FREE ENERGY PREDICTED BY IDOCK:   -4.46 KCAL/MOL
REMARK 924 INTRA-LIGAND FREE ENERGY PREDICTED BY IDOCK:    0.49 KCAL/MOL
REMARK 927      BINDING AFFINITY PREDICTED BY RF-SCORE:    0.00 PKD
ROOT
HETATM    1  C   UNL     1     -12.458   1.469  72.634  1.00  0.00     0.978 C  
HETATM    2  O   UNL     1     -11.751   2.382  73.467  1.00  0.00    -0.201 OA 
ENDROOT
BRANCH   2   3
HETATM    3  C   UNL     1     -11.257   3.508  72.853  1.00  0.00     0.177 A  
HETATM    4  C   UNL     1     -10.093   3.605  72.073  1.00  0.00    -0.129 A  
HETATM    5  C   UNL     1     -11.605   5.908  72.623  1.00  0.00    -0.289 A  
HETATM    6  C   UNL     1      -9.710   4.861  71.569  1.00  0.00    -0.233 A  
HETATM    7  C   UNL     1     -10.457   6.018  71.830  1.00  0.00    -0.268 A  
HETATM    8  C   UNL     1     -11.995   4.665  73.133  1.00  0.00     0.028 A  
BRANCH   4   9
HETATM    9  O   UNL     1      -9.352   2.469  71.887  1.00  0.00    -0.087 OA 
HETATM   10  C   UNL     1      -8.585   1.992  72.983  1.00  0.00    -0.062 C  
ENDBRANCH   4   9
BRANCH   7  11
HETATM   11  C   UNL     1      -9.910   7.380  71.404  1.00  0.00    -0.194 C  
BRANCH  11  12
HETATM   12  C   UNL     1      -8.381   7.308  71.513  1.00  0.00    -0.109 C  
BRANCH  12  13
HETATM   13  N   UNL     1      -7.479   8.163  70.735  1.00  0.00    -0.063 NA 
HETATM   14  C   UNL     1      -6.226   7.495  70.388  1.00  0.00    -0.034 C  
BRANCH  13  15
HETATM   15  C   UNL     1      -8.139   8.705  69.517  1.00  0.00    -0.110 C  
BRANCH  15  16
HETATM   16  C   UNL     1      -7.718  10.092  68.937  1.00  0.00    -0.089 C  
BRANCH  16  17
HETATM   17  C   UNL     1      -8.006  10.284  67.431  1.00  0.00    -0.107 C  
BRANCH  17  18
HETATM   18  C   UNL     1      -9.342  10.940  66.982  1.00  0.00    -0.180 C  
HETATM   19  N   UNL     1      -9.715  10.166  64.457  1.00  0.00    -0.312 NA 
HETATM   20  C   UNL     1     -10.581  10.348  67.810  1.00  0.00    -0.294 C  
HETATM   21  C   UNL     1      -9.562  10.516  65.555  1.00  0.00    -0.230 C  
HETATM   22  C   UNL     1     -10.577  10.610  69.325  1.00  0.00    -0.263 C  
HETATM   23  C   UNL     1     -10.751   8.822  67.645  1.00  0.00    -0.206 C  
BRANCH  18  24
HETATM   24  C   UNL     1      -9.182  12.458  67.118  1.00  0.00    -0.199 A  
HETATM   25  C   UNL     1      -8.367  13.028  68.111  1.00  0.00    -0.164 A  
HETATM   26  C   UNL     1      -8.363  14.403  68.367  1.00  0.00    -0.155 A  
HETATM   27  C   UNL     1      -9.969  13.331  66.345  1.00  0.00    -0.288 A  
HETATM   28  C   UNL     1      -9.172  15.246  67.587  1.00  0.00    -0.187 A  
HETATM   29  C   UNL     1      -9.946  14.703  66.567  1.00  0.00    -0.292 A  
BRANCH  26  30
HETATM   30  O   UNL     1      -7.632  14.992  69.366  1.00  0.00    -0.181 OA 
HETATM   31  C   UNL     1      -6.531  14.256  69.888  1.00  0.00    -0.137 C  
ENDBRANCH  26  30
BRANCH  28  32
HETATM   32  O   UNL     1      -9.168  16.581  67.913  1.00  0.00    -0.208 OA 
HETATM   33  C   UNL     1     -10.412  17.266  67.818  1.00  0.00    -0.371 C  
ENDBRANCH  28  32
ENDBRANCH  18  24
ENDBRANCH  17  18
ENDBRANCH  16  17
ENDBRANCH  15  16
ENDBRANCH  13  15
ENDBRANCH  12  13
ENDBRANCH  11  12
ENDBRANCH   7  11
ENDBRANCH   2   3
TORSDOF 12
ENDMDL
MODEL      353
REMARK 921   NORMALIZED FREE ENERGY PREDICTED BY IDOCK:   -0.92 KCAL/MOL
REMARK 922        TOTAL FREE ENERGY PREDICTED BY IDOCK:   -3.78 KCAL/MOL
REMARK 923 INTER-LIGAND FREE ENERGY PREDICTED BY IDOCK:   -5.68 KCAL/MOL
REMARK 924 INTRA-LIGAND FREE ENERGY PREDICTED BY IDOCK:    1.89 KCAL/MOL
REMARK 927      BINDING AFFINITY PREDICTED BY RF-SCORE:    0.00 PKD
ROOT
HETATM    1  C   UNL     1     -10.601  15.969  65.596  1.00  0.00    -0.377 C  
HETATM    2  O   UNL     1     -10.814  14.767  64.863  1.00  0.00    -0.389 OA 
ENDROOT
BRANCH   2   3
HETATM    3  C   UNL     1     -10.650  13.593  65.558  1.00  0.00    -0.296 A  
HETATM    4  C   UNL     1     -10.587  12.296  65.023  1.00  0.00    -0.287 A  
HETATM    5  C   UNL     1     -10.510  12.669  67.806  1.00  0.00    -0.228 A  
HETATM    6  C   UNL     1     -10.474  11.201  65.898  1.00  0.00    -0.310 A  
HETATM    7  C   UNL     1     -10.428  11.370  67.289  1.00  0.00    -0.241 A  
HETATM    8  C   UNL     1     -10.626  13.766  66.946  1.00  0.00    -0.276 A  
BRANCH   4   9
HETATM    9  O   UNL     1     -10.695  12.157  63.665  1.00  0.00    -0.388 OA 
HETATM   10  C   UNL     1     -11.963  11.796  63.136  1.00  0.00    -0.106 C  
ENDBRANCH   4   9
BRANCH   7  11
HETATM   11  C   UNL     1     -10.475  10.144  68.200  1.00  0.00    -0.243 C  
BRANCH  11  12
HETATM   12  C   UNL     1     -11.072  10.598  69.538  1.00  0.00    -0.274 C  
BRANCH  12  13
HETATM   13  N   UNL     1     -10.942   9.826  70.778  1.00  0.00    -0.315 NA 
HETATM   14  C   UNL     1     -12.104   9.964  71.654  1.00  0.00    -0.373 C  
BRANCH  13  15
HETATM   15  C   UNL     1     -10.654   8.391  70.513  1.00  0.00    -0.216 C  
BRANCH  15  16
HETATM   16  C   UNL     1      -9.720   7.975  69.333  1.00  0.00    -0.170 C  
BRANCH  16  17
HETATM   17  C   UNL     1      -8.309   8.605  69.364  1.00  0.00    -0.114 C  
BRANCH  17  18
HETATM   18  C   UNL     1      -7.136   7.896  68.631  1.00  0.00    -0.076 C  
HETATM   19  N   UNL     1      -6.799   9.226  66.345  1.00  0.00    -0.082 NA 
HETATM   20  C   UNL     1      -5.763   8.064  69.443  1.00  0.00    -0.027 C  
HETATM   21  C   UNL     1      -6.939   8.634  67.335  1.00  0.00    -0.078 C  
HETATM   22  C   UNL     1      -5.714   7.425  70.841  1.00  0.00    -0.031 C  
HETATM   23  C   UNL     1      -5.347   9.538  69.637  1.00  0.00    -0.034 C  
BRANCH  18  24
HETATM   24  C   UNL     1      -7.542   6.434  68.411  1.00  0.00    -0.100 A  
HETATM   25  C   UNL     1      -7.266   5.439  69.365  1.00  0.00    -0.065 A  
HETATM   26  C   UNL     1      -7.458   4.081  69.095  1.00  0.00    -0.054 A  
HETATM   27  C   UNL     1      -8.072   6.019  67.176  1.00  0.00    -0.106 A  
HETATM   28  C   UNL     1      -7.975   3.698  67.845  1.00  0.00    -0.080 A  
HETATM   29  C   UNL     1      -8.302   4.674  66.910  1.00  0.00    -0.106 A  
BRANCH  26  30
HETATM   30  O   UNL     1      -7.143   3.076  69.973  1.00  0.00    -0.040 OA 
HETATM   31  C   UNL     1      -7.543   3.245  71.328  1.00  0.00    -0.047 C  
ENDBRANCH  26  30
BRANCH  28  32
HETATM   32  O   UNL     1      -8.097   2.349  67.615  1.00  0.00    -0.063 OA 
HETATM   33  C   UNL     1      -8.808   1.596  68.591  1.00  0.00    -0.087 C  
ENDBRANCH  28  32
ENDBRANCH  18  24
ENDBRANCH  17  18
ENDBRANCH  16  17
ENDBRANCH  15  16
ENDBRANCH  13  15
ENDBRANCH  12  13
ENDBRANCH  11  12
ENDBRANCH   7  11
ENDBRANCH   2   3
TORSDOF 12
ENDMDL
MODEL      354
REMARK 921   NORMALIZED FREE ENERGY PREDICTED BY IDOCK:   -0.91 KCAL/MOL
REMARK 922        TOTAL FREE ENERGY PREDICTED BY IDOCK:   -3.77 KCAL/MOL
REMARK 923 INTER-LIGAND FREE ENERGY PREDICTED BY IDOCK:   -4.68 KCAL/MOL
REMARK 924 INTRA-LIGAND FREE ENERGY PREDICTED BY IDOCK:    0.92 KCAL/MOL
REMARK 927      BINDING AFFINITY PREDICTED BY RF-SCORE:    0.00 PKD
ROOT
HETATM    1  C   UNL     1      -5.586  18.851  67.612  1.00  0.00    -0.174 C  
HETATM    2  O   UNL     1      -6.676  18.457  68.440  1.00  0.00    -0.217 OA 
ENDROOT
BRANCH   2   3
HETATM    3  C   UNL     1      -6.760  17.118  68.738  1.00  0.00    -0.200 A  
HETATM    4  C   UNL     1      -6.150  16.452  69.814  1.00  0.00    -0.212 A  
HETATM    5  C   UNL     1      -7.627  14.995  67.920  1.00  0.00    -0.150 A  
HETATM    6  C   UNL     1      -6.301  15.059  69.929  1.00  0.00    -0.162 A  
HETATM    7  C   UNL     1      -7.040  14.318  68.996  1.00  0.00    -0.116 A  
HETATM    8  C   UNL     1      -7.481  16.380  67.792  1.00  0.00    -0.158 A  
BRANCH   4   9
HETATM    9  O   UNL     1      -5.386  17.193  70.675  1.00  0.00    -0.240 OA 
HETATM   10  C   UNL     1      -5.380  16.817  72.045  1.00  0.00     0.811 C  
ENDBRANCH   4   9
BRANCH   7  11
HETATM   11  C   UNL     1      -7.034  12.791  69.070  1.00  0.00    -0.059 C  
BRANCH  11  12
HETATM   12  C   UNL     1      -5.676  12.318  68.535  1.00  0.00    -0.053 C  
BRANCH  12  13
HETATM   13  N   UNL     1      -5.522  11.158  67.651  1.00  0.00    -0.040 NA 
HETATM   14  C   UNL     1      -5.983   9.915  68.265  1.00  0.00    -0.042 C  
BRANCH  13  15
HETATM   15  C   UNL     1      -6.183  11.369  66.336  1.00  0.00    -0.066 C  
BRANCH  15  16
HETATM   16  C   UNL     1      -7.734  11.256  66.201  1.00  0.00     0.004 C  
BRANCH  16  17
HETATM   17  C   UNL     1      -8.434  10.481  67.340  1.00  0.00    -0.122 C  
BRANCH  17  18
HETATM   18  C   UNL     1      -9.733   9.682  67.040  1.00  0.00    -0.232 C  
HETATM   19  N   UNL     1     -11.735  11.423  67.317  1.00  0.00    -0.583 NA 
HETATM   20  C   UNL     1      -9.775   9.204  65.510  1.00  0.00    -0.171 C  
HETATM   21  C   UNL     1     -10.873  10.652  67.199  1.00  0.00    -0.270 C  
HETATM   22  C   UNL     1      -8.676   8.223  65.070  1.00  0.00    -0.048 C  
HETATM   23  C   UNL     1      -9.726  10.374  64.505  1.00  0.00    -0.393 C  
BRANCH  18  24
HETATM   24  C   UNL     1      -9.810   8.527  68.046  1.00  0.00    -0.202 A  
HETATM   25  C   UNL     1      -9.140   8.578  69.280  1.00  0.00    -0.153 A  
HETATM   26  C   UNL     1      -9.045   7.461  70.117  1.00  0.00    -0.148 A  
HETATM   27  C   UNL     1     -10.434   7.317  67.696  1.00  0.00    -0.310 A  
HETATM   28  C   UNL     1      -9.667   6.262  69.731  1.00  0.00    -0.160 A  
HETATM   29  C   UNL     1     -10.378   6.211  68.537  1.00  0.00    -0.248 A  
BRANCH  26  30
HETATM   30  O   UNL     1      -8.348   7.449  71.298  1.00  0.00    -0.108 OA 
HETATM   31  C   UNL     1      -8.589   8.517  72.208  1.00  0.00    -0.165 C  
ENDBRANCH  26  30
BRANCH  28  32
HETATM   32  O   UNL     1      -9.500   5.184  70.567  1.00  0.00    -0.153 OA 
HETATM   33  C   UNL     1      -9.173   3.944  69.951  1.00  0.00    -0.144 C  
ENDBRANCH  28  32
ENDBRANCH  18  24
ENDBRANCH  17  18
ENDBRANCH  16  17
ENDBRANCH  15  16
ENDBRANCH  13  15
ENDBRANCH  12  13
ENDBRANCH  11  12
ENDBRANCH   7  11
ENDBRANCH   2   3
TORSDOF 12
ENDMDL
MODEL      355
REMARK 921   NORMALIZED FREE ENERGY PREDICTED BY IDOCK:   -0.89 KCAL/MOL
REMARK 922        TOTAL FREE ENERGY PREDICTED BY IDOCK:   -3.73 KCAL/MOL
REMARK 923 INTER-LIGAND FREE ENERGY PREDICTED BY IDOCK:   -5.51 KCAL/MOL
REMARK 924 INTRA-LIGAND FREE ENERGY PREDICTED BY IDOCK:    1.78 KCAL/MOL
REMARK 927      BINDING AFFINITY PREDICTED BY RF-SCORE:    0.00 PKD
ROOT
HETATM    1  C   UNL     1      -5.276  18.334  67.932  1.00  0.00    -0.157 C  
HETATM    2  O   UNL     1      -6.341  17.954  68.798  1.00  0.00    -0.200 OA 
ENDROOT
BRANCH   2   3
HETATM    3  C   UNL     1      -6.446  16.613  69.081  1.00  0.00    -0.200 A  
HETATM    4  C   UNL     1      -5.875  15.932  70.169  1.00  0.00    -0.157 A  
HETATM    5  C   UNL     1      -7.305  14.505  68.218  1.00  0.00    -0.120 A  
HETATM    6  C   UNL     1      -6.042  14.539  70.267  1.00  0.00    -0.170 A  
HETATM    7  C   UNL     1      -6.757  13.813  69.305  1.00  0.00    -0.101 A  
HETATM    8  C   UNL     1      -7.143  15.890  68.107  1.00  0.00    -0.125 A  
BRANCH   4   9
HETATM    9  O   UNL     1      -5.131  16.658  71.060  1.00  0.00    -0.222 OA 
HETATM   10  C   UNL     1      -5.404  18.048  71.172  1.00  0.00    -0.150 C  
ENDBRANCH   4   9
BRANCH   7  11
HETATM   11  C   UNL     1      -6.767  12.286  69.365  1.00  0.00    -0.043 C  
BRANCH  11  12
HETATM   12  C   UNL     1      -5.394  11.806  68.877  1.00  0.00    -0.050 C  
BRANCH  12  13
HETATM   13  N   UNL     1      -5.223  10.811  67.814  1.00  0.00    -0.040 NA 
HETATM   14  C   UNL     1      -5.334   9.438  68.302  1.00  0.00    -0.037 C  
BRANCH  13  15
HETATM   15  C   UNL     1      -6.159  11.042  66.681  1.00  0.00    -0.124 C  
BRANCH  15  16
HETATM   16  C   UNL     1      -7.701  11.072  66.919  1.00  0.00    -0.140 C  
BRANCH  16  17
HETATM   17  C   UNL     1      -8.319   9.729  67.369  1.00  0.00    -0.114 C  
BRANCH  17  18
HETATM   18  C   UNL     1      -9.671   9.263  66.760  1.00  0.00    -0.260 C  
HETATM   19  N   UNL     1     -11.555  10.099  68.452  1.00  0.00    -0.136 NA 
HETATM   20  C   UNL     1      -9.965  10.010  65.372  1.00  0.00    -0.364 C  
HETATM   21  C   UNL     1     -10.744   9.724  67.709  1.00  0.00    -0.272 C  
HETATM   22  C   UNL     1      -8.976   9.738  64.227  1.00  0.00    -0.276 C  
HETATM   23  C   UNL     1     -10.040  11.546  65.510  1.00  0.00    -0.286 C  
BRANCH  18  24
HETATM   24  C   UNL     1      -9.622   7.736  66.636  1.00  0.00    -0.286 A  
HETATM   25  C   UNL     1      -8.477   7.070  66.166  1.00  0.00    -0.136 A  
HETATM   26  C   UNL     1      -8.485   5.703  65.869  1.00  0.00    -0.136 A  
HETATM   27  C   UNL     1     -10.779   6.965  66.848  1.00  0.00    -0.386 A  
HETATM   28  C   UNL     1      -9.662   4.965  66.078  1.00  0.00    -0.188 A  
HETATM   29  C   UNL     1     -10.789   5.599  66.591  1.00  0.00    -0.280 A  
BRANCH  26  30
HETATM   30  O   UNL     1      -7.410   5.028  65.350  1.00  0.00    -0.070 OA 
HETATM   31  C   UNL     1      -6.114   5.500  65.701  1.00  0.00    -0.029 C  
ENDBRANCH  26  30
BRANCH  28  32
HETATM   32  O   UNL     1      -9.629   3.638  65.722  1.00  0.00    -0.176 OA 
HETATM   33  C   UNL     1      -9.274   2.712  66.743  1.00  0.00    -0.083 C  
ENDBRANCH  28  32
ENDBRANCH  18  24
ENDBRANCH  17  18
ENDBRANCH  16  17
ENDBRANCH  15  16
ENDBRANCH  13  15
ENDBRANCH  12  13
ENDBRANCH  11  12
ENDBRANCH   7  11
ENDBRANCH   2   3
TORSDOF 12
ENDMDL
MODEL      356
REMARK 921   NORMALIZED FREE ENERGY PREDICTED BY IDOCK:   -0.58 KCAL/MOL
REMARK 922        TOTAL FREE ENERGY PREDICTED BY IDOCK:   -3.20 KCAL/MOL
REMARK 923 INTER-LIGAND FREE ENERGY PREDICTED BY IDOCK:   -3.39 KCAL/MOL
REMARK 924 INTRA-LIGAND FREE ENERGY PREDICTED BY IDOCK:    0.19 KCAL/MOL
REMARK 927      BINDING AFFINITY PREDICTED BY RF-SCORE:    0.00 PKD
ROOT
HETATM    1  C   UNL     1      -7.389  12.888  69.691  1.00  0.00     0.653 C  
HETATM    2  O   UNL     1      -6.393  12.187  70.429  1.00  0.00    -0.146 OA 
ENDROOT
BRANCH   2   3
HETATM    3  C   UNL     1      -6.016  10.963  69.931  1.00  0.00    -0.089 A  
HETATM    4  C   UNL     1      -5.895  10.600  68.579  1.00  0.00    -0.040 A  
HETATM    5  C   UNL     1      -5.473   8.681  70.586  1.00  0.00    -0.027 A  
HETATM    6  C   UNL     1      -5.550   9.276  68.254  1.00  0.00    -0.038 A  
HETATM    7  C   UNL     1      -5.331   8.308  69.245  1.00  0.00    -0.031 A  
HETATM    8  C   UNL     1      -5.819   9.995  70.922  1.00  0.00    -0.088 A  
BRANCH   4   9
HETATM    9  O   UNL     1      -6.174  11.551  67.634  1.00  0.00    -0.053 OA 
HETATM   10  C   UNL     1      -5.924  11.225  66.274  1.00  0.00    -0.100 C  
ENDBRANCH   4   9
BRANCH   7  11
HETATM   11  C   UNL     1      -5.126   6.849  68.840  1.00  0.00    -0.013 C  
BRANCH  11  12
HETATM   12  C   UNL     1      -5.859   6.642  67.508  1.00  0.00    -0.016 C  
BRANCH  12  13
HETATM   13  N   UNL     1      -6.592   5.416  67.177  1.00  0.00    -0.052 NA 
HETATM   14  C   UNL     1      -7.406   4.927  68.288  1.00  0.00    -0.066 C  
BRANCH  13  15
HETATM   15  C   UNL     1      -7.420   5.576  65.952  1.00  0.00    -0.082 C  
BRANCH  15  16
HETATM   16  C   UNL     1      -8.444   6.748  65.834  1.00  0.00    -0.146 C  
BRANCH  16  17
HETATM   17  C   UNL     1      -8.476   7.711  67.043  1.00  0.00    -0.125 C  
BRANCH  17  18
HETATM   18  C   UNL     1      -9.822   8.359  67.473  1.00  0.00    -0.235 C  
HETATM   19  N   UNL     1     -11.706   6.559  66.905  1.00  0.00     0.675 NA 
HETATM   20  C   UNL     1      -9.879   8.568  69.062  1.00  0.00    -0.184 C  
HETATM   21  C   UNL     1     -10.896   7.355  67.152  1.00  0.00    -0.270 C  
HETATM   22  C   UNL     1      -8.842   9.532  69.662  1.00  0.00    -0.196 C  
HETATM   23  C   UNL     1      -9.741   7.250  69.855  1.00  0.00    -0.174 C  
BRANCH  18  24
HETATM   24  C   UNL     1      -9.986   9.659  66.677  1.00  0.00    -0.301 A  
HETATM   25  C   UNL     1      -9.802   9.700  65.284  1.00  0.00    -0.269 A  
HETATM   26  C   UNL     1      -9.761  10.906  64.578  1.00  0.00    -0.282 A  
HETATM   27  C   UNL     1     -10.179  10.883  67.342  1.00  0.00    -0.236 A  
HETATM   28  C   UNL     1      -9.941  12.113  65.275  1.00  0.00    -0.237 A  
HETATM   29  C   UNL     1     -10.175  12.086  66.646  1.00  0.00    -0.229 A  
BRANCH  26  30
HETATM   30  O   UNL     1      -9.521  10.995  63.231  1.00  0.00    -0.261 OA 
HETATM   31  C   UNL     1      -8.214  10.658  62.778  1.00  0.00    -0.147 C  
ENDBRANCH  26  30
BRANCH  28  32
HETATM   32  O   UNL     1      -9.841  13.271  64.540  1.00  0.00    -0.160 OA 
HETATM   33  C   UNL     1     -10.745  14.318  64.873  1.00  0.00    -0.432 C  
ENDBRANCH  28  32
ENDBRANCH  18  24
ENDBRANCH  17  18
ENDBRANCH  16  17
ENDBRANCH  15  16
ENDBRANCH  13  15
ENDBRANCH  12  13
ENDBRANCH  11  12
ENDBRANCH   7  11
ENDBRANCH   2   3
TORSDOF 12
ENDMDL
MODEL      357
REMARK 921   NORMALIZED FREE ENERGY PREDICTED BY IDOCK:   -0.51 KCAL/MOL
REMARK 922        TOTAL FREE ENERGY PREDICTED BY IDOCK:   -3.10 KCAL/MOL
REMARK 923 INTER-LIGAND FREE ENERGY PREDICTED BY IDOCK:   -2.65 KCAL/MOL
REMARK 924 INTRA-LIGAND FREE ENERGY PREDICTED BY IDOCK:   -0.44 KCAL/MOL
REMARK 927      BINDING AFFINITY PREDICTED BY RF-SCORE:    0.00 PKD
ROOT
HETATM    1  C   UNL     1     -10.198   4.121  64.910  1.00  0.00    -0.204 C  
HETATM    2  O   UNL     1     -10.524   5.420  65.394  1.00  0.00     0.281 OA 
ENDROOT
BRANCH   2   3
HETATM    3  C   UNL     1      -9.555   6.054  66.134  1.00  0.00    -0.055 A  
HETATM    4  C   UNL     1      -9.376   7.439  66.282  1.00  0.00    -0.111 A  
HETATM    5  C   UNL     1      -7.557   5.658  67.468  1.00  0.00    -0.089 A  
HETATM    6  C   UNL     1      -8.287   7.911  67.037  1.00  0.00    -0.117 A  
HETATM    7  C   UNL     1      -7.374   7.035  67.640  1.00  0.00    -0.096 A  
HETATM    8  C   UNL     1      -8.634   5.176  66.716  1.00  0.00    -0.109 A  
BRANCH   4   9
HETATM    9  O   UNL     1     -10.248   8.271  65.632  1.00  0.00     0.641 OA 
HETATM   10  C   UNL     1      -9.873   9.632  65.476  1.00  0.00    -0.281 C  
ENDBRANCH   4   9
BRANCH   7  11
HETATM   11  C   UNL     1      -6.117   7.596  68.305  1.00  0.00    -0.036 C  
BRANCH  11  12
HETATM   12  C   UNL     1      -6.380   7.623  69.816  1.00  0.00    -0.031 C  
BRANCH  12  13
HETATM   13  N   UNL     1      -6.289   8.844  70.625  1.00  0.00    -0.040 NA 
HETATM   14  C   UNL     1      -5.172   9.700  70.231  1.00  0.00    -0.028 C  
BRANCH  13  15
HETATM   15  C   UNL     1      -7.563   9.610  70.620  1.00  0.00    -0.078 C  
BRANCH  15  16
HETATM   16  C   UNL     1      -8.929   8.878  70.425  1.00  0.00    -0.207 C  
BRANCH  16  17
HETATM   17  C   UNL     1      -9.393   8.031  71.631  1.00  0.00    -0.208 C  
BRANCH  17  18
HETATM   18  C   UNL     1     -10.804   7.378  71.614  1.00  0.00    -0.246 C  
HETATM   19  N   UNL     1     -12.394   9.054  72.945  1.00  0.00    -0.005 NA 
HETATM   20  C   UNL     1     -11.388   7.309  70.122  1.00  0.00    -0.236 C  
HETATM   21  C   UNL     1     -11.711   8.312  72.368  1.00  0.00    -0.397 C  
HETATM   22  C   UNL     1     -10.609   6.439  69.122  1.00  0.00    -0.305 C  
HETATM   23  C   UNL     1     -11.527   8.697  69.458  1.00  0.00     0.399 C  
BRANCH  18  24
HETATM   24  C   UNL     1     -10.689   6.007  72.291  1.00  0.00    -0.272 A  
HETATM   25  C   UNL     1      -9.541   5.209  72.150  1.00  0.00    -0.189 A  
HETATM   26  C   UNL     1      -9.500   3.885  72.600  1.00  0.00    -0.121 A  
HETATM   27  C   UNL     1     -11.794   5.443  72.952  1.00  0.00    -0.150 A  
HETATM   28  C   UNL     1     -10.627   3.346  73.243  1.00  0.00    -0.187 A  
HETATM   29  C   UNL     1     -11.753   4.141  73.436  1.00  0.00    -0.070 A  
BRANCH  26  30
HETATM   30  O   UNL     1      -8.425   3.052  72.427  1.00  0.00    -0.073 OA 
HETATM   31  C   UNL     1      -8.159   2.599  71.104  1.00  0.00    -0.053 C  
ENDBRANCH  26  30
BRANCH  28  32
HETATM   32  O   UNL     1     -10.550   2.027  73.621  1.00  0.00    -0.108 OA 
HETATM   33  C   UNL     1     -11.678   1.492  74.305  1.00  0.00     0.125 C  
ENDBRANCH  28  32
ENDBRANCH  18  24
ENDBRANCH  17  18
ENDBRANCH  16  17
ENDBRANCH  15  16
ENDBRANCH  13  15
ENDBRANCH  12  13
ENDBRANCH  11  12
ENDBRANCH   7  11
ENDBRANCH   2   3
TORSDOF 12
ENDMDL
MODEL      358
REMARK 921   NORMALIZED FREE ENERGY PREDICTED BY IDOCK:   -0.40 KCAL/MOL
REMARK 922        TOTAL FREE ENERGY PREDICTED BY IDOCK:   -2.91 KCAL/MOL
REMARK 923 INTER-LIGAND FREE ENERGY PREDICTED BY IDOCK:   -3.87 KCAL/MOL
REMARK 924 INTRA-LIGAND FREE ENERGY PREDICTED BY IDOCK:    0.96 KCAL/MOL
REMARK 927      BINDING AFFINITY PREDICTED BY RF-SCORE:    0.00 PKD
ROOT
HETATM    1  C   UNL     1      -7.900  20.249  65.999  1.00  0.00    -0.141 C  
HETATM    2  O   UNL     1      -7.965  20.065  67.410  1.00  0.00    -0.283 OA 
ENDROOT
BRANCH   2   3
HETATM    3  C   UNL     1      -7.685  18.802  67.872  1.00  0.00    -0.256 A  
HETATM    4  C   UNL     1      -6.427  18.294  68.236  1.00  0.00    -0.200 A  
HETATM    5  C   UNL     1      -8.680  16.620  68.291  1.00  0.00    -0.216 A  
HETATM    6  C   UNL     1      -6.320  16.950  68.635  1.00  0.00    -0.161 A  
HETATM    7  C   UNL     1      -7.437  16.103  68.673  1.00  0.00    -0.179 A  
HETATM    8  C   UNL     1      -8.798  17.954  67.889  1.00  0.00    -0.260 A  
BRANCH   4   9
HETATM    9  O   UNL     1      -5.345  19.128  68.130  1.00  0.00    -0.180 OA 
HETATM   10  C   UNL     1      -5.542  20.506  68.416  1.00  0.00    -0.277 C  
ENDBRANCH   4   9
BRANCH   7  11
HETATM   11  C   UNL     1      -7.243  14.613  68.950  1.00  0.00    -0.124 C  
BRANCH  11  12
HETATM   12  C   UNL     1      -6.383  14.050  67.810  1.00  0.00    -0.159 C  
BRANCH  12  13
HETATM   13  N   UNL     1      -5.911  12.662  67.771  1.00  0.00    -0.111 NA 
HETATM   14  C   UNL     1      -5.604  12.132  69.098  1.00  0.00    -0.066 C  
BRANCH  13  15
HETATM   15  C   UNL     1      -6.865  11.770  67.059  1.00  0.00    -0.137 C  
BRANCH  15  16
HETATM   16  C   UNL     1      -8.122  11.205  67.793  1.00  0.00    -0.117 C  
BRANCH  16  17
HETATM   17  C   UNL     1      -8.075   9.690  68.096  1.00  0.00    -0.105 C  
BRANCH  17  18
HETATM   18  C   UNL     1      -8.908   8.707  67.227  1.00  0.00    -0.141 C  
HETATM   19  N   UNL     1     -11.424   8.938  68.081  1.00  0.00     0.790 NA 
HETATM   20  C   UNL     1      -8.922   9.166  65.690  1.00  0.00    -0.249 C  
HETATM   21  C   UNL     1     -10.331   8.823  67.703  1.00  0.00    -0.254 C  
HETATM   22  C   UNL     1      -7.565   9.177  64.968  1.00  0.00    -0.106 C  
HETATM   23  C   UNL     1      -9.525  10.573  65.481  1.00  0.00    -0.265 C  
BRANCH  18  24
HETATM   24  C   UNL     1      -8.337   7.301  67.441  1.00  0.00    -0.119 A  
HETATM   25  C   UNL     1      -7.635   6.959  68.610  1.00  0.00    -0.105 A  
HETATM   26  C   UNL     1      -6.949   5.747  68.734  1.00  0.00    -0.068 A  
HETATM   27  C   UNL     1      -8.370   6.352  66.404  1.00  0.00    -0.119 A  
HETATM   28  C   UNL     1      -6.989   4.827  67.673  1.00  0.00    -0.061 A  
HETATM   29  C   UNL     1      -7.721   5.128  66.530  1.00  0.00    -0.092 A  
BRANCH  26  30
HETATM   30  O   UNL     1      -6.201   5.402  69.831  1.00  0.00    -0.023 OA 
HETATM   31  C   UNL     1      -6.617   5.916  71.091  1.00  0.00    -0.049 C  
ENDBRANCH  26  30
BRANCH  28  32
HETATM   32  O   UNL     1      -6.256   3.674  67.829  1.00  0.00    -0.031 OA 
HETATM   33  C   UNL     1      -5.146   3.501  66.956  1.00  0.00    -0.008 C  
ENDBRANCH  28  32
ENDBRANCH  18  24
ENDBRANCH  17  18
ENDBRANCH  16  17
ENDBRANCH  15  16
ENDBRANCH  13  15
ENDBRANCH  12  13
ENDBRANCH  11  12
ENDBRANCH   7  11
ENDBRANCH   2   3
TORSDOF 12
ENDMDL
MODEL      359
REMARK 921   NORMALIZED FREE ENERGY PREDICTED BY IDOCK:   -0.34 KCAL/MOL
REMARK 922        TOTAL FREE ENERGY PREDICTED BY IDOCK:   -2.80 KCAL/MOL
REMARK 923 INTER-LIGAND FREE ENERGY PREDICTED BY IDOCK:   -2.47 KCAL/MOL
REMARK 924 INTRA-LIGAND FREE ENERGY PREDICTED BY IDOCK:   -0.34 KCAL/MOL
REMARK 927      BINDING AFFINITY PREDICTED BY RF-SCORE:    0.00 PKD
ROOT
HETATM    1  C   UNL     1      -5.552  20.923  71.270  1.00  0.00     0.143 C  
HETATM    2  O   UNL     1      -5.331  19.921  70.283  1.00  0.00    -0.207 OA 
ENDROOT
BRANCH   2   3
HETATM    3  C   UNL     1      -6.452  19.405  69.678  1.00  0.00    -0.294 A  
HETATM    4  C   UNL     1      -6.517  18.291  68.826  1.00  0.00    -0.225 A  
HETATM    5  C   UNL     1      -8.831  19.797  69.338  1.00  0.00     0.240 A  
HETATM    6  C   UNL     1      -7.751  17.941  68.249  1.00  0.00    -0.279 A  
HETATM    7  C   UNL     1      -8.916  18.679  68.500  1.00  0.00    -0.364 A  
HETATM    8  C   UNL     1      -7.609  20.157  69.914  1.00  0.00     0.522 A  
BRANCH   4   9
HETATM    9  O   UNL     1      -5.351  17.626  68.552  1.00  0.00    -0.146 OA 
HETATM   10  C   UNL     1      -5.425  16.225  68.330  1.00  0.00    -0.108 C  
ENDBRANCH   4   9
BRANCH   7  11
HETATM   11  C   UNL     1     -10.191  18.360  67.720  1.00  0.00    -0.407 C  
BRANCH  11  12
HETATM   12  C   UNL     1      -9.827  17.305  66.668  1.00  0.00    -0.295 C  
BRANCH  12  13
HETATM   13  N   UNL     1     -10.827  16.589  65.869  1.00  0.00    -0.167 NA 
HETATM   14  C   UNL     1     -10.290  16.098  64.601  1.00  0.00     0.630 C  
BRANCH  13  15
HETATM   15  C   UNL     1     -11.461  15.483  66.633  1.00  0.00     0.068 C  
BRANCH  15  16
HETATM   16  C   UNL     1     -11.769  15.644  68.155  1.00  0.00    -0.209 C  
BRANCH  16  17
HETATM   17  C   UNL     1     -12.196  14.346  68.876  1.00  0.00    -0.214 C  
BRANCH  17  18
HETATM   18  C   UNL     1     -11.169  13.587  69.764  1.00  0.00    -0.067 C  
HETATM   19  N   UNL     1      -8.979  15.107  69.798  1.00  0.00    -0.070 NA 
HETATM   20  C   UNL     1     -11.671  13.506  71.285  1.00  0.00     0.675 C  
HETATM   21  C   UNL     1      -9.924  14.432  69.787  1.00  0.00     0.449 C  
HETATM   22  C   UNL     1     -12.969  12.720  71.535  1.00  0.00    -0.388 C  
HETATM   23  C   UNL     1     -11.885  14.892  71.930  1.00  0.00    -0.416 C  
BRANCH  18  24
HETATM   24  C   UNL     1     -10.928  12.215  69.124  1.00  0.00    -0.215 A  
HETATM   25  C   UNL     1      -9.985  11.313  69.645  1.00  0.00     0.444 A  
HETATM   26  C   UNL     1      -9.621  10.147  68.964  1.00  0.00    -0.196 A  
HETATM   27  C   UNL     1     -11.540  11.880  67.903  1.00  0.00    -0.393 A  
HETATM   28  C   UNL     1     -10.240   9.848  67.739  1.00  0.00    -0.197 A  
HETATM   29  C   UNL     1     -11.213  10.705  67.235  1.00  0.00    -0.237 A  
BRANCH  26  30
HETATM   30  O   UNL     1      -8.661   9.273  69.406  1.00  0.00    -0.129 OA 
HETATM   31  C   UNL     1      -7.819   9.712  70.466  1.00  0.00    -0.121 C  
ENDBRANCH  26  30
BRANCH  28  32
HETATM   32  O   UNL     1      -9.809   8.717  67.090  1.00  0.00    -0.172 OA 
HETATM   33  C   UNL     1      -8.412   8.450  67.131  1.00  0.00    -0.123 C  
ENDBRANCH  28  32
ENDBRANCH  18  24
ENDBRANCH  17  18
ENDBRANCH  16  17
ENDBRANCH  15  16
ENDBRANCH  13  15
ENDBRANCH  12  13
ENDBRANCH  11  12
ENDBRANCH   7  11
ENDBRANCH   2   3
TORSDOF 12
ENDMDL
MODEL      360
REMARK 921   NORMALIZED FREE ENERGY PREDICTED BY IDOCK:   -0.29 KCAL/MOL
REMARK 922        TOTAL FREE ENERGY PREDICTED BY IDOCK:   -2.72 KCAL/MOL
REMARK 923 INTER-LIGAND FREE ENERGY PREDICTED BY IDOCK:   -3.40 KCAL/MOL
REMARK 924 INTRA-LIGAND FREE ENERGY PREDICTED BY IDOCK:    0.68 KCAL/MOL
REMARK 927      BINDING AFFINITY PREDICTED BY RF-SCORE:    0.00 PKD
ROOT
HETATM    1  C   UNL     1      -6.014  14.239  72.323  1.00  0.00     0.267 C  
HETATM    2  O   UNL     1      -5.615  12.933  71.920  1.00  0.00    -0.395 OA 
ENDROOT
BRANCH   2   3
HETATM    3  C   UNL     1      -5.649  12.676  70.571  1.00  0.00    -0.171 A  
HETATM    4  C   UNL     1      -6.191  13.495  69.567  1.00  0.00    -0.115 A  
HETATM    5  C   UNL     1      -5.144  10.975  68.903  1.00  0.00    -0.041 A  
HETATM    6  C   UNL     1      -6.189  13.039  68.237  1.00  0.00    -0.085 A  
HETATM    7  C   UNL     1      -5.665  11.786  67.888  1.00  0.00    -0.050 A  
HETATM    8  C   UNL     1      -5.144  11.415  70.231  1.00  0.00    -0.081 A  
BRANCH   4   9
HETATM    9  O   UNL     1      -6.750  14.686  69.946  1.00  0.00    -0.163 OA 
HETATM   10  C   UNL     1      -7.943  15.095  69.291  1.00  0.00    -0.213 C  
ENDBRANCH   4   9
BRANCH   7  11
HETATM   11  C   UNL     1      -5.838  11.267  66.461  1.00  0.00    -0.146 C  
BRANCH  11  12
HETATM   12  C   UNL     1      -5.295   9.832  66.434  1.00  0.00    -0.044 C  
BRANCH  12  13
HETATM   13  N   UNL     1      -6.127   8.654  66.703  1.00  0.00    -0.056 NA 
HETATM   14  C   UNL     1      -5.947   7.597  65.710  1.00  0.00    -0.038 C  
BRANCH  13  15
HETATM   15  C   UNL     1      -5.913   8.125  68.076  1.00  0.00    -0.042 C  
BRANCH  15  16
HETATM   16  C   UNL     1      -7.129   7.794  68.997  1.00  0.00    -0.074 C  
BRANCH  16  17
HETATM   17  C   UNL     1      -8.413   7.361  68.252  1.00  0.00    -0.125 C  
BRANCH  17  18
HETATM   18  C   UNL     1      -9.242   6.160  68.787  1.00  0.00    -0.124 C  
HETATM   19  N   UNL     1      -8.492   5.833  71.325  1.00  0.00    -0.127 NA 
HETATM   20  C   UNL     1     -10.806   6.514  68.833  1.00  0.00    -0.354 C  
HETATM   21  C   UNL     1      -8.824   5.960  70.219  1.00  0.00    -0.143 C  
HETATM   22  C   UNL     1     -11.480   6.806  67.482  1.00  0.00     0.198 C  
HETATM   23  C   UNL     1     -11.130   7.722  69.738  1.00  0.00    -0.095 C  
BRANCH  18  24
HETATM   24  C   UNL     1      -8.915   4.944  67.912  1.00  0.00    -0.120 A  
HETATM   25  C   UNL     1      -8.463   5.088  66.588  1.00  0.00    -0.106 A  
HETATM   26  C   UNL     1      -8.346   3.995  65.724  1.00  0.00    -0.109 A  
HETATM   27  C   UNL     1      -9.201   3.643  68.362  1.00  0.00    -0.219 A  
HETATM   28  C   UNL     1      -8.654   2.709  66.200  1.00  0.00    -0.111 A  
HETATM   29  C   UNL     1      -9.053   2.545  67.522  1.00  0.00    -0.212 A  
BRANCH  26  30
HETATM   30  O   UNL     1      -7.970   4.098  64.409  1.00  0.00    -0.084 OA 
HETATM   31  C   UNL     1      -7.643   5.396  63.925  1.00  0.00    -0.073 C  
ENDBRANCH  26  30
BRANCH  28  32
HETATM   32  O   UNL     1      -8.569   1.679  65.295  1.00  0.00    -0.094 OA 
HETATM   33  C   UNL     1      -7.315   1.501  64.647  1.00  0.00    -0.053 C  
ENDBRANCH  28  32
ENDBRANCH  18  24
ENDBRANCH  17  18
ENDBRANCH  16  17
ENDBRANCH  15  16
ENDBRANCH  13  15
ENDBRANCH  12  13
ENDBRANCH  11  12
ENDBRANCH   7  11
ENDBRANCH   2   3
TORSDOF 12
ENDMDL
MODEL      361
REMARK 921   NORMALIZED FREE ENERGY PREDICTED BY IDOCK:    0.18 KCAL/MOL
REMARK 922        TOTAL FREE ENERGY PREDICTED BY IDOCK:   -1.91 KCAL/MOL
REMARK 923 INTER-LIGAND FREE ENERGY PREDICTED BY IDOCK:   -1.36 KCAL/MOL
REMARK 924 INTRA-LIGAND FREE ENERGY PREDICTED BY IDOCK:   -0.55 KCAL/MOL
REMARK 927      BINDING AFFINITY PREDICTED BY RF-SCORE:    0.00 PKD
ROOT
HETATM    1  C   UNL     1      -9.581  19.707  67.743  1.00  0.00    -0.354 C  
HETATM    2  O   UNL     1      -8.400  18.952  67.491  1.00  0.00    -0.269 OA 
ENDROOT
BRANCH   2   3
HETATM    3  C   UNL     1      -8.476  17.603  67.739  1.00  0.00    -0.227 A  
HETATM    4  C   UNL     1      -9.150  16.638  66.973  1.00  0.00    -0.216 A  
HETATM    5  C   UNL     1      -7.882  15.889  69.365  1.00  0.00    -0.191 A  
HETATM    6  C   UNL     1      -9.168  15.303  67.415  1.00  0.00    -0.201 A  
HETATM    7  C   UNL     1      -8.535  14.913  68.603  1.00  0.00    -0.166 A  
HETATM    8  C   UNL     1      -7.860  17.221  68.937  1.00  0.00    -0.206 A  
BRANCH   4   9
HETATM    9  O   UNL     1      -9.810  17.060  65.850  1.00  0.00    -0.470 OA 
HETATM   10  C   UNL     1     -11.185  16.723  65.724  1.00  0.00     0.388 C  
ENDBRANCH   4   9
BRANCH   7  11
HETATM   11  C   UNL     1      -8.726  13.489  69.126  1.00  0.00     0.532 C  
BRANCH  11  12
HETATM   12  C   UNL     1      -7.472  12.694  68.739  1.00  0.00    -0.044 C  
BRANCH  12  13
HETATM   13  N   UNL     1      -6.536  12.141  69.724  1.00  0.00    -0.048 NA 
HETATM   14  C   UNL     1      -6.471  12.935  70.949  1.00  0.00     1.218 C  
BRANCH  13  15
HETATM   15  C   UNL     1      -6.835  10.718  70.037  1.00  0.00    -0.122 C  
BRANCH  15  16
HETATM   16  C   UNL     1      -6.678   9.616  68.943  1.00  0.00    -0.046 C  
BRANCH  16  17
HETATM   17  C   UNL     1      -7.954   9.325  68.120  1.00  0.00    -0.099 C  
BRANCH  17  18
HETATM   18  C   UNL     1      -8.753   8.017  68.379  1.00  0.00    -0.130 C  
HETATM   19  N   UNL     1      -9.340   8.028  70.979  1.00  0.00    -0.147 NA 
HETATM   20  C   UNL     1     -10.160   8.039  67.610  1.00  0.00    -0.269 C  
HETATM   21  C   UNL     1      -9.086   8.007  69.846  1.00  0.00    -0.145 C  
HETATM   22  C   UNL     1     -10.099   8.091  66.075  1.00  0.00     0.351 C  
HETATM   23  C   UNL     1     -11.069   9.212  68.038  1.00  0.00     0.110 C  
BRANCH  18  24
HETATM   24  C   UNL     1      -7.855   6.839  67.980  1.00  0.00    -0.113 A  
HETATM   25  C   UNL     1      -7.850   6.325  66.671  1.00  0.00    -0.104 A  
HETATM   26  C   UNL     1      -7.185   5.140  66.345  1.00  0.00    -0.077 A  
HETATM   27  C   UNL     1      -7.119   6.141  68.953  1.00  0.00    -0.081 A  
HETATM   28  C   UNL     1      -6.471   4.458  67.344  1.00  0.00    -0.042 A  
HETATM   29  C   UNL     1      -6.424   4.981  68.632  1.00  0.00    -0.037 A  
BRANCH  26  30
HETATM   30  O   UNL     1      -7.207   4.570  65.097  1.00  0.00    -0.065 OA 
HETATM   31  C   UNL     1      -7.383   5.443  63.986  1.00  0.00    -0.057 C  
ENDBRANCH  26  30
BRANCH  28  32
HETATM   32  O   UNL     1      -5.878   3.273  66.980  1.00  0.00    -0.022 OA 
HETATM   33  C   UNL     1      -5.224   2.543  68.011  1.00  0.00    -0.012 C  
ENDBRANCH  28  32
ENDBRANCH  18  24
ENDBRANCH  17  18
ENDBRANCH  16  17
ENDBRANCH  15  16
ENDBRANCH  13  15
ENDBRANCH  12  13
ENDBRANCH  11  12
ENDBRANCH   7  11
ENDBRANCH   2   3
TORSDOF 12
ENDMDL
MODEL      362
REMARK 921   NORMALIZED FREE ENERGY PREDICTED BY IDOCK:    0.24 KCAL/MOL
REMARK 922        TOTAL FREE ENERGY PREDICTED BY IDOCK:   -1.82 KCAL/MOL
REMARK 923 INTER-LIGAND FREE ENERGY PREDICTED BY IDOCK:   -3.54 KCAL/MOL
REMARK 924 INTRA-LIGAND FREE ENERGY PREDICTED BY IDOCK:    1.72 KCAL/MOL
REMARK 927      BINDING AFFINITY PREDICTED BY RF-SCORE:    0.00 PKD
ROOT
HETATM    1  C   UNL     1      -8.590  13.403  67.150  1.00  0.00    -0.195 C  
HETATM    2  O   UNL     1      -7.191  13.328  67.406  1.00  0.00    -0.161 OA 
ENDROOT
BRANCH   2   3
HETATM    3  C   UNL     1      -6.676  12.071  67.610  1.00  0.00    -0.109 A  
HETATM    4  C   UNL     1      -6.809  10.955  66.768  1.00  0.00    -0.121 A  
HETATM    5  C   UNL     1      -5.481  10.699  69.229  1.00  0.00    -0.037 A  
HETATM    6  C   UNL     1      -6.261   9.724  67.170  1.00  0.00    -0.064 A  
HETATM    7  C   UNL     1      -5.590   9.582  68.392  1.00  0.00    -0.036 A  
HETATM    8  C   UNL     1      -6.026  11.928  68.841  1.00  0.00    -0.055 A  
BRANCH   4   9
HETATM    9  O   UNL     1      -7.522  11.110  65.608  1.00  0.00     0.051 OA 
HETATM   10  C   UNL     1      -8.114   9.952  65.036  1.00  0.00    -0.140 C  
ENDBRANCH   4   9
BRANCH   7  11
HETATM   11  C   UNL     1      -5.160   8.191  68.859  1.00  0.00    -0.024 C  
BRANCH  11  12
HETATM   12  C   UNL     1      -5.695   8.008  70.285  1.00  0.00    -0.022 C  
BRANCH  12  13
HETATM   13  N   UNL     1      -7.111   7.772  70.587  1.00  0.00    -0.049 NA 
HETATM   14  C   UNL     1      -7.782   8.959  71.113  1.00  0.00    -0.129 C  
BRANCH  13  15
HETATM   15  C   UNL     1      -7.847   7.231  69.414  1.00  0.00    -0.122 C  
BRANCH  15  16
HETATM   16  C   UNL     1      -9.278   7.751  69.066  1.00  0.00    -0.143 C  
BRANCH  16  17
HETATM   17  C   UNL     1      -9.850   8.795  70.052  1.00  0.00    -0.187 C  
BRANCH  17  18
HETATM   18  C   UNL     1     -11.113   8.449  70.889  1.00  0.00    -0.289 C  
HETATM   19  N   UNL     1     -12.381   6.536  69.531  1.00  0.00     0.908 NA 
HETATM   20  C   UNL     1     -10.710   7.795  72.297  1.00  0.00    -0.325 C  
HETATM   21  C   UNL     1     -11.842   7.373  70.130  1.00  0.00     0.078 C  
HETATM   22  C   UNL     1      -9.909   8.686  73.260  1.00  0.00     0.602 C  
HETATM   23  C   UNL     1      -9.896   6.491  72.151  1.00  0.00    -0.167 C  
BRANCH  18  24
HETATM   24  C   UNL     1     -11.945   9.729  71.024  1.00  0.00    -0.440 A  
HETATM   25  C   UNL     1     -11.730  10.841  70.191  1.00  0.00    -0.425 A  
HETATM   26  C   UNL     1     -12.346  12.074  70.428  1.00  0.00    -0.233 A  
HETATM   27  C   UNL     1     -12.851   9.883  72.089  1.00  0.00    -0.435 A  
HETATM   28  C   UNL     1     -13.234  12.198  71.510  1.00  0.00    -0.172 A  
HETATM   29  C   UNL     1     -13.498  11.093  72.312  1.00  0.00    -0.031 A  
BRANCH  26  30
HETATM   30  O   UNL     1     -12.115  13.200  69.680  1.00  0.00    -0.301 OA 
HETATM   31  C   UNL     1     -11.431  13.030  68.443  1.00  0.00    -0.310 C  
ENDBRANCH  26  30
BRANCH  28  32
HETATM   32  O   UNL     1     -13.773  13.444  71.726  1.00  0.00    -0.362 OA 
HETATM   33  C   UNL     1     -13.468  14.064  72.970  1.00  0.00    -0.093 C  
ENDBRANCH  28  32
ENDBRANCH  18  24
ENDBRANCH  17  18
ENDBRANCH  16  17
ENDBRANCH  15  16
ENDBRANCH  13  15
ENDBRANCH  12  13
ENDBRANCH  11  12
ENDBRANCH   7  11
ENDBRANCH   2   3
TORSDOF 12
ENDMDL
MODEL      363
REMARK 921   NORMALIZED FREE ENERGY PREDICTED BY IDOCK:    0.52 KCAL/MOL
REMARK 922        TOTAL FREE ENERGY PREDICTED BY IDOCK:   -1.34 KCAL/MOL
REMARK 923 INTER-LIGAND FREE ENERGY PREDICTED BY IDOCK:   -2.64 KCAL/MOL
REMARK 924 INTRA-LIGAND FREE ENERGY PREDICTED BY IDOCK:    1.30 KCAL/MOL
REMARK 927      BINDING AFFINITY PREDICTED BY RF-SCORE:    0.00 PKD
ROOT
HETATM    1  C   UNL     1      -5.147  18.370  67.841  1.00  0.00    -0.161 C  
HETATM    2  O   UNL     1      -6.263  18.126  68.691  1.00  0.00    -0.193 OA 
ENDROOT
BRANCH   2   3
HETATM    3  C   UNL     1      -6.513  16.812  69.005  1.00  0.00    -0.195 A  
HETATM    4  C   UNL     1      -5.987  16.085  70.085  1.00  0.00    -0.135 A  
HETATM    5  C   UNL     1      -7.646  14.807  68.213  1.00  0.00    -0.115 A  
HETATM    6  C   UNL     1      -6.311  14.723  70.216  1.00  0.00    -0.162 A  
HETATM    7  C   UNL     1      -7.143  14.072  69.294  1.00  0.00    -0.054 A  
HETATM    8  C   UNL     1      -7.327  16.161  68.070  1.00  0.00    -0.138 A  
BRANCH   4   9
HETATM    9  O   UNL     1      -5.130  16.732  70.934  1.00  0.00    -0.224 OA 
HETATM   10  C   UNL     1      -5.209  16.420  72.318  1.00  0.00     1.003 C  
ENDBRANCH   4   9
BRANCH   7  11
HETATM   11  C   UNL     1      -7.329  12.558  69.384  1.00  0.00     0.331 C  
BRANCH  11  12
HETATM   12  C   UNL     1      -6.036  11.912  68.869  1.00  0.00    -0.062 C  
BRANCH  12  13
HETATM   13  N   UNL     1      -6.018  10.686  68.063  1.00  0.00    -0.046 NA 
HETATM   14  C   UNL     1      -6.423   9.505  68.822  1.00  0.00    -0.047 C  
BRANCH  13  15
HETATM   15  C   UNL     1      -6.834  10.821  66.827  1.00  0.00    -0.115 C  
BRANCH  15  16
HETATM   16  C   UNL     1      -8.393  10.796  66.900  1.00  0.00    -0.132 C  
BRANCH  16  17
HETATM   17  C   UNL     1      -8.977  10.391  68.273  1.00  0.00    -0.135 C  
BRANCH  17  18
HETATM   18  C   UNL     1     -10.309   9.593  68.336  1.00  0.00    -0.233 C  
HETATM   19  N   UNL     1     -12.248  11.423  68.387  1.00  0.00    -0.522 NA 
HETATM   20  C   UNL     1     -10.538   8.748  66.992  1.00  0.00    -0.283 C  
HETATM   21  C   UNL     1     -11.413  10.615  68.371  1.00  0.00    -0.259 C  
HETATM   22  C   UNL     1      -9.508   7.647  66.693  1.00  0.00    -0.255 C  
HETATM   23  C   UNL     1     -10.600   9.626  65.723  1.00  0.00     0.355 C  
BRANCH  18  24
HETATM   24  C   UNL     1     -10.274   8.732  69.603  1.00  0.00    -0.210 A  
HETATM   25  C   UNL     1     -11.416   8.059  70.070  1.00  0.00     0.065 A  
HETATM   26  C   UNL     1     -11.447   7.430  71.319  1.00  0.00    -0.272 A  
HETATM   27  C   UNL     1      -9.130   8.711  70.421  1.00  0.00    -0.176 A  
HETATM   28  C   UNL     1     -10.292   7.441  72.118  1.00  0.00    -0.199 A  
HETATM   29  C   UNL     1      -9.137   8.059  71.649  1.00  0.00    -0.194 A  
BRANCH  26  30
HETATM   30  O   UNL     1     -12.558   6.818  71.839  1.00  0.00    -0.345 OA 
HETATM   31  C   UNL     1     -13.562   7.657  72.400  1.00  0.00     0.228 C  
ENDBRANCH  26  30
BRANCH  28  32
HETATM   32  O   UNL     1     -10.392   6.853  73.356  1.00  0.00    -0.243 OA 
HETATM   33  C   UNL     1      -9.840   7.573  74.452  1.00  0.00     0.484 C  
ENDBRANCH  28  32
ENDBRANCH  18  24
ENDBRANCH  17  18
ENDBRANCH  16  17
ENDBRANCH  15  16
ENDBRANCH  13  15
ENDBRANCH  12  13
ENDBRANCH  11  12
ENDBRANCH   7  11
ENDBRANCH   2   3
TORSDOF 12
ENDMDL
MODEL      364
REMARK 921   NORMALIZED FREE ENERGY PREDICTED BY IDOCK:    0.66 KCAL/MOL
REMARK 922        TOTAL FREE ENERGY PREDICTED BY IDOCK:   -1.09 KCAL/MOL
REMARK 923 INTER-LIGAND FREE ENERGY PREDICTED BY IDOCK:   -1.87 KCAL/MOL
REMARK 924 INTRA-LIGAND FREE ENERGY PREDICTED BY IDOCK:    0.77 KCAL/MOL
REMARK 927      BINDING AFFINITY PREDICTED BY RF-SCORE:    0.00 PKD
ROOT
HETATM    1  C   UNL     1      -9.790   8.652  73.608  1.00  0.00     1.623 C  
HETATM    2  O   UNL     1      -8.789   8.246  72.680  1.00  0.00    -0.198 OA 
ENDROOT
BRANCH   2   3
HETATM    3  C   UNL     1      -8.963   7.012  72.099  1.00  0.00    -0.130 A  
HETATM    4  C   UNL     1     -10.159   6.476  71.595  1.00  0.00    -0.182 A  
HETATM    5  C   UNL     1      -7.820   4.923  71.595  1.00  0.00    -0.106 A  
HETATM    6  C   UNL     1     -10.160   5.166  71.085  1.00  0.00    -0.291 A  
HETATM    7  C   UNL     1      -8.999   4.380  71.072  1.00  0.00    -0.164 A  
HETATM    8  C   UNL     1      -7.807   6.224  72.108  1.00  0.00    -0.104 A  
BRANCH   4   9
HETATM    9  O   UNL     1     -11.290   7.245  71.676  1.00  0.00    -0.245 OA 
HETATM   10  C   UNL     1     -12.542   6.577  71.722  1.00  0.00    -0.187 C  
ENDBRANCH   4   9
BRANCH   7  11
HETATM   11  C   UNL     1      -9.089   2.909  70.665  1.00  0.00    -0.192 C  
BRANCH  11  12
HETATM   12  C   UNL     1      -9.209   2.870  69.136  1.00  0.00    -0.153 C  
BRANCH  12  13
HETATM   13  N   UNL     1      -8.135   2.391  68.259  1.00  0.00    -0.057 NA 
HETATM   14  C   UNL     1      -8.616   1.477  67.225  1.00  0.00    -0.095 C  
BRANCH  13  15
HETATM   15  C   UNL     1      -7.370   3.513  67.652  1.00  0.00    -0.059 C  
BRANCH  15  16
HETATM   16  C   UNL     1      -7.841   4.160  66.312  1.00  0.00    -0.094 C  
BRANCH  16  17
HETATM   17  C   UNL     1      -7.648   3.277  65.057  1.00  0.00    -0.077 C  
BRANCH  17  18
HETATM   18  C   UNL     1      -7.345   3.946  63.687  1.00  0.00    -0.051 C  
HETATM   19  N   UNL     1      -5.291   2.591  62.658  1.00  0.00    -0.007 NA 
HETATM   20  C   UNL     1      -8.563   3.741  62.664  1.00  0.00    -0.083 C  
HETATM   21  C   UNL     1      -6.182   3.194  63.097  1.00  0.00    -0.014 C  
HETATM   22  C   UNL     1      -9.901   4.387  63.058  1.00  0.00     0.002 C  
HETATM   23  C   UNL     1      -8.876   2.256  62.380  1.00  0.00    -0.074 C  
BRANCH  18  24
HETATM   24  C   UNL     1      -7.009   5.417  63.954  1.00  0.00    -0.047 A  
HETATM   25  C   UNL     1      -7.918   6.278  64.594  1.00  0.00    -0.120 A  
HETATM   26  C   UNL     1      -7.702   7.657  64.671  1.00  0.00    -0.121 A  
HETATM   27  C   UNL     1      -5.835   5.988  63.430  1.00  0.00    -0.022 A  
HETATM   28  C   UNL     1      -6.527   8.198  64.123  1.00  0.00    -0.066 A  
HETATM   29  C   UNL     1      -5.593   7.353  63.532  1.00  0.00    -0.038 A  
BRANCH  26  30
HETATM   30  O   UNL     1      -8.592   8.539  65.229  1.00  0.00    -0.171 OA 
HETATM   31  C   UNL     1      -8.867   8.395  66.618  1.00  0.00    -0.142 C  
ENDBRANCH  26  30
BRANCH  28  32
HETATM   32  O   UNL     1      -6.390   9.564  64.182  1.00  0.00    -0.090 OA 
HETATM   33  C   UNL     1      -5.204  10.112  63.618  1.00  0.00    -0.112 C  
ENDBRANCH  28  32
ENDBRANCH  18  24
ENDBRANCH  17  18
ENDBRANCH  16  17
ENDBRANCH  15  16
ENDBRANCH  13  15
ENDBRANCH  12  13
ENDBRANCH  11  12
ENDBRANCH   7  11
ENDBRANCH   2   3
TORSDOF 12
ENDMDL
MODEL      365
REMARK 921   NORMALIZED FREE ENERGY PREDICTED BY IDOCK:    0.77 KCAL/MOL
REMARK 922        TOTAL FREE ENERGY PREDICTED BY IDOCK:   -0.91 KCAL/MOL
REMARK 923 INTER-LIGAND FREE ENERGY PREDICTED BY IDOCK:   -3.65 KCAL/MOL
REMARK 924 INTRA-LIGAND FREE ENERGY PREDICTED BY IDOCK:    2.74 KCAL/MOL
REMARK 927      BINDING AFFINITY PREDICTED BY RF-SCORE:    0.00 PKD
ROOT
HETATM    1  C   UNL     1     -10.005  15.471  65.109  1.00  0.00    -0.149 C  
HETATM    2  O   UNL     1      -9.834  14.105  64.743  1.00  0.00    -0.171 OA 
ENDROOT
BRANCH   2   3
HETATM    3  C   UNL     1      -9.880  13.191  65.768  1.00  0.00    -0.203 A  
HETATM    4  C   UNL     1      -9.402  11.870  65.746  1.00  0.00    -0.155 A  
HETATM    5  C   UNL     1     -10.730  12.840  68.023  1.00  0.00    -0.246 A  
HETATM    6  C   UNL     1      -9.588  11.056  66.877  1.00  0.00    -0.205 A  
HETATM    7  C   UNL     1     -10.244  11.527  68.023  1.00  0.00    -0.205 A  
HETATM    8  C   UNL     1     -10.554  13.658  66.903  1.00  0.00    -0.271 A  
BRANCH   4   9
HETATM    9  O   UNL     1      -8.820  11.420  64.591  1.00  0.00     0.055 OA 
HETATM   10  C   UNL     1      -9.619  11.389  63.416  1.00  0.00    -0.329 C  
ENDBRANCH   4   9
BRANCH   7  11
HETATM   11  C   UNL     1     -10.570  10.555  69.157  1.00  0.00    -0.258 C  
BRANCH  11  12
HETATM   12  C   UNL     1     -11.688  11.194  69.992  1.00  0.00    -0.356 C  
BRANCH  12  13
HETATM   13  N   UNL     1     -12.112  10.675  71.296  1.00  0.00    -0.331 NA 
HETATM   14  C   UNL     1     -13.495  11.022  71.619  1.00  0.00    -0.092 C  
BRANCH  13  15
HETATM   15  C   UNL     1     -11.901   9.207  71.406  1.00  0.00    -0.345 C  
BRANCH  15  16
HETATM   16  C   UNL     1     -10.704   8.521  70.675  1.00  0.00    -0.251 C  
BRANCH  16  17
HETATM   17  C   UNL     1      -9.311   9.093  71.023  1.00  0.00    -0.333 C  
BRANCH  17  18
HETATM   18  C   UNL     1      -8.063   8.168  70.958  1.00  0.00    -0.103 C  
HETATM   19  N   UNL     1      -6.656   8.997  68.850  1.00  0.00    -0.052 NA 
HETATM   20  C   UNL     1      -7.116   8.389  72.233  1.00  0.00    -0.116 C  
HETATM   21  C   UNL     1      -7.262   8.622  69.768  1.00  0.00    -0.051 C  
HETATM   22  C   UNL     1      -7.719   8.034  73.602  1.00  0.00    -0.223 C  
HETATM   23  C   UNL     1      -6.595   9.837  72.362  1.00  0.00     1.036 C  
BRANCH  18  24
HETATM   24  C   UNL     1      -8.562   6.727  70.807  1.00  0.00    -0.141 A  
HETATM   25  C   UNL     1      -8.898   5.941  71.923  1.00  0.00    -0.138 A  
HETATM   26  C   UNL     1      -9.169   4.574  71.812  1.00  0.00    -0.134 A  
HETATM   27  C   UNL     1      -8.555   6.097  69.550  1.00  0.00    -0.127 A  
HETATM   28  C   UNL     1      -9.139   3.972  70.543  1.00  0.00    -0.112 A  
HETATM   29  C   UNL     1      -8.858   4.746  69.422  1.00  0.00    -0.116 A  
BRANCH  26  30
HETATM   30  O   UNL     1      -9.438   3.759  72.881  1.00  0.00    -0.112 OA 
HETATM   31  C   UNL     1     -10.396   4.220  73.827  1.00  0.00    -0.186 C  
ENDBRANCH  26  30
BRANCH  28  32
HETATM   32  O   UNL     1      -9.363   2.617  70.497  1.00  0.00    -0.125 OA 
HETATM   33  C   UNL     1     -10.510   2.136  71.188  1.00  0.00     0.899 C  
ENDBRANCH  28  32
ENDBRANCH  18  24
ENDBRANCH  17  18
ENDBRANCH  16  17
ENDBRANCH  15  16
ENDBRANCH  13  15
ENDBRANCH  12  13
ENDBRANCH  11  12
ENDBRANCH   7  11
ENDBRANCH   2   3
TORSDOF 12
ENDMDL
MODEL      366
REMARK 921   NORMALIZED FREE ENERGY PREDICTED BY IDOCK:    0.84 KCAL/MOL
REMARK 922        TOTAL FREE ENERGY PREDICTED BY IDOCK:   -0.80 KCAL/MOL
REMARK 923 INTER-LIGAND FREE ENERGY PREDICTED BY IDOCK:   -1.93 KCAL/MOL
REMARK 924 INTRA-LIGAND FREE ENERGY PREDICTED BY IDOCK:    1.13 KCAL/MOL
REMARK 927      BINDING AFFINITY PREDICTED BY RF-SCORE:    0.00 PKD
ROOT
HETATM    1  C   UNL     1      -8.199   3.290  70.019  1.00  0.00    -0.044 C  
HETATM    2  O   UNL     1      -8.716   3.407  68.697  1.00  0.00    -0.087 OA 
ENDROOT
BRANCH   2   3
HETATM    3  C   UNL     1      -7.964   4.143  67.813  1.00  0.00    -0.090 A  
HETATM    4  C   UNL     1      -6.625   3.920  67.452  1.00  0.00    -0.046 A  
HETATM    5  C   UNL     1      -7.998   6.147  66.430  1.00  0.00    -0.106 A  
HETATM    6  C   UNL     1      -5.996   4.816  66.570  1.00  0.00    -0.027 A  
HETATM    7  C   UNL     1      -6.670   5.929  66.046  1.00  0.00    -0.059 A  
HETATM    8  C   UNL     1      -8.634   5.264  67.310  1.00  0.00    -0.105 A  
BRANCH   4   9
HETATM    9  O   UNL     1      -5.976   2.860  68.026  1.00  0.00    -0.023 OA 
HETATM   10  C   UNL     1      -5.131   2.074  67.197  1.00  0.00    -0.005 C  
ENDBRANCH   4   9
BRANCH   7  11
HETATM   11  C   UNL     1      -5.896   6.962  65.229  1.00  0.00    -0.035 C  
BRANCH  11  12
HETATM   12  C   UNL     1      -6.544   7.017  63.840  1.00  0.00    -0.043 C  
BRANCH  12  13
HETATM   13  N   UNL     1      -7.781   7.754  63.560  1.00  0.00    -0.126 NA 
HETATM   14  C   UNL     1      -8.775   6.944  62.858  1.00  0.00     0.550 C  
BRANCH  13  15
HETATM   15  C   UNL     1      -8.365   8.349  64.792  1.00  0.00    -0.141 C  
BRANCH  15  16
HETATM   16  C   UNL     1      -9.148   9.698  64.727  1.00  0.00    -0.283 C  
BRANCH  16  17
HETATM   17  C   UNL     1      -8.407  10.913  65.332  1.00  0.00    -0.051 C  
BRANCH  17  18
HETATM   18  C   UNL     1      -9.192  11.939  66.196  1.00  0.00    -0.204 C  
HETATM   19  N   UNL     1     -10.054  13.806  64.499  1.00  0.00    -0.263 NA 
HETATM   20  C   UNL     1     -10.509  11.274  66.825  1.00  0.00    -0.291 C  
HETATM   21  C   UNL     1      -9.680  13.003  65.250  1.00  0.00     0.023 C  
HETATM   22  C   UNL     1     -10.286  10.115  67.810  1.00  0.00    -0.232 C  
HETATM   23  C   UNL     1     -11.490  10.741  65.759  1.00  0.00     0.738 C  
BRANCH  18  24
HETATM   24  C   UNL     1      -8.224  12.495  67.247  1.00  0.00    -0.184 A  
HETATM   25  C   UNL     1      -7.057  11.804  67.615  1.00  0.00    -0.107 A  
HETATM   26  C   UNL     1      -6.272  12.204  68.702  1.00  0.00    -0.059 A  
HETATM   27  C   UNL     1      -8.556  13.647  67.984  1.00  0.00    -0.175 A  
HETATM   28  C   UNL     1      -6.640  13.350  69.427  1.00  0.00    -0.075 A  
HETATM   29  C   UNL     1      -7.763  14.074  69.043  1.00  0.00    -0.006 A  
BRANCH  26  30
HETATM   30  O   UNL     1      -5.163  11.523  69.134  1.00  0.00    -0.044 OA 
HETATM   31  C   UNL     1      -5.311  10.702  70.286  1.00  0.00    -0.060 C  
ENDBRANCH  26  30
BRANCH  28  32
HETATM   32  O   UNL     1      -5.862  13.668  70.514  1.00  0.00    -0.153 OA 
HETATM   33  C   UNL     1      -5.630  15.052  70.750  1.00  0.00    -0.120 C  
ENDBRANCH  28  32
ENDBRANCH  18  24
ENDBRANCH  17  18
ENDBRANCH  16  17
ENDBRANCH  15  16
ENDBRANCH  13  15
ENDBRANCH  12  13
ENDBRANCH  11  12
ENDBRANCH   7  11
ENDBRANCH   2   3
TORSDOF 12
ENDMDL
MODEL      367
REMARK 921   NORMALIZED FREE ENERGY PREDICTED BY IDOCK:    0.89 KCAL/MOL
REMARK 922        TOTAL FREE ENERGY PREDICTED BY IDOCK:   -0.71 KCAL/MOL
REMARK 923 INTER-LIGAND FREE ENERGY PREDICTED BY IDOCK:    0.20 KCAL/MOL
REMARK 924 INTRA-LIGAND FREE ENERGY PREDICTED BY IDOCK:   -0.92 KCAL/MOL
REMARK 927      BINDING AFFINITY PREDICTED BY RF-SCORE:    0.00 PKD
ROOT
HETATM    1  C   UNL     1      -6.771   8.750  72.280  1.00  0.00    -0.003 C  
HETATM    2  O   UNL     1      -6.292   9.167  71.005  1.00  0.00    -0.057 OA 
ENDROOT
BRANCH   2   3
HETATM    3  C   UNL     1      -7.247   9.510  70.079  1.00  0.00    -0.101 A  
HETATM    4  C   UNL     1      -7.584  10.805  69.653  1.00  0.00    -0.042 A  
HETATM    5  C   UNL     1      -9.021   8.594  68.685  1.00  0.00    -0.142 A  
HETATM    6  C   UNL     1      -8.635  10.971  68.734  1.00  0.00    -0.144 A  
HETATM    7  C   UNL     1      -9.358   9.877  68.236  1.00  0.00    -0.136 A  
HETATM    8  C   UNL     1      -7.979   8.417  69.602  1.00  0.00    -0.106 A  
BRANCH   4   9
HETATM    9  O   UNL     1      -6.901  11.858  70.202  1.00  0.00     0.074 OA 
HETATM   10  C   UNL     1      -5.538  12.022  69.839  1.00  0.00    -0.110 C  
ENDBRANCH   4   9
BRANCH   7  11
HETATM   11  C   UNL     1     -10.595  10.121  67.373  1.00  0.00    -0.329 C  
BRANCH  11  12
HETATM   12  C   UNL     1     -10.221  11.189  66.338  1.00  0.00    -0.233 C  
BRANCH  12  13
HETATM   13  N   UNL     1     -10.812  12.532  66.321  1.00  0.00    -0.262 NA 
HETATM   14  C   UNL     1     -11.194  12.964  64.978  1.00  0.00    -0.293 C  
BRANCH  13  15
HETATM   15  C   UNL     1     -11.963  12.645  67.255  1.00  0.00    -0.253 C  
BRANCH  15  16
HETATM   16  C   UNL     1     -11.936  13.678  68.426  1.00  0.00    -0.391 C  
BRANCH  16  17
HETATM   17  C   UNL     1     -11.657  15.138  68.003  1.00  0.00    -0.345 C  
BRANCH  17  18
HETATM   18  C   UNL     1     -10.893  16.085  68.969  1.00  0.00    -0.283 C  
HETATM   19  N   UNL     1     -12.012  18.486  68.667  1.00  0.00     3.263 NA 
HETATM   20  C   UNL     1     -11.143  15.673  70.499  1.00  0.00    -0.375 C  
HETATM   21  C   UNL     1     -11.511  17.447  68.804  1.00  0.00     0.915 C  
HETATM   22  C   UNL     1     -10.635  14.286  70.924  1.00  0.00     1.438 C  
HETATM   23  C   UNL     1     -12.632  15.722  70.906  1.00  0.00    -0.437 C  
BRANCH  18  24
HETATM   24  C   UNL     1      -9.414  16.066  68.564  1.00  0.00    -0.216 A  
HETATM   25  C   UNL     1      -8.432  16.722  69.325  1.00  0.00     0.037 A  
HETATM   26  C   UNL     1      -7.119  16.873  68.867  1.00  0.00    -0.220 A  
HETATM   27  C   UNL     1      -9.019  15.514  67.332  1.00  0.00    -0.203 A  
HETATM   28  C   UNL     1      -6.760  16.323  67.625  1.00  0.00    -0.145 A  
HETATM   29  C   UNL     1      -7.708  15.627  66.883  1.00  0.00    -0.238 A  
BRANCH  26  30
HETATM   30  O   UNL     1      -6.147  17.559  69.548  1.00  0.00    -0.231 OA 
HETATM   31  C   UNL     1      -6.503  18.826  70.091  1.00  0.00     0.119 C  
ENDBRANCH  26  30
BRANCH  28  32
HETATM   32  O   UNL     1      -5.472  16.544  67.201  1.00  0.00    -0.181 OA 
HETATM   33  C   UNL     1      -5.220  17.777  66.537  1.00  0.00    -0.165 C  
ENDBRANCH  28  32
ENDBRANCH  18  24
ENDBRANCH  17  18
ENDBRANCH  16  17
ENDBRANCH  15  16
ENDBRANCH  13  15
ENDBRANCH  12  13
ENDBRANCH  11  12
ENDBRANCH   7  11
ENDBRANCH   2   3
TORSDOF 12
ENDMDL
MODEL      368
REMARK 921   NORMALIZED FREE ENERGY PREDICTED BY IDOCK:    1.10 KCAL/MOL
REMARK 922        TOTAL FREE ENERGY PREDICTED BY IDOCK:   -0.35 KCAL/MOL
REMARK 923 INTER-LIGAND FREE ENERGY PREDICTED BY IDOCK:   -2.28 KCAL/MOL
REMARK 924 INTRA-LIGAND FREE ENERGY PREDICTED BY IDOCK:    1.93 KCAL/MOL
REMARK 927      BINDING AFFINITY PREDICTED BY RF-SCORE:    0.00 PKD
ROOT
HETATM    1  C   UNL     1      -5.716  14.247  72.559  1.00  0.00     0.045 C  
HETATM    2  O   UNL     1      -5.420  12.930  72.105  1.00  0.00    -0.390 OA 
ENDROOT
BRANCH   2   3
HETATM    3  C   UNL     1      -5.522  12.714  70.752  1.00  0.00    -0.175 A  
HETATM    4  C   UNL     1      -6.037  13.600  69.791  1.00  0.00    -0.126 A  
HETATM    5  C   UNL     1      -5.208  11.029  69.023  1.00  0.00    -0.041 A  
HETATM    6  C   UNL     1      -6.117  13.184  68.451  1.00  0.00    -0.083 A  
HETATM    7  C   UNL     1      -5.702  11.907  68.050  1.00  0.00    -0.048 A  
HETATM    8  C   UNL     1      -5.127  11.430  70.360  1.00  0.00    -0.089 A  
BRANCH   4   9
HETATM    9  O   UNL     1      -6.490  14.819  70.222  1.00  0.00    -0.178 OA 
HETATM   10  C   UNL     1      -7.207  15.623  69.297  1.00  0.00    -0.198 C  
ENDBRANCH   4   9
BRANCH   7  11
HETATM   11  C   UNL     1      -5.966  11.443  66.618  1.00  0.00    -0.147 C  
BRANCH  11  12
HETATM   12  C   UNL     1      -5.518   9.979  66.527  1.00  0.00    -0.045 C  
BRANCH  12  13
HETATM   13  N   UNL     1      -6.415   8.848  66.789  1.00  0.00    -0.063 NA 
HETATM   14  C   UNL     1      -6.271   7.774  65.808  1.00  0.00    -0.042 C  
BRANCH  13  15
HETATM   15  C   UNL     1      -6.255   8.320  68.171  1.00  0.00    -0.051 C  
BRANCH  15  16
HETATM   16  C   UNL     1      -7.507   7.991  69.043  1.00  0.00    -0.093 C  
BRANCH  16  17
HETATM   17  C   UNL     1      -8.759   7.552  68.250  1.00  0.00    -0.123 C  
BRANCH  17  18
HETATM   18  C   UNL     1      -9.567   6.309  68.718  1.00  0.00    -0.128 C  
HETATM   19  N   UNL     1     -12.078   7.150  69.027  1.00  0.00     1.194 NA 
HETATM   20  C   UNL     1      -9.617   5.189  67.570  1.00  0.00    -0.159 C  
HETATM   21  C   UNL     1     -10.987   6.771  68.902  1.00  0.00    -0.218 C  
HETATM   22  C   UNL     1      -8.270   4.573  67.158  1.00  0.00    -0.101 C  
HETATM   23  C   UNL     1     -10.273   5.686  66.263  1.00  0.00    -0.163 C  
BRANCH  18  24
HETATM   24  C   UNL     1      -8.942   5.816  70.028  1.00  0.00    -0.147 A  
HETATM   25  C   UNL     1      -7.594   5.423  70.101  1.00  0.00    -0.073 A  
HETATM   26  C   UNL     1      -7.066   4.795  71.234  1.00  0.00    -0.051 A  
HETATM   27  C   UNL     1      -9.742   5.599  71.164  1.00  0.00    -0.218 A  
HETATM   28  C   UNL     1      -7.897   4.580  72.346  1.00  0.00    -0.090 A  
HETATM   29  C   UNL     1      -9.219   5.009  72.308  1.00  0.00    -0.152 A  
BRANCH  26  30
HETATM   30  O   UNL     1      -5.776   4.340  71.323  1.00  0.00    -0.011 OA 
HETATM   31  C   UNL     1      -5.508   3.037  70.816  1.00  0.00    -0.012 C  
ENDBRANCH  26  30
BRANCH  28  32
HETATM   32  O   UNL     1      -7.341   3.915  73.412  1.00  0.00    -0.065 OA 
HETATM   33  C   UNL     1      -6.150   4.469  73.959  1.00  0.00    -0.040 C  
ENDBRANCH  28  32
ENDBRANCH  18  24
ENDBRANCH  17  18
ENDBRANCH  16  17
ENDBRANCH  15  16
ENDBRANCH  13  15
ENDBRANCH  12  13
ENDBRANCH  11  12
ENDBRANCH   7  11
ENDBRANCH   2   3
TORSDOF 12
ENDMDL
MODEL      369
REMARK 921   NORMALIZED FREE ENERGY PREDICTED BY IDOCK:    1.23 KCAL/MOL
REMARK 922        TOTAL FREE ENERGY PREDICTED BY IDOCK:   -0.13 KCAL/MOL
REMARK 923 INTER-LIGAND FREE ENERGY PREDICTED BY IDOCK:   -3.00 KCAL/MOL
REMARK 924 INTRA-LIGAND FREE ENERGY PREDICTED BY IDOCK:    2.87 KCAL/MOL
REMARK 927      BINDING AFFINITY PREDICTED BY RF-SCORE:    0.00 PKD
ROOT
HETATM    1  C   UNL     1     -10.645  16.769  70.466  1.00  0.00     0.509 C  
HETATM    2  O   UNL     1     -10.352  16.505  69.097  1.00  0.00    -0.276 OA 
ENDROOT
BRANCH   2   3
HETATM    3  C   UNL     1     -10.674  15.251  68.637  1.00  0.00    -0.245 A  
HETATM    4  C   UNL     1      -9.886  14.091  68.722  1.00  0.00    -0.139 A  
HETATM    5  C   UNL     1     -12.354  14.012  67.383  1.00  0.00    -0.150 A  
HETATM    6  C   UNL     1     -10.357  12.900  68.140  1.00  0.00    -0.243 A  
HETATM    7  C   UNL     1     -11.589  12.843  67.474  1.00  0.00    -0.409 A  
HETATM    8  C   UNL     1     -11.895  15.203  67.954  1.00  0.00    -0.192 A  
BRANCH   4   9
HETATM    9  O   UNL     1      -8.661  14.192  69.326  1.00  0.00     0.142 OA 
HETATM   10  C   UNL     1      -7.744  15.145  68.806  1.00  0.00    -0.143 C  
ENDBRANCH   4   9
BRANCH   7  11
HETATM   11  C   UNL     1     -11.977  11.574  66.715  1.00  0.00     0.433 C  
BRANCH  11  12
HETATM   12  C   UNL     1     -10.920  10.511  67.042  1.00  0.00    -0.180 C  
BRANCH  12  13
HETATM   13  N   UNL     1      -9.483  10.799  67.097  1.00  0.00    -0.159 NA 
HETATM   14  C   UNL     1      -8.876  10.401  68.366  1.00  0.00    -0.136 C  
BRANCH  13  15
HETATM   15  C   UNL     1      -8.750  10.194  65.953  1.00  0.00    -0.146 C  
BRANCH  15  16
HETATM   16  C   UNL     1      -9.494   9.279  64.930  1.00  0.00    -0.051 C  
BRANCH  16  17
HETATM   17  C   UNL     1      -8.626   8.169  64.294  1.00  0.00     0.145 C  
BRANCH  17  18
HETATM   18  C   UNL     1      -7.602   7.398  65.173  1.00  0.00    -0.104 C  
HETATM   19  N   UNL     1      -7.082   5.135  63.862  1.00  0.00    -0.048 NA 
HETATM   20  C   UNL     1      -6.208   8.186  65.260  1.00  0.00    -0.045 C  
HETATM   21  C   UNL     1      -7.304   6.114  64.447  1.00  0.00    -0.069 C  
HETATM   22  C   UNL     1      -6.245   9.568  65.932  1.00  0.00    -0.068 C  
HETATM   23  C   UNL     1      -5.544   8.402  63.883  1.00  0.00    -0.061 C  
BRANCH  18  24
HETATM   24  C   UNL     1      -8.255   7.154  66.539  1.00  0.00    -0.117 A  
HETATM   25  C   UNL     1      -7.486   6.958  67.699  1.00  0.00    -0.098 A  
HETATM   26  C   UNL     1      -8.060   6.547  68.907  1.00  0.00    -0.115 A  
HETATM   27  C   UNL     1      -9.645   6.971  66.643  1.00  0.00    -0.220 A  
HETATM   28  C   UNL     1      -9.451   6.358  68.974  1.00  0.00    -0.129 A  
HETATM   29  C   UNL     1     -10.231   6.598  67.848  1.00  0.00    -0.203 A  
BRANCH  26  30
HETATM   30  O   UNL     1      -7.340   6.283  70.044  1.00  0.00    -0.077 OA 
HETATM   31  C   UNL     1      -5.932   6.481  69.984  1.00  0.00    -0.022 C  
ENDBRANCH  26  30
BRANCH  28  32
HETATM   32  O   UNL     1      -9.955   5.906  70.170  1.00  0.00    -0.175 OA 
HETATM   33  C   UNL     1     -10.413   6.896  71.084  1.00  0.00    -0.212 C  
ENDBRANCH  28  32
ENDBRANCH  18  24
ENDBRANCH  17  18
ENDBRANCH  16  17
ENDBRANCH  15  16
ENDBRANCH  13  15
ENDBRANCH  12  13
ENDBRANCH  11  12
ENDBRANCH   7  11
ENDBRANCH   2   3
TORSDOF 12
ENDMDL
MODEL      370
REMARK 921   NORMALIZED FREE ENERGY PREDICTED BY IDOCK:    1.32 KCAL/MOL
REMARK 922        TOTAL FREE ENERGY PREDICTED BY IDOCK:    0.02 KCAL/MOL
REMARK 923 INTER-LIGAND FREE ENERGY PREDICTED BY IDOCK:   -2.41 KCAL/MOL
REMARK 924 INTRA-LIGAND FREE ENERGY PREDICTED BY IDOCK:    2.43 KCAL/MOL
REMARK 927      BINDING AFFINITY PREDICTED BY RF-SCORE:    0.00 PKD
ROOT
HETATM    1  C   UNL     1     -13.254  12.203  65.042  1.00  0.00     1.482 C  
HETATM    2  O   UNL     1     -12.212  11.392  65.576  1.00  0.00     0.252 OA 
ENDROOT
BRANCH   2   3
HETATM    3  C   UNL     1     -11.063  11.305  64.827  1.00  0.00    -0.130 A  
HETATM    4  C   UNL     1     -10.502  12.309  64.021  1.00  0.00    -0.399 A  
HETATM    5  C   UNL     1      -9.324   9.762  64.107  1.00  0.00    -0.237 A  
HETATM    6  C   UNL     1      -9.346  12.021  63.275  1.00  0.00     0.217 A  
HETATM    7  C   UNL     1      -8.742  10.756  63.312  1.00  0.00    -0.143 A  
HETATM    8  C   UNL     1     -10.477  10.035  64.850  1.00  0.00     0.384 A  
BRANCH   4   9
HETATM    9  O   UNL     1     -11.148  13.515  63.958  1.00  0.00    -0.335 OA 
HETATM   10  C   UNL     1     -10.698  14.553  64.818  1.00  0.00    -0.393 C  
ENDBRANCH   4   9
BRANCH   7  11
HETATM   11  C   UNL     1      -7.590  10.443  62.358  1.00  0.00    -0.166 C  
BRANCH  11  12
HETATM   12  C   UNL     1      -7.052   9.058  62.739  1.00  0.00    -0.095 C  
BRANCH  12  13
HETATM   13  N   UNL     1      -6.161   8.829  63.882  1.00  0.00    -0.072 NA 
HETATM   14  C   UNL     1      -5.604  10.069  64.420  1.00  0.00    -0.107 C  
BRANCH  13  15
HETATM   15  C   UNL     1      -6.826   8.044  64.956  1.00  0.00    -0.055 C  
BRANCH  15  16
HETATM   16  C   UNL     1      -7.240   6.558  64.712  1.00  0.00    -0.067 C  
BRANCH  16  17
HETATM   17  C   UNL     1      -8.427   6.062  65.568  1.00  0.00    -0.151 C  
BRANCH  17  18
HETATM   18  C   UNL     1      -8.178   5.603  67.032  1.00  0.00    -0.101 C  
HETATM   19  N   UNL     1      -9.611   3.377  67.347  1.00  0.00    -0.171 NA 
HETATM   20  C   UNL     1      -6.648   5.176  67.251  1.00  0.00    -0.053 C  
HETATM   21  C   UNL     1      -8.987   4.349  67.226  1.00  0.00    -0.120 C  
HETATM   22  C   UNL     1      -5.597   6.283  67.068  1.00  0.00    -0.012 C  
HETATM   23  C   UNL     1      -6.204   4.014  66.335  1.00  0.00    -0.032 C  
BRANCH  18  24
HETATM   24  C   UNL     1      -8.636   6.738  67.957  1.00  0.00    -0.122 A  
HETATM   25  C   UNL     1      -9.346   6.482  69.142  1.00  0.00    -0.133 A  
HETATM   26  C   UNL     1      -9.931   7.509  69.890  1.00  0.00    -0.189 A  
HETATM   27  C   UNL     1      -8.487   8.080  67.566  1.00  0.00    -0.127 A  
HETATM   28  C   UNL     1      -9.777   8.839  69.465  1.00  0.00    -0.172 A  
HETATM   29  C   UNL     1      -9.034   9.112  68.322  1.00  0.00    -0.129 A  
BRANCH  26  30
HETATM   30  O   UNL     1     -10.685   7.299  71.017  1.00  0.00    -0.228 OA 
HETATM   31  C   UNL     1     -10.728   8.349  71.976  1.00  0.00    -0.317 C  
ENDBRANCH  26  30
BRANCH  28  32
HETATM   32  O   UNL     1     -10.414   9.803  70.209  1.00  0.00    -0.251 OA 
HETATM   33  C   UNL     1     -10.865  10.956  69.508  1.00  0.00    -0.238 C  
ENDBRANCH  28  32
ENDBRANCH  18  24
ENDBRANCH  17  18
ENDBRANCH  16  17
ENDBRANCH  15  16
ENDBRANCH  13  15
ENDBRANCH  12  13
ENDBRANCH  11  12
ENDBRANCH   7  11
ENDBRANCH   2   3
TORSDOF 12
ENDMDL
MODEL      371
REMARK 921   NORMALIZED FREE ENERGY PREDICTED BY IDOCK:    1.38 KCAL/MOL
REMARK 922        TOTAL FREE ENERGY PREDICTED BY IDOCK:    0.13 KCAL/MOL
REMARK 923 INTER-LIGAND FREE ENERGY PREDICTED BY IDOCK:    0.31 KCAL/MOL
REMARK 924 INTRA-LIGAND FREE ENERGY PREDICTED BY IDOCK:   -0.18 KCAL/MOL
REMARK 927      BINDING AFFINITY PREDICTED BY RF-SCORE:    0.00 PKD
ROOT
HETATM    1  C   UNL     1      -8.265   7.594  65.057  1.00  0.00    -0.113 C  
HETATM    2  O   UNL     1      -7.148   8.230  64.445  1.00  0.00    -0.074 OA 
ENDROOT
BRANCH   2   3
HETATM    3  C   UNL     1      -6.558   9.245  65.159  1.00  0.00    -0.074 A  
HETATM    4  C   UNL     1      -5.693   9.115  66.258  1.00  0.00    -0.053 A  
HETATM    5  C   UNL     1      -6.491  11.667  65.400  1.00  0.00     1.632 A  
HETATM    6  C   UNL     1      -5.229  10.273  66.905  1.00  0.00    -0.041 A  
HETATM    7  C   UNL     1      -5.613  11.555  66.486  1.00  0.00    -0.119 A  
HETATM    8  C   UNL     1      -6.962  10.521  64.750  1.00  0.00     0.046 A  
BRANCH   4   9
HETATM    9  O   UNL     1      -5.383   7.850  66.682  1.00  0.00    -0.027 OA 
HETATM   10  C   UNL     1      -5.308   6.823  65.702  1.00  0.00    -0.026 C  
ENDBRANCH   4   9
BRANCH   7  11
HETATM   11  C   UNL     1      -5.220  12.772  67.322  1.00  0.00     0.067 C  
BRANCH  11  12
HETATM   12  C   UNL     1      -6.410  13.739  67.302  1.00  0.00     0.357 C  
BRANCH  12  13
HETATM   13  N   UNL     1      -6.269  15.189  67.468  1.00  0.00    -0.312 NA 
HETATM   14  C   UNL     1      -6.076  15.887  66.198  1.00  0.00     2.689 C  
BRANCH  13  15
HETATM   15  C   UNL     1      -7.410  15.777  68.220  1.00  0.00    -0.119 C  
BRANCH  15  16
HETATM   16  C   UNL     1      -8.521  14.858  68.821  1.00  0.00    -0.172 C  
BRANCH  16  17
HETATM   17  C   UNL     1      -8.913  13.648  67.943  1.00  0.00    -0.195 C  
BRANCH  17  18
HETATM   18  C   UNL     1     -10.272  12.934  68.183  1.00  0.00    -0.239 C  
HETATM   19  N   UNL     1     -11.629  14.503  69.858  1.00  0.00    -0.274 NA 
HETATM   20  C   UNL     1     -11.139  12.876  66.835  1.00  0.00    -0.312 C  
HETATM   21  C   UNL     1     -11.047  13.807  69.133  1.00  0.00    -0.240 C  
HETATM   22  C   UNL     1     -10.542  12.067  65.673  1.00  0.00    -0.303 C  
HETATM   23  C   UNL     1     -11.461  14.272  66.258  1.00  0.00    -0.360 C  
BRANCH  18  24
HETATM   24  C   UNL     1      -9.972  11.553  68.778  1.00  0.00    -0.169 A  
HETATM   25  C   UNL     1      -8.666  11.168  69.127  1.00  0.00     0.057 A  
HETATM   26  C   UNL     1      -8.354   9.853  69.488  1.00  0.00    -0.168 A  
HETATM   27  C   UNL     1     -10.979  10.574  68.852  1.00  0.00    -0.291 A  
HETATM   28  C   UNL     1      -9.380   8.895  69.538  1.00  0.00    -0.155 A  
HETATM   29  C   UNL     1     -10.686   9.272  69.245  1.00  0.00    -0.211 A  
BRANCH  26  30
HETATM   30  O   UNL     1      -7.084   9.421  69.774  1.00  0.00    -0.057 OA 
HETATM   31  C   UNL     1      -6.146  10.399  70.210  1.00  0.00    -0.107 C  
ENDBRANCH  26  30
BRANCH  28  32
HETATM   32  O   UNL     1      -9.009   7.609  69.850  1.00  0.00    -0.143 OA 
HETATM   33  C   UNL     1      -9.789   6.941  70.835  1.00  0.00    -0.185 C  
ENDBRANCH  28  32
ENDBRANCH  18  24
ENDBRANCH  17  18
ENDBRANCH  16  17
ENDBRANCH  15  16
ENDBRANCH  13  15
ENDBRANCH  12  13
ENDBRANCH  11  12
ENDBRANCH   7  11
ENDBRANCH   2   3
TORSDOF 12
ENDMDL
MODEL      372
REMARK 921   NORMALIZED FREE ENERGY PREDICTED BY IDOCK:    1.42 KCAL/MOL
REMARK 922        TOTAL FREE ENERGY PREDICTED BY IDOCK:    0.20 KCAL/MOL
REMARK 923 INTER-LIGAND FREE ENERGY PREDICTED BY IDOCK:   -1.62 KCAL/MOL
REMARK 924 INTRA-LIGAND FREE ENERGY PREDICTED BY IDOCK:    1.82 KCAL/MOL
REMARK 927      BINDING AFFINITY PREDICTED BY RF-SCORE:    0.00 PKD
ROOT
HETATM    1  C   UNL     1     -12.876   5.898  71.215  1.00  0.00     1.603 C  
HETATM    2  O   UNL     1     -11.534   5.728  71.660  1.00  0.00    -0.219 OA 
ENDROOT
BRANCH   2   3
HETATM    3  C   UNL     1     -10.558   6.304  70.883  1.00  0.00    -0.241 A  
HETATM    4  C   UNL     1      -9.208   6.492  71.223  1.00  0.00    -0.155 A  
HETATM    5  C   UNL     1     -10.184   7.463  68.775  1.00  0.00    -0.199 A  
HETATM    6  C   UNL     1      -8.362   7.158  70.319  1.00  0.00    -0.136 A  
HETATM    7  C   UNL     1      -8.832   7.643  69.091  1.00  0.00    -0.139 A  
HETATM    8  C   UNL     1     -11.037   6.806  69.668  1.00  0.00    -0.343 A  
BRANCH   4   9
HETATM    9  O   UNL     1      -8.792   6.062  72.455  1.00  0.00    -0.133 OA 
HETATM   10  C   UNL     1      -9.111   4.729  72.832  1.00  0.00    -0.118 C  
ENDBRANCH   4   9
BRANCH   7  11
HETATM   11  C   UNL     1      -7.917   8.505  68.221  1.00  0.00    -0.114 C  
BRANCH  11  12
HETATM   12  C   UNL     1      -7.282   7.577  67.177  1.00  0.00    -0.086 C  
BRANCH  12  13
HETATM   13  N   UNL     1      -7.844   7.372  65.838  1.00  0.00    -0.099 NA 
HETATM   14  C   UNL     1      -7.756   5.981  65.395  1.00  0.00    -0.091 C  
BRANCH  13  15
HETATM   15  C   UNL     1      -9.244   7.865  65.740  1.00  0.00     0.029 C  
BRANCH  15  16
HETATM   16  C   UNL     1      -9.707   9.106  66.567  1.00  0.00    -0.306 C  
BRANCH  16  17
HETATM   17  C   UNL     1     -10.820   9.952  65.908  1.00  0.00     0.426 C  
BRANCH  17  18
HETATM   18  C   UNL     1     -10.506  11.397  65.431  1.00  0.00    -0.336 C  
HETATM   19  N   UNL     1      -7.900  11.424  64.869  1.00  0.00     0.787 NA 
HETATM   20  C   UNL     1     -11.256  11.724  64.051  1.00  0.00    -0.461 C  
HETATM   21  C   UNL     1      -9.035  11.428  65.116  1.00  0.00     0.034 C  
HETATM   22  C   UNL     1     -12.793  11.715  64.091  1.00  0.00     0.122 C  
HETATM   23  C   UNL     1     -10.857  10.774  62.901  1.00  0.00     0.784 C  
BRANCH  18  24
HETATM   24  C   UNL     1     -10.876  12.352  66.571  1.00  0.00    -0.284 A  
HETATM   25  C   UNL     1     -11.320  11.878  67.817  1.00  0.00    -0.361 A  
HETATM   26  C   UNL     1     -11.839  12.734  68.794  1.00  0.00    -0.307 A  
HETATM   27  C   UNL     1     -10.926  13.741  66.351  1.00  0.00    -0.298 A  
HETATM   28  C   UNL     1     -11.889  14.114  68.537  1.00  0.00    -0.355 A  
HETATM   29  C   UNL     1     -11.406  14.605  67.328  1.00  0.00    -0.364 A  
BRANCH  26  30
HETATM   30  O   UNL     1     -12.341  12.306  69.996  1.00  0.00    -0.200 OA 
HETATM   31  C   UNL     1     -11.528  11.425  70.764  1.00  0.00     0.453 C  
ENDBRANCH  26  30
BRANCH  28  32
HETATM   32  O   UNL     1     -12.454  14.903  69.510  1.00  0.00    -0.205 OA 
HETATM   33  C   UNL     1     -11.643  15.203  70.639  1.00  0.00    -0.309 C  
ENDBRANCH  28  32
ENDBRANCH  18  24
ENDBRANCH  17  18
ENDBRANCH  16  17
ENDBRANCH  15  16
ENDBRANCH  13  15
ENDBRANCH  12  13
ENDBRANCH  11  12
ENDBRANCH   7  11
ENDBRANCH   2   3
TORSDOF 12
ENDMDL
MODEL      373
REMARK 921   NORMALIZED FREE ENERGY PREDICTED BY IDOCK:    3.05 KCAL/MOL
REMARK 922        TOTAL FREE ENERGY PREDICTED BY IDOCK:    2.97 KCAL/MOL
REMARK 923 INTER-LIGAND FREE ENERGY PREDICTED BY IDOCK:    0.71 KCAL/MOL
REMARK 924 INTRA-LIGAND FREE ENERGY PREDICTED BY IDOCK:    2.26 KCAL/MOL
REMARK 927      BINDING AFFINITY PREDICTED BY RF-SCORE:    0.00 PKD
ROOT
HETATM    1  C   UNL     1      -5.452  18.044  68.166  1.00  0.00    -0.156 C  
HETATM    2  O   UNL     1      -6.739  17.684  68.657  1.00  0.00    -0.199 OA 
ENDROOT
BRANCH   2   3
HETATM    3  C   UNL     1      -6.913  16.363  68.995  1.00  0.00    -0.200 A  
HETATM    4  C   UNL     1      -6.708  15.779  70.256  1.00  0.00     0.251 A  
HETATM    5  C   UNL     1      -7.431  14.171  68.070  1.00  0.00    -0.141 A  
HETATM    6  C   UNL     1      -6.881  14.392  70.404  1.00  0.00     0.157 A  
HETATM    7  C   UNL     1      -7.247  13.576  69.324  1.00  0.00     0.095 A  
HETATM    8  C   UNL     1      -7.258  15.550  67.910  1.00  0.00    -0.156 A  
BRANCH   4   9
HETATM    9  O   UNL     1      -6.292  16.592  71.277  1.00  0.00     1.361 OA 
HETATM   10  C   UNL     1      -5.606  15.988  72.365  1.00  0.00     1.081 C  
ENDBRANCH   4   9
BRANCH   7  11
HETATM   11  C   UNL     1      -7.258  12.058  69.496  1.00  0.00     0.246 C  
BRANCH  11  12
HETATM   12  C   UNL     1      -5.795  11.594  69.507  1.00  0.00    -0.080 C  
BRANCH  12  13
HETATM   13  N   UNL     1      -5.173  10.878  68.388  1.00  0.00    -0.040 NA 
HETATM   14  C   UNL     1      -5.199   9.427  68.562  1.00  0.00    -0.034 C  
BRANCH  13  15
HETATM   15  C   UNL     1      -5.771  11.259  67.081  1.00  0.00    -0.077 C  
BRANCH  15  16
HETATM   16  C   UNL     1      -7.198  11.889  67.016  1.00  0.00    -0.118 C  
BRANCH  16  17
HETATM   17  C   UNL     1      -8.359  10.871  66.934  1.00  0.00    -0.133 C  
BRANCH  17  18
HETATM   18  C   UNL     1      -8.878  10.409  65.544  1.00  0.00    -0.193 C  
HETATM   19  N   UNL     1      -6.720  10.225  63.989  1.00  0.00    -0.103 NA 
HETATM   20  C   UNL     1      -9.491   8.929  65.621  1.00  0.00    -0.230 C  
HETATM   21  C   UNL     1      -7.669  10.306  64.654  1.00  0.00    -0.114 C  
HETATM   22  C   UNL     1     -10.730   8.748  66.513  1.00  0.00     0.170 C  
HETATM   23  C   UNL     1      -8.471   7.871  66.094  1.00  0.00    -0.139 C  
BRANCH  18  24
HETATM   24  C   UNL     1      -9.876  11.461  65.049  1.00  0.00    -0.304 A  
HETATM   25  C   UNL     1     -10.604  12.266  65.942  1.00  0.00    -0.290 A  
HETATM   26  C   UNL     1     -11.650  13.089  65.513  1.00  0.00    -0.347 A  
HETATM   27  C   UNL     1     -10.204  11.548  63.684  1.00  0.00    -0.450 A  
HETATM   28  C   UNL     1     -11.962  13.141  64.144  1.00  0.00    -0.436 A  
HETATM   29  C   UNL     1     -11.218  12.390  63.241  1.00  0.00    -0.377 A  
BRANCH  26  30
HETATM   30  O   UNL     1     -12.426  13.841  66.358  1.00  0.00    -0.423 OA 
HETATM   31  C   UNL     1     -11.858  15.044  66.866  1.00  0.00    -0.098 C  
ENDBRANCH  26  30
BRANCH  28  32
HETATM   32  O   UNL     1     -13.030  13.928  63.784  1.00  0.00    -0.289 OA 
HETATM   33  C   UNL     1     -12.728  15.157  63.135  1.00  0.00     2.471 C  
ENDBRANCH  28  32
ENDBRANCH  18  24
ENDBRANCH  17  18
ENDBRANCH  16  17
ENDBRANCH  15  16
ENDBRANCH  13  15
ENDBRANCH  12  13
ENDBRANCH  11  12
ENDBRANCH   7  11
ENDBRANCH   2   3
TORSDOF 12
ENDMDL
MODEL      374
REMARK 921   NORMALIZED FREE ENERGY PREDICTED BY IDOCK:    3.26 KCAL/MOL
REMARK 922        TOTAL FREE ENERGY PREDICTED BY IDOCK:    3.33 KCAL/MOL
REMARK 923 INTER-LIGAND FREE ENERGY PREDICTED BY IDOCK:   -0.06 KCAL/MOL
REMARK 924 INTRA-LIGAND FREE ENERGY PREDICTED BY IDOCK:    3.39 KCAL/MOL
REMARK 927      BINDING AFFINITY PREDICTED BY RF-SCORE:    0.00 PKD
ROOT
HETATM    1  C   UNL     1     -10.451  18.879  68.576  1.00  0.00    -0.134 C  
HETATM    2  O   UNL     1      -9.829  17.946  69.454  1.00  0.00    -0.099 OA 
ENDROOT
BRANCH   2   3
HETATM    3  C   UNL     1      -8.832  17.171  68.911  1.00  0.00    -0.186 A  
HETATM    4  C   UNL     1      -7.502  17.073  69.352  1.00  0.00     0.033 A  
HETATM    5  C   UNL     1      -8.319  15.688  67.049  1.00  0.00    -0.261 A  
HETATM    6  C   UNL     1      -6.601  16.268  68.633  1.00  0.00    -0.135 A  
HETATM    7  C   UNL     1      -6.994  15.566  67.485  1.00  0.00    -0.223 A  
HETATM    8  C   UNL     1      -9.224  16.489  67.753  1.00  0.00    -0.202 A  
BRANCH   4   9
HETATM    9  O   UNL     1      -7.132  17.818  70.440  1.00  0.00     1.254 OA 
HETATM   10  C   UNL     1      -5.937  18.579  70.345  1.00  0.00    -0.032 C  
ENDBRANCH   4   9
BRANCH   7  11
HETATM   11  C   UNL     1      -5.941  14.843  66.646  1.00  0.00     2.362 C  
BRANCH  11  12
HETATM   12  C   UNL     1      -5.194  13.886  67.585  1.00  0.00     0.087 C  
BRANCH  12  13
HETATM   13  N   UNL     1      -5.865  13.087  68.616  1.00  0.00    -0.067 NA 
HETATM   14  C   UNL     1      -6.800  13.872  69.420  1.00  0.00    -0.065 C  
BRANCH  13  15
HETATM   15  C   UNL     1      -6.542  11.893  68.042  1.00  0.00    -0.063 C  
BRANCH  15  16
HETATM   16  C   UNL     1      -7.701  11.191  68.816  1.00  0.00    -0.136 C  
BRANCH  16  17
HETATM   17  C   UNL     1      -8.881  12.112  69.203  1.00  0.00     0.574 C  
BRANCH  17  18
HETATM   18  C   UNL     1     -10.332  11.555  69.174  1.00  0.00    -0.086 C  
HETATM   19  N   UNL     1     -11.818  13.337  70.487  1.00  0.00    -0.219 NA 
HETATM   20  C   UNL     1     -10.906  11.522  67.677  1.00  0.00    -0.277 C  
HETATM   21  C   UNL     1     -11.181  12.549  69.918  1.00  0.00     0.164 C  
HETATM   22  C   UNL     1     -10.178  10.599  66.686  1.00  0.00    -0.284 C  
HETATM   23  C   UNL     1     -10.946  12.913  67.009  1.00  0.00    -0.290 C  
BRANCH  18  24
HETATM   24  C   UNL     1     -10.314  10.182  69.855  1.00  0.00    -0.308 A  
HETATM   25  C   UNL     1     -11.456   9.655  70.482  1.00  0.00    -0.352 A  
HETATM   26  C   UNL     1     -11.403   8.498  71.267  1.00  0.00    -0.271 A  
HETATM   27  C   UNL     1      -9.109   9.472  70.001  1.00  0.00    -0.255 A  
HETATM   28  C   UNL     1     -10.179   7.821  71.405  1.00  0.00    -0.182 A  
HETATM   29  C   UNL     1      -9.051   8.302  70.748  1.00  0.00    -0.168 A  
BRANCH  26  30
HETATM   30  O   UNL     1     -12.478   7.986  71.947  1.00  0.00    -0.308 OA 
HETATM   31  C   UNL     1     -13.025   8.782  72.993  1.00  0.00     0.395 C  
ENDBRANCH  26  30
BRANCH  28  32
HETATM   32  O   UNL     1     -10.173   6.720  72.227  1.00  0.00    -0.188 OA 
HETATM   33  C   UNL     1      -8.957   5.984  72.298  1.00  0.00    -0.141 C  
ENDBRANCH  28  32
ENDBRANCH  18  24
ENDBRANCH  17  18
ENDBRANCH  16  17
ENDBRANCH  15  16
ENDBRANCH  13  15
ENDBRANCH  12  13
ENDBRANCH  11  12
ENDBRANCH   7  11
ENDBRANCH   2   3
TORSDOF 12
ENDMDL
MODEL      375
REMARK 921   NORMALIZED FREE ENERGY PREDICTED BY IDOCK:    3.37 KCAL/MOL
REMARK 922        TOTAL FREE ENERGY PREDICTED BY IDOCK:    3.51 KCAL/MOL
REMARK 923 INTER-LIGAND FREE ENERGY PREDICTED BY IDOCK:    1.91 KCAL/MOL
REMARK 924 INTRA-LIGAND FREE ENERGY PREDICTED BY IDOCK:    1.60 KCAL/MOL
REMARK 927      BINDING AFFINITY PREDICTED BY RF-SCORE:    0.00 PKD
ROOT
HETATM    1  C   UNL     1      -7.129  14.274  73.188  1.00  0.00     4.078 C  
HETATM    2  O   UNL     1      -6.596  15.062  72.129  1.00  0.00     1.197 OA 
ENDROOT
BRANCH   2   3
HETATM    3  C   UNL     1      -6.209  14.381  71.000  1.00  0.00    -0.012 A  
HETATM    4  C   UNL     1      -6.234  14.854  69.677  1.00  0.00    -0.133 A  
HETATM    5  C   UNL     1      -5.448  12.209  70.204  1.00  0.00    -0.122 A  
HETATM    6  C   UNL     1      -5.851  13.991  68.635  1.00  0.00    -0.085 A  
HETATM    7  C   UNL     1      -5.451  12.670  68.882  1.00  0.00    -0.063 A  
HETATM    8  C   UNL     1      -5.830  13.057  71.249  1.00  0.00     0.213 A  
BRANCH   4   9
HETATM    9  O   UNL     1      -6.687  16.128  69.461  1.00  0.00    -0.193 OA 
HETATM   10  C   UNL     1      -5.780  17.067  68.901  1.00  0.00    -0.143 C  
ENDBRANCH   4   9
BRANCH   7  11
HETATM   11  C   UNL     1      -5.208  11.723  67.707  1.00  0.00    -0.057 C  
BRANCH  11  12
HETATM   12  C   UNL     1      -6.365  11.922  66.720  1.00  0.00    -0.038 C  
BRANCH  12  13
HETATM   13  N   UNL     1      -7.520  11.021  66.646  1.00  0.00    -0.141 NA 
HETATM   14  C   UNL     1      -8.777  11.685  66.985  1.00  0.00    -0.173 C  
BRANCH  13  15
HETATM   15  C   UNL     1      -7.621  10.354  65.320  1.00  0.00    -0.118 C  
BRANCH  15  16
HETATM   16  C   UNL     1      -8.197   8.908  65.202  1.00  0.00    -0.143 C  
BRANCH  16  17
HETATM   17  C   UNL     1      -9.291   8.554  66.235  1.00  0.00    -0.287 C  
BRANCH  17  18
HETATM   18  C   UNL     1      -9.146   7.269  67.098  1.00  0.00    -0.144 C  
HETATM   19  N   UNL     1     -11.275   5.769  66.527  1.00  0.00     0.030 NA 
HETATM   20  C   UNL     1      -7.869   6.411  66.644  1.00  0.00    -0.104 C  
HETATM   21  C   UNL     1     -10.346   6.415  66.789  1.00  0.00    -0.213 C  
HETATM   22  C   UNL     1      -6.497   7.083  66.818  1.00  0.00    -0.051 C  
HETATM   23  C   UNL     1      -7.934   5.957  65.169  1.00  0.00    -0.121 C  
BRANCH  18  24
HETATM   24  C   UNL     1      -9.103   7.701  68.568  1.00  0.00    -0.131 A  
HETATM   25  C   UNL     1      -7.997   7.417  69.388  1.00  0.00    -0.124 A  
HETATM   26  C   UNL     1      -8.026   7.634  70.770  1.00  0.00    -0.102 A  
HETATM   27  C   UNL     1     -10.237   8.264  69.180  1.00  0.00    -0.223 A  
HETATM   28  C   UNL     1      -9.180   8.184  71.352  1.00  0.00    -0.153 A  
HETATM   29  C   UNL     1     -10.263   8.518  70.547  1.00  0.00    -0.220 A  
BRANCH  26  30
HETATM   30  O   UNL     1      -6.994   7.312  71.614  1.00  0.00    -0.058 OA 
HETATM   31  C   UNL     1      -7.337   6.884  72.927  1.00  0.00    -0.078 C  
ENDBRANCH  26  30
BRANCH  28  32
HETATM   32  O   UNL     1      -9.171   8.329  72.719  1.00  0.00    -0.240 OA 
HETATM   33  C   UNL     1     -10.394   8.063  73.396  1.00  0.00     0.064 C  
ENDBRANCH  28  32
ENDBRANCH  18  24
ENDBRANCH  17  18
ENDBRANCH  16  17
ENDBRANCH  15  16
ENDBRANCH  13  15
ENDBRANCH  12  13
ENDBRANCH  11  12
ENDBRANCH   7  11
ENDBRANCH   2   3
TORSDOF 12
ENDMDL
MODEL      376
REMARK 921   NORMALIZED FREE ENERGY PREDICTED BY IDOCK:    4.73 KCAL/MOL
REMARK 922        TOTAL FREE ENERGY PREDICTED BY IDOCK:    5.82 KCAL/MOL
REMARK 923 INTER-LIGAND FREE ENERGY PREDICTED BY IDOCK:   -1.31 KCAL/MOL
REMARK 924 INTRA-LIGAND FREE ENERGY PREDICTED BY IDOCK:    7.13 KCAL/MOL
REMARK 927      BINDING AFFINITY PREDICTED BY RF-SCORE:    0.00 PKD
ROOT
HETATM    1  C   UNL     1     -11.758   5.249  68.109  1.00  0.00     3.747 C  
HETATM    2  O   UNL     1     -11.153   6.529  67.958  1.00  0.00    -0.289 OA 
ENDROOT
BRANCH   2   3
HETATM    3  C   UNL     1     -10.054   6.589  67.135  1.00  0.00    -0.170 A  
HETATM    4  C   UNL     1      -9.313   5.506  66.634  1.00  0.00    -0.141 A  
HETATM    5  C   UNL     1      -8.501   8.136  66.075  1.00  0.00    -0.150 A  
HETATM    6  C   UNL     1      -8.176   5.761  65.846  1.00  0.00    -0.121 A  
HETATM    7  C   UNL     1      -7.761   7.068  65.554  1.00  0.00    -0.105 A  
HETATM    8  C   UNL     1      -9.632   7.895  66.863  1.00  0.00    -0.263 A  
BRANCH   4   9
HETATM    9  O   UNL     1      -9.707   4.243  66.986  1.00  0.00    -0.197 OA 
HETATM   10  C   UNL     1      -8.802   3.457  67.750  1.00  0.00    -0.128 C  
ENDBRANCH   4   9
BRANCH   7  11
HETATM   11  C   UNL     1      -6.429   7.294  64.839  1.00  0.00    -0.037 C  
BRANCH  11  12
HETATM   12  C   UNL     1      -6.726   8.121  63.581  1.00  0.00    -0.075 C  
BRANCH  12  13
HETATM   13  N   UNL     1      -7.384   9.432  63.619  1.00  0.00    -0.104 NA 
HETATM   14  C   UNL     1      -8.837   9.338  63.486  1.00  0.00    -0.118 C  
BRANCH  13  15
HETATM   15  C   UNL     1      -7.019  10.202  64.837  1.00  0.00    -0.131 C  
BRANCH  15  16
HETATM   16  C   UNL     1      -8.110  10.605  65.878  1.00  0.00    -0.159 C  
BRANCH  16  17
HETATM   17  C   UNL     1      -7.840  10.132  67.325  1.00  0.00    -0.103 C  
BRANCH  17  18
HETATM   18  C   UNL     1      -7.739  11.179  68.469  1.00  0.00    -0.129 C  
HETATM   19  N   UNL     1      -8.251   9.844  70.720  1.00  0.00    -0.071 NA 
HETATM   20  C   UNL     1      -6.239  11.728  68.616  1.00  0.00    -0.054 C  
HETATM   21  C   UNL     1      -8.032  10.439  69.746  1.00  0.00    -0.067 C  
HETATM   22  C   UNL     1      -5.673  12.499  67.412  1.00  0.00    -0.124 C  
HETATM   23  C   UNL     1      -5.212  10.619  68.930  1.00  0.00    -0.041 C  
BRANCH  18  24
HETATM   24  C   UNL     1      -8.769  12.278  68.185  1.00  0.00    -0.186 A  
HETATM   25  C   UNL     1      -8.381  13.565  67.774  1.00  0.00    -0.181 A  
HETATM   26  C   UNL     1      -9.292  14.623  67.698  1.00  0.00    -0.200 A  
HETATM   27  C   UNL     1     -10.130  12.072  68.472  1.00  0.00    -0.201 A  
HETATM   28  C   UNL     1     -10.642  14.388  68.007  1.00  0.00    -0.241 A  
HETATM   29  C   UNL     1     -11.051  13.108  68.365  1.00  0.00    -0.298 A  
BRANCH  26  30
HETATM   30  O   UNL     1      -8.944  15.907  67.364  1.00  0.00    -0.187 OA 
HETATM   31  C   UNL     1      -7.877  16.073  66.438  1.00  0.00    -0.092 C  
ENDBRANCH  26  30
BRANCH  28  32
HETATM   32  O   UNL     1     -11.484  15.473  67.963  1.00  0.00    -0.342 OA 
HETATM   33  C   UNL     1     -10.886  16.751  68.147  1.00  0.00    -0.353 C  
ENDBRANCH  28  32
ENDBRANCH  18  24
ENDBRANCH  17  18
ENDBRANCH  16  17
ENDBRANCH  15  16
ENDBRANCH  13  15
ENDBRANCH  12  13
ENDBRANCH  11  12
ENDBRANCH   7  11
ENDBRANCH   2   3
TORSDOF 12
ENDMDL
MODEL      377
REMARK 921   NORMALIZED FREE ENERGY PREDICTED BY IDOCK:    4.76 KCAL/MOL
REMARK 922        TOTAL FREE ENERGY PREDICTED BY IDOCK:    5.88 KCAL/MOL
REMARK 923 INTER-LIGAND FREE ENERGY PREDICTED BY IDOCK:    0.23 KCAL/MOL
REMARK 924 INTRA-LIGAND FREE ENERGY PREDICTED BY IDOCK:    5.65 KCAL/MOL
REMARK 927      BINDING AFFINITY PREDICTED BY RF-SCORE:    0.00 PKD
ROOT
HETATM    1  C   UNL     1      -9.464   7.591  69.735  1.00  0.00    -0.156 C  
HETATM    2  O   UNL     1      -8.481   7.489  68.710  1.00  0.00    -0.128 OA 
ENDROOT
BRANCH   2   3
HETATM    3  C   UNL     1      -7.678   8.589  68.525  1.00  0.00    -0.103 A  
HETATM    4  C   UNL     1      -6.720   9.096  69.418  1.00  0.00    -0.048 A  
HETATM    5  C   UNL     1      -7.245  10.448  67.013  1.00  0.00    -0.093 A  
HETATM    6  C   UNL     1      -6.028  10.274  69.084  1.00  0.00    -0.037 A  
HETATM    7  C   UNL     1      -6.274  10.957  67.884  1.00  0.00    -0.054 A  
HETATM    8  C   UNL     1      -7.942   9.279  67.336  1.00  0.00    -0.106 A  
BRANCH   4   9
HETATM    9  O   UNL     1      -6.545   8.442  70.608  1.00  0.00    -0.036 OA 
HETATM   10  C   UNL     1      -5.954   9.164  71.680  1.00  0.00    -0.072 C  
ENDBRANCH   4   9
BRANCH   7  11
HETATM   11  C   UNL     1      -5.621  12.317  67.644  1.00  0.00    -0.107 C  
BRANCH  11  12
HETATM   12  C   UNL     1      -5.959  13.200  68.853  1.00  0.00    -0.079 C  
BRANCH  12  13
HETATM   13  N   UNL     1      -7.310  13.700  69.129  1.00  0.00    -0.017 NA 
HETATM   14  C   UNL     1      -7.364  15.157  69.228  1.00  0.00    -0.188 C  
BRANCH  13  15
HETATM   15  C   UNL     1      -8.300  13.206  68.135  1.00  0.00    -0.161 C  
BRANCH  15  16
HETATM   16  C   UNL     1      -9.831  13.300  68.427  1.00  0.00    -0.218 C  
BRANCH  16  17
HETATM   17  C   UNL     1     -10.618  14.244  67.490  1.00  0.00    -0.261 C  
BRANCH  17  18
HETATM   18  C   UNL     1     -10.519  15.782  67.691  1.00  0.00    -0.282 C  
HETATM   19  N   UNL     1     -12.155  16.856  65.880  1.00  0.00     2.603 NA 
HETATM   20  C   UNL     1     -11.102  16.215  69.121  1.00  0.00    -0.329 C  
HETATM   21  C   UNL     1     -11.434  16.402  66.670  1.00  0.00     0.661 C  
HETATM   22  C   UNL     1     -10.360  15.673  70.354  1.00  0.00    -0.106 C  
HETATM   23  C   UNL     1     -12.585  15.831  69.316  1.00  0.00     0.343 C  
BRANCH  18  24
HETATM   24  C   UNL     1      -9.055  16.184  67.478  1.00  0.00    -0.207 A  
HETATM   25  C   UNL     1      -8.547  17.404  67.959  1.00  0.00    -0.240 A  
HETATM   26  C   UNL     1      -7.274  17.865  67.608  1.00  0.00    -0.201 A  
HETATM   27  C   UNL     1      -8.213  15.408  66.663  1.00  0.00    -0.199 A  
HETATM   28  C   UNL     1      -6.464  17.072  66.779  1.00  0.00    -0.223 A  
HETATM   29  C   UNL     1      -6.932  15.840  66.337  1.00  0.00     1.089 A  
BRANCH  26  30
HETATM   30  O   UNL     1      -6.766  19.076  68.003  1.00  0.00    -0.225 OA 
HETATM   31  C   UNL     1      -7.584  20.223  67.802  1.00  0.00    -0.275 C  
ENDBRANCH  26  30
BRANCH  28  32
HETATM   32  O   UNL     1      -5.243  17.596  66.426  1.00  0.00    -0.148 OA 
HETATM   33  C   UNL     1      -5.207  18.393  65.248  1.00  0.00    -0.171 C  
ENDBRANCH  28  32
ENDBRANCH  18  24
ENDBRANCH  17  18
ENDBRANCH  16  17
ENDBRANCH  15  16
ENDBRANCH  13  15
ENDBRANCH  12  13
ENDBRANCH  11  12
ENDBRANCH   7  11
ENDBRANCH   2   3
TORSDOF 12
ENDMDL
MODEL      378
REMARK 921   NORMALIZED FREE ENERGY PREDICTED BY IDOCK:    4.78 KCAL/MOL
REMARK 922        TOTAL FREE ENERGY PREDICTED BY IDOCK:    5.91 KCAL/MOL
REMARK 923 INTER-LIGAND FREE ENERGY PREDICTED BY IDOCK:    5.61 KCAL/MOL
REMARK 924 INTRA-LIGAND FREE ENERGY PREDICTED BY IDOCK:    0.30 KCAL/MOL
REMARK 927      BINDING AFFINITY PREDICTED BY RF-SCORE:    0.00 PKD
ROOT
HETATM    1  C   UNL     1      -5.256  20.256  73.217  1.00  0.00     5.581 C  
HETATM    2  O   UNL     1      -5.128  19.050  72.470  1.00  0.00    -0.307 OA 
ENDROOT
BRANCH   2   3
HETATM    3  C   UNL     1      -5.784  19.010  71.263  1.00  0.00    -0.034 A  
HETATM    4  C   UNL     1      -5.987  17.884  70.448  1.00  0.00     0.053 A  
HETATM    5  C   UNL     1      -6.853  20.412  69.584  1.00  0.00     0.053 A  
HETATM    6  C   UNL     1      -6.635  18.043  69.211  1.00  0.00    -0.233 A  
HETATM    7  C   UNL     1      -7.079  19.297  68.768  1.00  0.00    -0.375 A  
HETATM    8  C   UNL     1      -6.206  20.267  70.816  1.00  0.00    -0.242 A  
BRANCH   4   9
HETATM    9  O   UNL     1      -5.489  16.684  70.880  1.00  0.00    -0.136 OA 
HETATM   10  C   UNL     1      -5.900  15.511  70.192  1.00  0.00    -0.148 C  
ENDBRANCH   4   9
BRANCH   7  11
HETATM   11  C   UNL     1      -7.624  19.445  67.348  1.00  0.00    -0.269 C  
BRANCH  11  12
HETATM   12  C   UNL     1      -6.700  18.642  66.423  1.00  0.00    -0.207 C  
BRANCH  12  13
HETATM   13  N   UNL     1      -6.946  18.479  64.986  1.00  0.00    -0.276 NA 
HETATM   14  C   UNL     1      -5.773  17.990  64.264  1.00  0.00     0.909 C  
BRANCH  13  15
HETATM   15  C   UNL     1      -8.125  17.614  64.718  1.00  0.00     4.943 C  
BRANCH  15  16
HETATM   16  C   UNL     1      -9.336  17.596  65.703  1.00  0.00     0.457 C  
BRANCH  16  17
HETATM   17  C   UNL     1     -10.027  16.222  65.865  1.00  0.00    -0.366 C  
BRANCH  17  18
HETATM   18  C   UNL     1      -9.496  15.216  66.923  1.00  0.00    -0.253 C  
HETATM   19  N   UNL     1      -6.896  15.745  67.188  1.00  0.00    -0.242 NA 
HETATM   20  C   UNL     1     -10.149  15.494  68.361  1.00  0.00    -0.214 C  
HETATM   21  C   UNL     1      -8.026  15.500  67.078  1.00  0.00    -0.233 C  
HETATM   22  C   UNL     1     -11.673  15.312  68.466  1.00  0.00    -0.352 C  
HETATM   23  C   UNL     1      -9.854  16.910  68.901  1.00  0.00    -0.267 C  
BRANCH  18  24
HETATM   24  C   UNL     1      -9.761  13.802  66.392  1.00  0.00    -0.304 A  
HETATM   25  C   UNL     1      -8.872  12.742  66.638  1.00  0.00    -0.113 A  
HETATM   26  C   UNL     1      -9.003  11.503  66.004  1.00  0.00    -0.176 A  
HETATM   27  C   UNL     1     -10.833  13.559  65.514  1.00  0.00    -0.293 A  
HETATM   28  C   UNL     1     -10.076  11.297  65.120  1.00  0.00    -0.275 A  
HETATM   29  C   UNL     1     -10.994  12.319  64.905  1.00  0.00    -0.344 A  
BRANCH  26  30
HETATM   30  O   UNL     1      -8.122  10.465  66.166  1.00  0.00    -0.128 OA 
HETATM   31  C   UNL     1      -8.201   9.728  67.381  1.00  0.00    -0.114 C  
ENDBRANCH  26  30
BRANCH  28  32
HETATM   32  O   UNL     1     -10.128  10.079  64.486  1.00  0.00    -0.243 OA 
HETATM   33  C   UNL     1      -9.218   9.879  63.411  1.00  0.00    -0.240 C  
ENDBRANCH  28  32
ENDBRANCH  18  24
ENDBRANCH  17  18
ENDBRANCH  16  17
ENDBRANCH  15  16
ENDBRANCH  13  15
ENDBRANCH  12  13
ENDBRANCH  11  12
ENDBRANCH   7  11
ENDBRANCH   2   3
TORSDOF 12
ENDMDL
MODEL      379
REMARK 921   NORMALIZED FREE ENERGY PREDICTED BY IDOCK:    5.51 KCAL/MOL
REMARK 922        TOTAL FREE ENERGY PREDICTED BY IDOCK:    7.15 KCAL/MOL
REMARK 923 INTER-LIGAND FREE ENERGY PREDICTED BY IDOCK:    7.05 KCAL/MOL
REMARK 924 INTRA-LIGAND FREE ENERGY PREDICTED BY IDOCK:    0.10 KCAL/MOL
REMARK 927      BINDING AFFINITY PREDICTED BY RF-SCORE:    0.00 PKD
ROOT
HETATM    1  C   UNL     1     -14.080  12.023  69.920  1.00  0.00     6.148 C  
HETATM    2  O   UNL     1     -12.891  12.062  70.702  1.00  0.00    -0.111 OA 
ENDROOT
BRANCH   2   3
HETATM    3  C   UNL     1     -11.713  12.211  70.011  1.00  0.00    -0.252 A  
HETATM    4  C   UNL     1     -11.065  11.245  69.224  1.00  0.00    -0.255 A  
HETATM    5  C   UNL     1      -9.873  13.757  69.617  1.00  0.00     0.910 A  
HETATM    6  C   UNL     1      -9.828  11.560  68.634  1.00  0.00    -0.184 A  
HETATM    7  C   UNL     1      -9.223  12.811  68.816  1.00  0.00     0.159 A  
HETATM    8  C   UNL     1     -11.102  13.455  70.213  1.00  0.00     0.580 A  
BRANCH   4   9
HETATM    9  O   UNL     1     -11.651  10.012  69.115  1.00  0.00    -0.104 OA 
HETATM   10  C   UNL     1     -11.683   9.190  70.273  1.00  0.00    -0.017 C  
ENDBRANCH   4   9
BRANCH   7  11
HETATM   11  C   UNL     1      -7.805  13.045  68.295  1.00  0.00    -0.143 C  
BRANCH  11  12
HETATM   12  C   UNL     1      -7.628  12.162  67.053  1.00  0.00    -0.093 C  
BRANCH  12  13
HETATM   13  N   UNL     1      -6.363  11.504  66.710  1.00  0.00    -0.144 NA 
HETATM   14  C   UNL     1      -5.398  12.418  66.103  1.00  0.00     1.739 C  
BRANCH  13  15
HETATM   15  C   UNL     1      -5.762  10.809  67.879  1.00  0.00    -0.042 C  
BRANCH  15  16
HETATM   16  C   UNL     1      -5.394   9.294  67.798  1.00  0.00    -0.034 C  
BRANCH  16  17
HETATM   17  C   UNL     1      -6.590   8.342  67.569  1.00  0.00    -0.058 C  
BRANCH  17  18
HETATM   18  C   UNL     1      -6.963   7.302  68.662  1.00  0.00    -0.082 C  
HETATM   19  N   UNL     1      -5.438   7.886  70.770  1.00  0.00    -0.026 NA 
HETATM   20  C   UNL     1      -8.479   7.496  69.149  1.00  0.00    -0.136 C  
HETATM   21  C   UNL     1      -6.105   7.617  69.857  1.00  0.00    -0.027 C  
HETATM   22  C   UNL     1      -9.571   7.270  68.091  1.00  0.00    -0.145 C  
HETATM   23  C   UNL     1      -8.752   8.894  69.747  1.00  0.00    -0.139 C  
BRANCH  18  24
HETATM   24  C   UNL     1      -6.677   5.908  68.092  1.00  0.00    -0.058 A  
HETATM   25  C   UNL     1      -7.363   5.415  66.968  1.00  0.00    -0.083 A  
HETATM   26  C   UNL     1      -7.249   4.083  66.558  1.00  0.00    -0.068 A  
HETATM   27  C   UNL     1      -5.822   5.021  68.771  1.00  0.00    -0.020 A  
HETATM   28  C   UNL     1      -6.399   3.218  67.267  1.00  0.00    -0.036 A  
HETATM   29  C   UNL     1      -5.674   3.704  68.350  1.00  0.00    -0.022 A  
BRANCH  26  30
HETATM   30  O   UNL     1      -7.948   3.546  65.507  1.00  0.00    -0.091 OA 
HETATM   31  C   UNL     1      -7.930   4.263  64.278  1.00  0.00    -0.090 C  
ENDBRANCH  26  30
BRANCH  28  32
HETATM   32  O   UNL     1      -6.363   1.909  66.851  1.00  0.00    -0.023 OA 
HETATM   33  C   UNL     1      -5.374   1.573  65.886  1.00  0.00    -0.005 C  
ENDBRANCH  28  32
ENDBRANCH  18  24
ENDBRANCH  17  18
ENDBRANCH  16  17
ENDBRANCH  15  16
ENDBRANCH  13  15
ENDBRANCH  12  13
ENDBRANCH  11  12
ENDBRANCH   7  11
ENDBRANCH   2   3
TORSDOF 12
ENDMDL
MODEL      380
REMARK 921   NORMALIZED FREE ENERGY PREDICTED BY IDOCK:    5.70 KCAL/MOL
REMARK 922        TOTAL FREE ENERGY PREDICTED BY IDOCK:    7.47 KCAL/MOL
REMARK 923 INTER-LIGAND FREE ENERGY PREDICTED BY IDOCK:    4.25 KCAL/MOL
REMARK 924 INTRA-LIGAND FREE ENERGY PREDICTED BY IDOCK:    3.22 KCAL/MOL
REMARK 927      BINDING AFFINITY PREDICTED BY RF-SCORE:    0.00 PKD
ROOT
HETATM    1  C   UNL     1     -12.708  10.236  68.936  1.00  0.00     1.927 C  
HETATM    2  O   UNL     1     -11.742  10.822  69.802  1.00  0.00    -0.270 OA 
ENDROOT
BRANCH   2   3
HETATM    3  C   UNL     1     -10.470  10.950  69.298  1.00  0.00    -0.202 A  
HETATM    4  C   UNL     1     -10.095  10.967  67.944  1.00  0.00    -0.177 A  
HETATM    5  C   UNL     1      -8.126  11.072  69.944  1.00  0.00     0.743 A  
HETATM    6  C   UNL     1      -8.731  11.048  67.613  1.00  0.00    -0.128 A  
HETATM    7  C   UNL     1      -7.736  11.107  68.599  1.00  0.00    -0.135 A  
HETATM    8  C   UNL     1      -9.480  10.988  70.285  1.00  0.00     1.810 A  
BRANCH   4   9
HETATM    9  O   UNL     1     -11.085  10.847  67.005  1.00  0.00    -0.272 OA 
HETATM   10  C   UNL     1     -10.737  11.071  65.645  1.00  0.00    -0.148 C  
ENDBRANCH   4   9
BRANCH   7  11
HETATM   11  C   UNL     1      -6.266  11.024  68.192  1.00  0.00    -0.049 C  
BRANCH  11  12
HETATM   12  C   UNL     1      -5.480  11.927  69.152  1.00  0.00    -0.052 C  
BRANCH  12  13
HETATM   13  N   UNL     1      -5.196  13.339  68.875  1.00  0.00    -0.072 NA 
HETATM   14  C   UNL     1      -5.428  13.698  67.478  1.00  0.00     0.110 C  
BRANCH  13  15
HETATM   15  C   UNL     1      -5.950  14.246  69.781  1.00  0.00    -0.120 C  
BRANCH  15  16
HETATM   16  C   UNL     1      -7.409  14.680  69.434  1.00  0.00    -0.135 C  
BRANCH  16  17
HETATM   17  C   UNL     1      -7.596  15.269  68.018  1.00  0.00    -0.133 C  
BRANCH  17  18
HETATM   18  C   UNL     1      -8.642  16.396  67.787  1.00  0.00    -0.172 C  
HETATM   19  N   UNL     1      -9.757  16.848  70.167  1.00  0.00     0.948 NA 
HETATM   20  C   UNL     1      -7.927  17.769  67.369  1.00  0.00    -0.221 C  
HETATM   21  C   UNL     1      -9.284  16.657  69.123  1.00  0.00    -0.167 C  
HETATM   22  C   UNL     1      -7.153  17.760  66.041  1.00  0.00    -0.335 C  
HETATM   23  C   UNL     1      -6.936  18.288  68.433  1.00  0.00    -0.251 C  
BRANCH  18  24
HETATM   24  C   UNL     1      -9.649  15.888  66.748  1.00  0.00    -0.252 A  
HETATM   25  C   UNL     1     -10.940  15.471  67.114  1.00  0.00    -0.295 A  
HETATM   26  C   UNL     1     -11.795  14.830  66.211  1.00  0.00    -0.209 A  
HETATM   27  C   UNL     1      -9.255  15.684  65.414  1.00  0.00     0.324 A  
HETATM   28  C   UNL     1     -11.365  14.628  64.889  1.00  0.00    -0.403 A  
HETATM   29  C   UNL     1     -10.110  15.081  64.498  1.00  0.00     0.605 A  
BRANCH  26  30
HETATM   30  O   UNL     1     -13.036  14.351  66.543  1.00  0.00     0.165 OA 
HETATM   31  C   UNL     1     -13.110  13.015  67.029  1.00  0.00     2.799 C  
ENDBRANCH  26  30
BRANCH  28  32
HETATM   32  O   UNL     1     -12.225  13.950  64.058  1.00  0.00    -0.573 OA 
HETATM   33  C   UNL     1     -12.645  12.661  64.489  1.00  0.00    -0.412 C  
ENDBRANCH  28  32
ENDBRANCH  18  24
ENDBRANCH  17  18
ENDBRANCH  16  17
ENDBRANCH  15  16
ENDBRANCH  13  15
ENDBRANCH  12  13
ENDBRANCH  11  12
ENDBRANCH   7  11
ENDBRANCH   2   3
TORSDOF 12
ENDMDL
MODEL      381
REMARK 921   NORMALIZED FREE ENERGY PREDICTED BY IDOCK:    6.23 KCAL/MOL
REMARK 922        TOTAL FREE ENERGY PREDICTED BY IDOCK:    8.39 KCAL/MOL
REMARK 923 INTER-LIGAND FREE ENERGY PREDICTED BY IDOCK:    6.25 KCAL/MOL
REMARK 924 INTRA-LIGAND FREE ENERGY PREDICTED BY IDOCK:    2.13 KCAL/MOL
REMARK 927      BINDING AFFINITY PREDICTED BY RF-SCORE:    0.00 PKD
ROOT
HETATM    1  C   UNL     1      -9.068  14.512  63.913  1.00  0.00     7.834 C  
HETATM    2  O   UNL     1      -9.758  13.311  63.582  1.00  0.00     0.447 OA 
ENDROOT
BRANCH   2   3
HETATM    3  C   UNL     1      -9.747  12.321  64.535  1.00  0.00     0.008 A  
HETATM    4  C   UNL     1     -10.282  11.028  64.417  1.00  0.00    -0.346 A  
HETATM    5  C   UNL     1      -9.149  11.858  66.849  1.00  0.00    -0.196 A  
HETATM    6  C   UNL     1     -10.230  10.163  65.524  1.00  0.00    -0.288 A  
HETATM    7  C   UNL     1      -9.663  10.560  66.743  1.00  0.00    -0.220 A  
HETATM    8  C   UNL     1      -9.198  12.729  65.756  1.00  0.00     0.179 A  
BRANCH   4   9
HETATM    9  O   UNL     1     -10.884  10.690  63.235  1.00  0.00     0.198 OA 
HETATM   10  C   UNL     1     -11.961  11.501  62.785  1.00  0.00     0.821 C  
ENDBRANCH   4   9
BRANCH   7  11
HETATM   11  C   UNL     1      -9.781   9.646  67.963  1.00  0.00    -0.167 C  
BRANCH  11  12
HETATM   12  C   UNL     1     -10.319  10.502  69.117  1.00  0.00    -0.220 C  
BRANCH  12  13
HETATM   13  N   UNL     1     -10.547   9.976  70.467  1.00  0.00    -0.288 NA 
HETATM   14  C   UNL     1     -11.782  10.477  71.068  1.00  0.00    -0.289 C  
BRANCH  13  15
HETATM   15  C   UNL     1     -10.515   8.489  70.498  1.00  0.00    -0.204 C  
BRANCH  15  16
HETATM   16  C   UNL     1      -9.366   7.706  69.788  1.00  0.00    -0.150 C  
BRANCH  16  17
HETATM   17  C   UNL     1      -8.073   8.518  69.548  1.00  0.00    -0.111 C  
BRANCH  17  18
HETATM   18  C   UNL     1      -6.702   7.920  69.970  1.00  0.00    -0.041 C  
HETATM   19  N   UNL     1      -5.200   7.926  67.767  1.00  0.00    -0.031 NA 
HETATM   20  C   UNL     1      -5.952   8.878  71.015  1.00  0.00    -0.045 C  
HETATM   21  C   UNL     1      -5.845   7.912  68.733  1.00  0.00    -0.035 C  
HETATM   22  C   UNL     1      -6.650   9.092  72.369  1.00  0.00     0.127 C  
HETATM   23  C   UNL     1      -5.674  10.290  70.455  1.00  0.00    -0.085 C  
BRANCH  18  24
HETATM   24  C   UNL     1      -6.957   6.507  70.509  1.00  0.00    -0.064 A  
HETATM   25  C   UNL     1      -7.419   6.289  71.818  1.00  0.00    -0.094 A  
HETATM   26  C   UNL     1      -7.473   5.010  72.380  1.00  0.00    -0.094 A  
HETATM   27  C   UNL     1      -6.593   5.379  69.753  1.00  0.00    -0.046 A  
HETATM   28  C   UNL     1      -7.087   3.904  71.603  1.00  0.00    -0.038 A  
HETATM   29  C   UNL     1      -6.677   4.099  70.289  1.00  0.00    -0.033 A  
BRANCH  26  30
HETATM   30  O   UNL     1      -7.856   4.759  73.673  1.00  0.00    -0.093 OA 
HETATM   31  C   UNL     1      -8.820   5.634  74.247  1.00  0.00    -0.121 C  
ENDBRANCH  26  30
BRANCH  28  32
HETATM   32  O   UNL     1      -7.112   2.677  72.221  1.00  0.00    -0.032 OA 
HETATM   33  C   UNL     1      -7.014   1.535  71.378  1.00  0.00    -0.027 C  
ENDBRANCH  28  32
ENDBRANCH  18  24
ENDBRANCH  17  18
ENDBRANCH  16  17
ENDBRANCH  15  16
ENDBRANCH  13  15
ENDBRANCH  12  13
ENDBRANCH  11  12
ENDBRANCH   7  11
ENDBRANCH   2   3
TORSDOF 12
ENDMDL
MODEL      382
REMARK 921   NORMALIZED FREE ENERGY PREDICTED BY IDOCK:    6.37 KCAL/MOL
REMARK 922        TOTAL FREE ENERGY PREDICTED BY IDOCK:    8.61 KCAL/MOL
REMARK 923 INTER-LIGAND FREE ENERGY PREDICTED BY IDOCK:    5.34 KCAL/MOL
REMARK 924 INTRA-LIGAND FREE ENERGY PREDICTED BY IDOCK:    3.27 KCAL/MOL
REMARK 927      BINDING AFFINITY PREDICTED BY RF-SCORE:    0.00 PKD
ROOT
HETATM    1  C   UNL     1     -10.655  19.559  69.277  1.00  0.00     0.542 C  
HETATM    2  O   UNL     1      -9.963  18.431  69.803  1.00  0.00     0.238 OA 
ENDROOT
BRANCH   2   3
HETATM    3  C   UNL     1      -9.001  17.876  68.993  1.00  0.00    -0.004 A  
HETATM    4  C   UNL     1      -7.872  17.146  69.398  1.00  0.00     0.219 A  
HETATM    5  C   UNL     1      -8.267  17.716  66.677  1.00  0.00    -0.291 A  
HETATM    6  C   UNL     1      -6.959  16.701  68.426  1.00  0.00    -0.160 A  
HETATM    7  C   UNL     1      -7.145  16.972  67.063  1.00  0.00    -0.228 A  
HETATM    8  C   UNL     1      -9.180  18.167  67.635  1.00  0.00    -0.259 A  
BRANCH   4   9
HETATM    9  O   UNL     1      -7.686  16.950  70.741  1.00  0.00     3.257 OA 
HETATM   10  C   UNL     1      -6.633  16.085  71.143  1.00  0.00     1.859 C  
ENDBRANCH   4   9
BRANCH   7  11
HETATM   11  C   UNL     1      -6.043  16.615  66.066  1.00  0.00     1.134 C  
BRANCH  11  12
HETATM   12  C   UNL     1      -5.330  15.369  66.608  1.00  0.00     1.797 C  
BRANCH  12  13
HETATM   13  N   UNL     1      -5.952  14.436  67.554  1.00  0.00    -0.348 NA 
HETATM   14  C   UNL     1      -7.381  14.252  67.309  1.00  0.00    -0.024 C  
BRANCH  13  15
HETATM   15  C   UNL     1      -5.252  13.124  67.583  1.00  0.00    -0.050 C  
BRANCH  15  16
HETATM   16  C   UNL     1      -6.064  11.795  67.685  1.00  0.00    -0.072 C  
BRANCH  16  17
HETATM   17  C   UNL     1      -7.140  11.600  66.592  1.00  0.00    -0.025 C  
BRANCH  17  18
HETATM   18  C   UNL     1      -7.758  10.193  66.365  1.00  0.00    -0.111 C  
HETATM   19  N   UNL     1      -9.904  10.583  64.831  1.00  0.00    -0.290 NA 
HETATM   20  C   UNL     1      -6.771   9.260  65.512  1.00  0.00    -0.073 C  
HETATM   21  C   UNL     1      -8.975  10.399  65.504  1.00  0.00    -0.176 C  
HETATM   22  C   UNL     1      -5.417   8.926  66.159  1.00  0.00    -0.037 C  
HETATM   23  C   UNL     1      -6.443   9.837  64.117  1.00  0.00    -0.119 C  
BRANCH  18  24
HETATM   24  C   UNL     1      -8.111   9.614  67.740  1.00  0.00    -0.113 A  
HETATM   25  C   UNL     1      -9.376   9.810  68.321  1.00  0.00    -0.134 A  
HETATM   26  C   UNL     1      -9.645   9.455  69.647  1.00  0.00    -0.188 A  
HETATM   27  C   UNL     1      -7.125   8.995  68.529  1.00  0.00    -0.072 A  
HETATM   28  C   UNL     1      -8.633   8.852  70.412  1.00  0.00    -0.180 A  
HETATM   29  C   UNL     1      -7.392   8.604  69.836  1.00  0.00    -0.052 A  
BRANCH  26  30
HETATM   30  O   UNL     1     -10.844   9.686  70.271  1.00  0.00    -0.242 OA 
HETATM   31  C   UNL     1     -11.855  10.344  69.516  1.00  0.00    -0.147 C  
ENDBRANCH  26  30
BRANCH  28  32
HETATM   32  O   UNL     1      -8.936   8.569  71.723  1.00  0.00    -0.180 OA 
HETATM   33  C   UNL     1      -8.950   7.195  72.092  1.00  0.00    -0.129 C  
ENDBRANCH  28  32
ENDBRANCH  18  24
ENDBRANCH  17  18
ENDBRANCH  16  17
ENDBRANCH  15  16
ENDBRANCH  13  15
ENDBRANCH  12  13
ENDBRANCH  11  12
ENDBRANCH   7  11
ENDBRANCH   2   3
TORSDOF 12
ENDMDL
MODEL      383
REMARK 921   NORMALIZED FREE ENERGY PREDICTED BY IDOCK:    7.42 KCAL/MOL
REMARK 922        TOTAL FREE ENERGY PREDICTED BY IDOCK:   10.40 KCAL/MOL
REMARK 923 INTER-LIGAND FREE ENERGY PREDICTED BY IDOCK:    6.34 KCAL/MOL
REMARK 924 INTRA-LIGAND FREE ENERGY PREDICTED BY IDOCK:    4.06 KCAL/MOL
REMARK 927      BINDING AFFINITY PREDICTED BY RF-SCORE:    0.00 PKD
ROOT
HETATM    1  C   UNL     1     -10.724  19.537  69.326  1.00  0.00     0.845 C  
HETATM    2  O   UNL     1     -10.032  18.394  69.818  1.00  0.00     0.238 OA 
ENDROOT
BRANCH   2   3
HETATM    3  C   UNL     1      -9.085  17.850  68.983  1.00  0.00    -0.020 A  
HETATM    4  C   UNL     1      -7.952  17.111  69.358  1.00  0.00     0.261 A  
HETATM    5  C   UNL     1      -8.390  17.725  66.653  1.00  0.00    -0.285 A  
HETATM    6  C   UNL     1      -7.056  16.679  68.364  1.00  0.00    -0.167 A  
HETATM    7  C   UNL     1      -7.264  16.973  67.009  1.00  0.00    -0.224 A  
HETATM    8  C   UNL     1      -9.286  18.164  67.634  1.00  0.00    -0.259 A  
BRANCH   4   9
HETATM    9  O   UNL     1      -7.744  16.892  70.694  1.00  0.00     2.777 OA 
HETATM   10  C   UNL     1      -6.690  16.014  71.064  1.00  0.00     1.839 C  
ENDBRANCH   4   9
BRANCH   7  11
HETATM   11  C   UNL     1      -6.180  16.629  65.988  1.00  0.00     1.082 C  
BRANCH  11  12
HETATM   12  C   UNL     1      -5.476  15.360  66.487  1.00  0.00     2.272 C  
BRANCH  12  13
HETATM   13  N   UNL     1      -6.103  14.403  67.405  1.00  0.00    -0.313 NA 
HETATM   14  C   UNL     1      -7.539  14.259  67.177  1.00  0.00     0.032 C  
BRANCH  13  15
HETATM   15  C   UNL     1      -5.431  13.076  67.370  1.00  0.00     0.035 C  
BRANCH  15  16
HETATM   16  C   UNL     1      -6.273  11.763  67.311  1.00  0.00    -0.130 C  
BRANCH  16  17
HETATM   17  C   UNL     1      -7.769  11.929  67.663  1.00  0.00    -0.141 C  
BRANCH  17  18
HETATM   18  C   UNL     1      -8.790  10.852  67.201  1.00  0.00    -0.135 C  
HETATM   19  N   UNL     1     -11.015  11.319  68.595  1.00  0.00    -0.200 NA 
HETATM   20  C   UNL     1      -9.186  11.057  65.660  1.00  0.00    -0.231 C  
HETATM   21  C   UNL     1     -10.050  11.101  67.985  1.00  0.00    -0.174 C  
HETATM   22  C   UNL     1      -8.051  10.896  64.636  1.00  0.00     0.230 C  
HETATM   23  C   UNL     1      -9.824  12.433  65.373  1.00  0.00    -0.200 C  
BRANCH  18  24
HETATM   24  C   UNL     1      -8.181   9.478  67.500  1.00  0.00    -0.121 A  
HETATM   25  C   UNL     1      -8.419   8.814  68.716  1.00  0.00    -0.129 A  
HETATM   26  C   UNL     1      -7.721   7.657  69.077  1.00  0.00    -0.117 A  
HETATM   27  C   UNL     1      -7.243   8.907  66.623  1.00  0.00    -0.085 A  
HETATM   28  C   UNL     1      -6.778   7.120  68.184  1.00  0.00    -0.061 A  
HETATM   29  C   UNL     1      -6.569   7.737  66.955  1.00  0.00    -0.059 A  
BRANCH  26  30
HETATM   30  O   UNL     1      -7.877   7.015  70.278  1.00  0.00    -0.101 OA 
HETATM   31  C   UNL     1      -7.052   7.442  71.357  1.00  0.00    -0.063 C  
ENDBRANCH  26  30
BRANCH  28  32
HETATM   32  O   UNL     1      -6.087   6.012  68.610  1.00  0.00    -0.022 OA 
HETATM   33  C   UNL     1      -6.298   4.809  67.880  1.00  0.00    -0.037 C  
ENDBRANCH  28  32
ENDBRANCH  18  24
ENDBRANCH  17  18
ENDBRANCH  16  17
ENDBRANCH  15  16
ENDBRANCH  13  15
ENDBRANCH  12  13
ENDBRANCH  11  12
ENDBRANCH   7  11
ENDBRANCH   2   3
TORSDOF 12
ENDMDL
MODEL      384
REMARK 921   NORMALIZED FREE ENERGY PREDICTED BY IDOCK:    7.83 KCAL/MOL
REMARK 922        TOTAL FREE ENERGY PREDICTED BY IDOCK:   11.10 KCAL/MOL
REMARK 923 INTER-LIGAND FREE ENERGY PREDICTED BY IDOCK:    9.69 KCAL/MOL
REMARK 924 INTRA-LIGAND FREE ENERGY PREDICTED BY IDOCK:    1.42 KCAL/MOL
REMARK 927      BINDING AFFINITY PREDICTED BY RF-SCORE:    0.00 PKD
ROOT
HETATM    1  C   UNL     1      -7.178  12.955  67.466  1.00  0.00    -0.148 C  
HETATM    2  O   UNL     1      -8.401  13.570  67.074  1.00  0.00    -0.171 OA 
ENDROOT
BRANCH   2   3
HETATM    3  C   UNL     1      -9.524  13.187  67.767  1.00  0.00    -0.209 A  
HETATM    4  C   UNL     1      -9.631  12.964  69.149  1.00  0.00     0.585 A  
HETATM    5  C   UNL     1     -11.841  12.493  67.482  1.00  0.00    -0.389 A  
HETATM    6  C   UNL     1     -10.854  12.517  69.678  1.00  0.00     0.263 A  
HETATM    7  C   UNL     1     -11.968  12.283  68.860  1.00  0.00    -0.300 A  
HETATM    8  C   UNL     1     -10.628  12.935  66.943  1.00  0.00    -0.262 A  
BRANCH   4   9
HETATM    9  O   UNL     1      -8.509  13.143  69.914  1.00  0.00     1.889 OA 
HETATM   10  C   UNL     1      -7.995  14.462  70.036  1.00  0.00     0.760 C  
ENDBRANCH   4   9
BRANCH   7  11
HETATM   11  C   UNL     1     -13.219  11.639  69.457  1.00  0.00     1.779 C  
BRANCH  11  12
HETATM   12  C   UNL     1     -12.792  10.293  70.058  1.00  0.00     0.133 C  
BRANCH  12  13
HETATM   13  N   UNL     1     -13.113   9.889  71.430  1.00  0.00    -0.383 NA 
HETATM   14  C   UNL     1     -13.757  10.954  72.197  1.00  0.00     0.167 C  
BRANCH  13  15
HETATM   15  C   UNL     1     -13.932   8.648  71.468  1.00  0.00    -0.348 C  
BRANCH  15  16
HETATM   16  C   UNL     1     -13.248   7.250  71.595  1.00  0.00    -0.421 C  
BRANCH  16  17
HETATM   17  C   UNL     1     -12.055   7.018  70.641  1.00  0.00    -0.332 C  
BRANCH  17  18
HETATM   18  C   UNL     1     -10.885   6.095  71.084  1.00  0.00    -0.328 C  
HETATM   19  N   UNL     1      -9.293   7.614  72.589  1.00  0.00    -0.157 NA 
HETATM   20  C   UNL     1     -11.410   4.922  72.045  1.00  0.00     0.273 C  
HETATM   21  C   UNL     1      -9.975   6.942  71.931  1.00  0.00    -0.171 C  
HETATM   22  C   UNL     1     -12.402   3.924  71.426  1.00  0.00     7.729 C  
HETATM   23  C   UNL     1     -12.083   5.445  73.333  1.00  0.00     0.825 C  
BRANCH  18  24
HETATM   24  C   UNL     1     -10.191   5.584  69.817  1.00  0.00    -0.336 A  
HETATM   25  C   UNL     1     -10.074   4.211  69.542  1.00  0.00     0.125 A  
HETATM   26  C   UNL     1      -9.281   3.731  68.494  1.00  0.00    -0.156 A  
HETATM   27  C   UNL     1      -9.518   6.476  68.963  1.00  0.00    -0.130 A  
HETATM   28  C   UNL     1      -8.609   4.648  67.669  1.00  0.00    -0.103 A  
HETATM   29  C   UNL     1      -8.757   6.012  67.896  1.00  0.00    -0.112 A  
BRANCH  26  30
HETATM   30  O   UNL     1      -9.088   2.399  68.231  1.00  0.00    -0.135 OA 
HETATM   31  C   UNL     1      -8.344   1.648  69.184  1.00  0.00    -0.048 C  
ENDBRANCH  26  30
BRANCH  28  32
HETATM   32  O   UNL     1      -7.806   4.121  66.687  1.00  0.00    -0.095 OA 
HETATM   33  C   UNL     1      -8.431   3.816  65.446  1.00  0.00    -0.109 C  
ENDBRANCH  28  32
ENDBRANCH  18  24
ENDBRANCH  17  18
ENDBRANCH  16  17
ENDBRANCH  15  16
ENDBRANCH  13  15
ENDBRANCH  12  13
ENDBRANCH  11  12
ENDBRANCH   7  11
ENDBRANCH   2   3
TORSDOF 12
ENDMDL
MODEL      385
REMARK 921   NORMALIZED FREE ENERGY PREDICTED BY IDOCK:    8.71 KCAL/MOL
REMARK 922        TOTAL FREE ENERGY PREDICTED BY IDOCK:   12.59 KCAL/MOL
REMARK 923 INTER-LIGAND FREE ENERGY PREDICTED BY IDOCK:   11.68 KCAL/MOL
REMARK 924 INTRA-LIGAND FREE ENERGY PREDICTED BY IDOCK:    0.91 KCAL/MOL
REMARK 927      BINDING AFFINITY PREDICTED BY RF-SCORE:    0.00 PKD
ROOT
HETATM    1  C   UNL     1      -8.277   8.750  66.008  1.00  0.00    -0.118 C  
HETATM    2  O   UNL     1      -7.570   9.739  65.266  1.00  0.00    -0.109 OA 
ENDROOT
BRANCH   2   3
HETATM    3  C   UNL     1      -7.213  10.875  65.952  1.00  0.00    -0.037 A  
HETATM    4  C   UNL     1      -6.338  10.962  67.047  1.00  0.00    -0.080 A  
HETATM    5  C   UNL     1      -7.669  13.260  66.133  1.00  0.00     2.187 A  
HETATM    6  C   UNL     1      -6.135  12.209  67.663  1.00  0.00    -0.110 A  
HETATM    7  C   UNL     1      -6.787  13.367  67.215  1.00  0.00     0.066 A  
HETATM    8  C   UNL     1      -7.883  12.023  65.514  1.00  0.00     1.516 A  
BRANCH   4   9
HETATM    9  O   UNL     1      -5.763   9.804  67.500  1.00  0.00    -0.040 OA 
HETATM   10  C   UNL     1      -5.707   8.700  66.607  1.00  0.00    -0.047 C  
ENDBRANCH   4   9
BRANCH   7  11
HETATM   11  C   UNL     1      -6.664  14.660  68.020  1.00  0.00    -0.152 C  
BRANCH  11  12
HETATM   12  C   UNL     1      -8.082  15.062  68.449  1.00  0.00    -0.141 C  
BRANCH  12  13
HETATM   13  N   UNL     1      -8.449  16.431  68.823  1.00  0.00    -0.238 NA 
HETATM   14  C   UNL     1      -9.240  17.105  67.795  1.00  0.00    -0.241 C  
BRANCH  13  15
HETATM   15  C   UNL     1      -9.146  16.481  70.136  1.00  0.00     1.527 C  
BRANCH  15  16
HETATM   16  C   UNL     1      -9.721  15.180  70.779  1.00  0.00     1.094 C  
BRANCH  16  17
HETATM   17  C   UNL     1     -11.258  15.037  70.702  1.00  0.00    -0.280 C  
BRANCH  17  18
HETATM   18  C   UNL     1     -12.037  14.456  71.915  1.00  0.00    -0.245 C  
HETATM   19  N   UNL     1     -10.378  14.635  73.995  1.00  0.00     4.738 NA 
HETATM   20  C   UNL     1     -13.301  15.373  72.281  1.00  0.00    -0.548 C  
HETATM   21  C   UNL     1     -11.109  14.545  73.096  1.00  0.00     1.888 C  
HETATM   22  C   UNL     1     -14.396  15.486  71.208  1.00  0.00    -0.257 C  
HETATM   23  C   UNL     1     -12.916  16.823  72.647  1.00  0.00     1.308 C  
BRANCH  18  24
HETATM   24  C   UNL     1     -12.408  13.008  71.576  1.00  0.00    -0.014 A  
HETATM   25  C   UNL     1     -11.741  12.291  70.568  1.00  0.00     0.009 A  
HETATM   26  C   UNL     1     -12.193  11.045  70.122  1.00  0.00    -0.344 A  
HETATM   27  C   UNL     1     -13.532  12.402  72.166  1.00  0.00    -0.481 A  
HETATM   28  C   UNL     1     -13.328  10.475  70.722  1.00  0.00    -0.011 A  
HETATM   29  C   UNL     1     -13.969  11.148  71.756  1.00  0.00     0.713 A  
BRANCH  26  30
HETATM   30  O   UNL     1     -11.610  10.342  69.099  1.00  0.00    -0.232 OA 
HETATM   31  C   UNL     1     -10.272   9.899  69.293  1.00  0.00    -0.209 C  
ENDBRANCH  26  30
BRANCH  28  32
HETATM   32  O   UNL     1     -13.758   9.273  70.212  1.00  0.00     0.669 OA 
HETATM   33  C   UNL     1     -14.106   8.267  71.155  1.00  0.00    -0.095 C  
ENDBRANCH  28  32
ENDBRANCH  18  24
ENDBRANCH  17  18
ENDBRANCH  16  17
ENDBRANCH  15  16
ENDBRANCH  13  15
ENDBRANCH  12  13
ENDBRANCH  11  12
ENDBRANCH   7  11
ENDBRANCH   2   3
TORSDOF 12
ENDMDL
MODEL      386
REMARK 921   NORMALIZED FREE ENERGY PREDICTED BY IDOCK:    9.01 KCAL/MOL
REMARK 922        TOTAL FREE ENERGY PREDICTED BY IDOCK:   13.11 KCAL/MOL
REMARK 923 INTER-LIGAND FREE ENERGY PREDICTED BY IDOCK:    5.72 KCAL/MOL
REMARK 924 INTRA-LIGAND FREE ENERGY PREDICTED BY IDOCK:    7.39 KCAL/MOL
REMARK 927      BINDING AFFINITY PREDICTED BY RF-SCORE:    0.00 PKD
ROOT
HETATM    1  C   UNL     1      -7.772  11.385  66.652  1.00  0.00    -0.129 C  
HETATM    2  O   UNL     1      -6.453  11.082  67.097  1.00  0.00    -0.070 OA 
ENDROOT
BRANCH   2   3
HETATM    3  C   UNL     1      -6.083   9.760  67.046  1.00  0.00    -0.063 A  
HETATM    4  C   UNL     1      -6.136   8.909  65.930  1.00  0.00    -0.052 A  
HETATM    5  C   UNL     1      -5.323   7.900  68.421  1.00  0.00    -0.031 A  
HETATM    6  C   UNL     1      -5.768   7.561  66.079  1.00  0.00    -0.036 A  
HETATM    7  C   UNL     1      -5.354   7.043  67.315  1.00  0.00    -0.017 A  
HETATM    8  C   UNL     1      -5.691   9.243  68.286  1.00  0.00    -0.038 A  
BRANCH   4   9
HETATM    9  O   UNL     1      -6.602   9.428  64.751  1.00  0.00    -0.075 OA 
HETATM   10  C   UNL     1      -7.537   8.656  64.012  1.00  0.00    -0.126 C  
ENDBRANCH   4   9
BRANCH   7  11
HETATM   11  C   UNL     1      -5.127   5.539  67.464  1.00  0.00    -0.004 C  
BRANCH  11  12
HETATM   12  C   UNL     1      -6.105   5.039  68.535  1.00  0.00    -0.030 C  
BRANCH  12  13
HETATM   13  N   UNL     1      -7.542   4.869  68.294  1.00  0.00    -0.077 NA 
HETATM   14  C   UNL     1      -8.366   5.632  69.230  1.00  0.00    -0.107 C  
BRANCH  13  15
HETATM   15  C   UNL     1      -7.912   5.190  66.890  1.00  0.00    -0.104 C  
BRANCH  15  16
HETATM   16  C   UNL     1      -9.116   6.136  66.583  1.00  0.00    -0.146 C  
BRANCH  16  17
HETATM   17  C   UNL     1      -9.586   7.001  67.774  1.00  0.00    -0.138 C  
BRANCH  17  18
HETATM   18  C   UNL     1     -10.939   6.681  68.469  1.00  0.00    -0.314 C  
HETATM   19  N   UNL     1     -12.532   5.734  66.552  1.00  0.00     4.455 NA 
HETATM   20  C   UNL     1     -10.773   5.490  69.531  1.00  0.00    -0.332 C  
HETATM   21  C   UNL     1     -11.851   6.151  67.396  1.00  0.00     1.964 C  
HETATM   22  C   UNL     1      -9.844   5.764  70.725  1.00  0.00    -0.235 C  
HETATM   23  C   UNL     1     -10.271   4.175  68.897  1.00  0.00     0.392 C  
BRANCH  18  24
HETATM   24  C   UNL     1     -11.463   7.983  69.085  1.00  0.00     0.678 A  
HETATM   25  C   UNL     1     -10.919   9.233  68.743  1.00  0.00    -0.047 A  
HETATM   26  C   UNL     1     -11.255  10.401  69.435  1.00  0.00    -0.259 A  
HETATM   27  C   UNL     1     -12.407   7.950  70.127  1.00  0.00     0.756 A  
HETATM   28  C   UNL     1     -12.190  10.331  70.481  1.00  0.00    -0.301 A  
HETATM   29  C   UNL     1     -12.776   9.110  70.798  1.00  0.00     0.045 A  
BRANCH  26  30
HETATM   30  O   UNL     1     -10.701  11.628  69.175  1.00  0.00    -0.208 OA 
HETATM   31  C   UNL     1     -11.204  12.346  68.054  1.00  0.00    -0.268 C  
ENDBRANCH  26  30
BRANCH  28  32
HETATM   32  O   UNL     1     -12.446  11.499  71.159  1.00  0.00    -0.376 OA 
HETATM   33  C   UNL     1     -12.928  11.372  72.491  1.00  0.00     1.012 C  
ENDBRANCH  28  32
ENDBRANCH  18  24
ENDBRANCH  17  18
ENDBRANCH  16  17
ENDBRANCH  15  16
ENDBRANCH  13  15
ENDBRANCH  12  13
ENDBRANCH  11  12
ENDBRANCH   7  11
ENDBRANCH   2   3
TORSDOF 12
ENDMDL
MODEL      387
REMARK 921   NORMALIZED FREE ENERGY PREDICTED BY IDOCK:    9.28 KCAL/MOL
REMARK 922        TOTAL FREE ENERGY PREDICTED BY IDOCK:   13.57 KCAL/MOL
REMARK 923 INTER-LIGAND FREE ENERGY PREDICTED BY IDOCK:    4.47 KCAL/MOL
REMARK 924 INTRA-LIGAND FREE ENERGY PREDICTED BY IDOCK:    9.10 KCAL/MOL
REMARK 927      BINDING AFFINITY PREDICTED BY RF-SCORE:    0.00 PKD
ROOT
HETATM    1  C   UNL     1     -12.456  11.411  68.320  1.00  0.00     0.970 C  
HETATM    2  O   UNL     1     -12.085  12.683  68.842  1.00  0.00    -0.262 OA 
ENDROOT
BRANCH   2   3
HETATM    3  C   UNL     1     -10.743  12.885  69.057  1.00  0.00    -0.092 A  
HETATM    4  C   UNL     1     -10.158  13.774  69.974  1.00  0.00     1.482 A  
HETATM    5  C   UNL     1      -8.531  12.276  68.243  1.00  0.00    -0.173 A  
HETATM    6  C   UNL     1      -8.757  13.889  70.016  1.00  0.00     2.068 A  
HETATM    7  C   UNL     1      -7.931  13.144  69.162  1.00  0.00     0.422 A  
HETATM    8  C   UNL     1      -9.923  12.155  68.189  1.00  0.00    -0.201 A  
BRANCH   4   9
HETATM    9  O   UNL     1     -10.992  14.532  70.751  1.00  0.00     0.034 OA 
HETATM   10  C   UNL     1     -10.644  15.894  70.961  1.00  0.00     0.371 C  
ENDBRANCH   4   9
BRANCH   7  11
HETATM   11  C   UNL     1      -6.430  13.428  69.130  1.00  0.00    -0.105 C  
BRANCH  11  12
HETATM   12  C   UNL     1      -6.083  13.861  67.699  1.00  0.00    -0.071 C  
BRANCH  12  13
HETATM   13  N   UNL     1      -7.013  14.595  66.835  1.00  0.00     0.183 NA 
HETATM   14  C   UNL     1      -8.412  14.374  67.194  1.00  0.00    -0.208 C  
BRANCH  13  15
HETATM   15  C   UNL     1      -6.705  16.050  66.797  1.00  0.00     0.150 C  
BRANCH  15  16
HETATM   16  C   UNL     1      -7.605  17.030  65.981  1.00  0.00    -0.138 C  
BRANCH  16  17
HETATM   17  C   UNL     1      -6.872  18.262  65.402  1.00  0.00    -0.071 C  
BRANCH  17  18
HETATM   18  C   UNL     1      -7.044  19.648  66.084  1.00  0.00    -0.273 C  
HETATM   19  N   UNL     1      -5.687  21.373  64.571  1.00  0.00    -0.121 NA 
HETATM   20  C   UNL     1      -8.573  20.129  66.036  1.00  0.00    -0.173 C  
HETATM   21  C   UNL     1      -6.277  20.631  65.243  1.00  0.00    -0.259 C  
HETATM   22  C   UNL     1      -9.588  19.259  66.795  1.00  0.00    -0.398 C  
HETATM   23  C   UNL     1      -9.123  20.264  64.599  1.00  0.00     2.719 C  
BRANCH  18  24
HETATM   24  C   UNL     1      -6.481  19.537  67.506  1.00  0.00    -0.224 A  
HETATM   25  C   UNL     1      -6.644  18.372  68.276  1.00  0.00    -0.224 A  
HETATM   26  C   UNL     1      -6.306  18.328  69.632  1.00  0.00    -0.183 A  
HETATM   27  C   UNL     1      -5.914  20.658  68.138  1.00  0.00    -0.339 A  
HETATM   28  C   UNL     1      -5.755  19.470  70.237  1.00  0.00    -0.253 A  
HETATM   29  C   UNL     1      -5.540  20.614  69.477  1.00  0.00    -0.406 A  
BRANCH  26  30
HETATM   30  O   UNL     1      -6.507  17.234  70.434  1.00  0.00     0.346 OA 
HETATM   31  C   UNL     1      -6.880  16.018  69.795  1.00  0.00    -0.080 C  
ENDBRANCH  26  30
BRANCH  28  32
HETATM   32  O   UNL     1      -5.488  19.387  71.583  1.00  0.00    -0.340 OA 
HETATM   33  C   UNL     1      -5.442  20.614  72.302  1.00  0.00     0.321 C  
ENDBRANCH  28  32
ENDBRANCH  18  24
ENDBRANCH  17  18
ENDBRANCH  16  17
ENDBRANCH  15  16
ENDBRANCH  13  15
ENDBRANCH  12  13
ENDBRANCH  11  12
ENDBRANCH   7  11
ENDBRANCH   2   3
TORSDOF 12
ENDMDL
MODEL      388
REMARK 921   NORMALIZED FREE ENERGY PREDICTED BY IDOCK:   10.11 KCAL/MOL
REMARK 922        TOTAL FREE ENERGY PREDICTED BY IDOCK:   14.98 KCAL/MOL
REMARK 923 INTER-LIGAND FREE ENERGY PREDICTED BY IDOCK:    7.93 KCAL/MOL
REMARK 924 INTRA-LIGAND FREE ENERGY PREDICTED BY IDOCK:    7.05 KCAL/MOL
REMARK 927      BINDING AFFINITY PREDICTED BY RF-SCORE:    0.00 PKD
ROOT
HETATM    1  C   UNL     1     -13.144   5.175  70.785  1.00  0.00     7.826 C  
HETATM    2  O   UNL     1     -12.357   4.837  71.923  1.00  0.00     1.797 OA 
ENDROOT
BRANCH   2   3
HETATM    3  C   UNL     1     -11.004   5.046  71.810  1.00  0.00     0.062 A  
HETATM    4  C   UNL     1     -10.078   5.176  72.858  1.00  0.00    -0.170 A  
HETATM    5  C   UNL     1      -9.231   5.477  70.197  1.00  0.00    -0.173 A  
HETATM    6  C   UNL     1      -8.732   5.446  72.552  1.00  0.00    -0.124 A  
HETATM    7  C   UNL     1      -8.293   5.593  71.229  1.00  0.00    -0.127 A  
HETATM    8  C   UNL     1     -10.574   5.213  70.488  1.00  0.00    -0.221 A  
BRANCH   4   9
HETATM    9  O   UNL     1     -10.548   5.088  74.141  1.00  0.00    -0.273 OA 
HETATM   10  C   UNL     1     -11.496   4.070  74.430  1.00  0.00     1.142 C  
ENDBRANCH   4   9
BRANCH   7  11
HETATM   11  C   UNL     1      -6.860   6.050  70.957  1.00  0.00    -0.066 C  
BRANCH  11  12
HETATM   12  C   UNL     1      -6.023   4.789  70.708  1.00  0.00    -0.018 C  
BRANCH  12  13
HETATM   13  N   UNL     1      -6.242   3.892  69.568  1.00  0.00    -0.027 NA 
HETATM   14  C   UNL     1      -5.833   2.517  69.844  1.00  0.00    -0.022 C  
BRANCH  13  15
HETATM   15  C   UNL     1      -7.650   3.934  69.091  1.00  0.00    -0.053 C  
BRANCH  15  16
HETATM   16  C   UNL     1      -8.152   5.116  68.202  1.00  0.00    -0.094 C  
BRANCH  16  17
HETATM   17  C   UNL     1      -8.455   4.745  66.732  1.00  0.00    -0.105 C  
BRANCH  17  18
HETATM   18  C   UNL     1      -7.280   4.505  65.743  1.00  0.00    -0.075 C  
HETATM   19  N   UNL     1      -5.195   3.805  67.251  1.00  0.00    -0.011 NA 
HETATM   20  C   UNL     1      -7.575   3.248  64.792  1.00  0.00    -0.077 C  
HETATM   21  C   UNL     1      -6.093   4.114  66.582  1.00  0.00    -0.031 C  
HETATM   22  C   UNL     1      -8.782   3.375  63.847  1.00  0.00    -0.093 C  
HETATM   23  C   UNL     1      -7.784   1.931  65.570  1.00  0.00    -0.072 C  
BRANCH  18  24
HETATM   24  C   UNL     1      -7.044   5.811  64.977  1.00  0.00    -0.064 A  
HETATM   25  C   UNL     1      -7.807   6.964  65.232  1.00  0.00    -0.118 A  
HETATM   26  C   UNL     1      -7.733   8.097  64.415  1.00  0.00    -0.126 A  
HETATM   27  C   UNL     1      -6.156   5.850  63.887  1.00  0.00    -0.025 A  
HETATM   28  C   UNL     1      -6.846   8.097  63.325  1.00  0.00    -0.084 A  
HETATM   29  C   UNL     1      -6.047   6.983  63.090  1.00  0.00    -0.044 A  
BRANCH  26  30
HETATM   30  O   UNL     1      -8.504   9.217  64.591  1.00  0.00    -0.158 OA 
HETATM   31  C   UNL     1      -9.264   9.302  65.791  1.00  0.00    -0.224 C  
ENDBRANCH  26  30
BRANCH  28  32
HETATM   32  O   UNL     1      -6.850   9.216  62.527  1.00  0.00    -0.094 OA 
HETATM   33  C   UNL     1      -6.262  10.391  63.072  1.00  0.00    -0.127 C  
ENDBRANCH  28  32
ENDBRANCH  18  24
ENDBRANCH  17  18
ENDBRANCH  16  17
ENDBRANCH  15  16
ENDBRANCH  13  15
ENDBRANCH  12  13
ENDBRANCH  11  12
ENDBRANCH   7  11
ENDBRANCH   2   3
TORSDOF 12
ENDMDL
MODEL      389
REMARK 921   NORMALIZED FREE ENERGY PREDICTED BY IDOCK:   10.62 KCAL/MOL
REMARK 922        TOTAL FREE ENERGY PREDICTED BY IDOCK:   15.84 KCAL/MOL
REMARK 923 INTER-LIGAND FREE ENERGY PREDICTED BY IDOCK:   15.21 KCAL/MOL
REMARK 924 INTRA-LIGAND FREE ENERGY PREDICTED BY IDOCK:    0.63 KCAL/MOL
REMARK 927      BINDING AFFINITY PREDICTED BY RF-SCORE:    0.00 PKD
ROOT
HETATM    1  C   UNL     1      -7.610  10.965  65.986  1.00  0.00    -0.094 C  
HETATM    2  O   UNL     1      -6.302  10.623  66.435  1.00  0.00    -0.089 OA 
ENDROOT
BRANCH   2   3
HETATM    3  C   UNL     1      -5.974   9.290  66.394  1.00  0.00    -0.059 A  
HETATM    4  C   UNL     1      -6.062   8.431  65.286  1.00  0.00    -0.045 A  
HETATM    5  C   UNL     1      -5.262   7.419  67.781  1.00  0.00    -0.025 A  
HETATM    6  C   UNL     1      -5.735   7.073  65.445  1.00  0.00    -0.032 A  
HETATM    7  C   UNL     1      -5.328   6.554  66.682  1.00  0.00    -0.013 A  
HETATM    8  C   UNL     1      -5.589   8.772  67.636  1.00  0.00    -0.039 A  
BRANCH   4   9
HETATM    9  O   UNL     1      -6.520   8.954  64.106  1.00  0.00    -0.078 OA 
HETATM   10  C   UNL     1      -6.185   8.271  62.906  1.00  0.00    -0.086 C  
ENDBRANCH   4   9
BRANCH   7  11
HETATM   11  C   UNL     1      -5.147   5.045  66.844  1.00  0.00    -0.008 C  
BRANCH  11  12
HETATM   12  C   UNL     1      -6.061   4.600  67.993  1.00  0.00    -0.031 C  
BRANCH  12  13
HETATM   13  N   UNL     1      -7.517   4.480  67.860  1.00  0.00    -0.069 NA 
HETATM   14  C   UNL     1      -8.242   5.386  68.748  1.00  0.00    -0.094 C  
BRANCH  13  15
HETATM   15  C   UNL     1      -7.963   4.656  66.452  1.00  0.00    -0.103 C  
BRANCH  15  16
HETATM   16  C   UNL     1      -9.148   5.614  66.110  1.00  0.00    -0.158 C  
BRANCH  16  17
HETATM   17  C   UNL     1      -9.507   6.630  67.218  1.00  0.00    -0.151 C  
BRANCH  17  18
HETATM   18  C   UNL     1     -10.581   7.719  66.942  1.00  0.00    -0.347 C  
HETATM   19  N   UNL     1      -9.785   8.975  64.728  1.00  0.00     0.497 NA 
HETATM   20  C   UNL     1     -11.997   7.056  66.586  1.00  0.00     3.508 C  
HETATM   21  C   UNL     1     -10.141   8.441  65.697  1.00  0.00     0.938 C  
HETATM   22  C   UNL     1     -12.655   6.217  67.693  1.00  0.00     7.498 C  
HETATM   23  C   UNL     1     -11.947   6.148  65.339  1.00  0.00     5.193 C  
BRANCH  18  24
HETATM   24  C   UNL     1     -10.627   8.645  68.164  1.00  0.00    -0.189 A  
HETATM   25  C   UNL     1     -10.467   8.151  69.470  1.00  0.00    -0.227 A  
HETATM   26  C   UNL     1     -10.697   8.948  70.596  1.00  0.00    -0.234 A  
HETATM   27  C   UNL     1     -10.981   9.998  68.021  1.00  0.00    -0.296 A  
HETATM   28  C   UNL     1     -11.065  10.293  70.418  1.00  0.00    -0.319 A  
HETATM   29  C   UNL     1     -11.177  10.810  69.132  1.00  0.00    -0.323 A  
BRANCH  26  30
HETATM   30  O   UNL     1     -10.615   8.490  71.886  1.00  0.00    -0.269 OA 
HETATM   31  C   UNL     1      -9.794   7.352  72.121  1.00  0.00    -0.172 C  
ENDBRANCH  26  30
BRANCH  28  32
HETATM   32  O   UNL     1     -11.326  11.016  71.557  1.00  0.00     0.879 OA 
HETATM   33  C   UNL     1     -12.169  12.153  71.412  1.00  0.00     0.244 C  
ENDBRANCH  28  32
ENDBRANCH  18  24
ENDBRANCH  17  18
ENDBRANCH  16  17
ENDBRANCH  15  16
ENDBRANCH  13  15
ENDBRANCH  12  13
ENDBRANCH  11  12
ENDBRANCH   7  11
ENDBRANCH   2   3
TORSDOF 12
ENDMDL
MODEL      390
REMARK 921   NORMALIZED FREE ENERGY PREDICTED BY IDOCK:   11.75 KCAL/MOL
REMARK 922        TOTAL FREE ENERGY PREDICTED BY IDOCK:   17.78 KCAL/MOL
REMARK 923 INTER-LIGAND FREE ENERGY PREDICTED BY IDOCK:   17.46 KCAL/MOL
REMARK 924 INTRA-LIGAND FREE ENERGY PREDICTED BY IDOCK:    0.32 KCAL/MOL
REMARK 927      BINDING AFFINITY PREDICTED BY RF-SCORE:    0.00 PKD
ROOT
HETATM    1  C   UNL     1      -7.932  14.497  73.170  1.00  0.00     7.768 C  
HETATM    2  O   UNL     1      -7.120  13.775  74.091  1.00  0.00     1.614 OA 
ENDROOT
BRANCH   2   3
HETATM    3  C   UNL     1      -6.530  12.630  73.613  1.00  0.00     4.231 A  
HETATM    4  C   UNL     1      -5.822  12.482  72.409  1.00  0.00     1.707 A  
HETATM    5  C   UNL     1      -6.263  10.250  74.057  1.00  0.00     1.377 A  
HETATM    6  C   UNL     1      -5.334  11.212  72.054  1.00  0.00     0.351 A  
HETATM    7  C   UNL     1      -5.541  10.090  72.868  1.00  0.00     0.402 A  
HETATM    8  C   UNL     1      -6.757  11.508  74.419  1.00  0.00     4.227 A  
BRANCH   4   9
HETATM    9  O   UNL     1      -5.689  13.583  71.606  1.00  0.00    -0.355 OA 
HETATM   10  C   UNL     1      -6.554  13.693  70.485  1.00  0.00     0.353 C  
ENDBRANCH   4   9
BRANCH   7  11
HETATM   11  C   UNL     1      -5.139   8.705  72.360  1.00  0.00    -0.042 C  
BRANCH  11  12
HETATM   12  C   UNL     1      -5.312   8.717  70.836  1.00  0.00    -0.028 C  
BRANCH  12  13
HETATM   13  N   UNL     1      -5.942   7.621  70.091  1.00  0.00    -0.023 NA 
HETATM   14  C   UNL     1      -7.213   7.199  70.676  1.00  0.00    -0.067 C  
BRANCH  13  15
HETATM   15  C   UNL     1      -6.112   7.952  68.651  1.00  0.00    -0.036 C  
BRANCH  15  16
HETATM   16  C   UNL     1      -7.399   8.682  68.152  1.00  0.00    -0.091 C  
BRANCH  16  17
HETATM   17  C   UNL     1      -8.558   8.733  69.173  1.00  0.00    -0.128 C  
BRANCH  17  18
HETATM   18  C   UNL     1     -10.011   8.970  68.673  1.00  0.00    -0.187 C  
HETATM   19  N   UNL     1     -10.387   7.230  66.687  1.00  0.00    -0.209 NA 
HETATM   20  C   UNL     1     -11.080   8.583  69.804  1.00  0.00    -0.067 C  
HETATM   21  C   UNL     1     -10.235   7.997  67.547  1.00  0.00    -0.245 C  
HETATM   22  C   UNL     1     -11.036   9.412  71.098  1.00  0.00    -0.430 C  
HETATM   23  C   UNL     1     -10.991   7.106  70.246  1.00  0.00    -0.288 C  
BRANCH  18  24
HETATM   24  C   UNL     1     -10.110  10.428  68.210  1.00  0.00    -0.174 A  
HETATM   25  C   UNL     1     -10.686  10.772  66.975  1.00  0.00    -0.320 A  
HETATM   26  C   UNL     1     -10.610  12.070  66.459  1.00  0.00    -0.234 A  
HETATM   27  C   UNL     1      -9.490  11.454  68.944  1.00  0.00    -0.064 A  
HETATM   28  C   UNL     1      -9.969  13.069  67.211  1.00  0.00    -0.232 A  
HETATM   29  C   UNL     1      -9.440  12.755  68.458  1.00  0.00    -0.094 A  
BRANCH  26  30
HETATM   30  O   UNL     1     -11.101  12.434  65.231  1.00  0.00    -0.287 OA 
HETATM   31  C   UNL     1     -12.484  12.761  65.155  1.00  0.00    -0.501 C  
ENDBRANCH  26  30
BRANCH  28  32
HETATM   32  O   UNL     1      -9.880  14.313  66.634  1.00  0.00    -0.262 OA 
HETATM   33  C   UNL     1      -9.702  15.414  67.518  1.00  0.00    -0.208 C  
ENDBRANCH  28  32
ENDBRANCH  18  24
ENDBRANCH  17  18
ENDBRANCH  16  17
ENDBRANCH  15  16
ENDBRANCH  13  15
ENDBRANCH  12  13
ENDBRANCH  11  12
ENDBRANCH   7  11
ENDBRANCH   2   3
TORSDOF 12
ENDMDL
MODEL      391
REMARK 921   NORMALIZED FREE ENERGY PREDICTED BY IDOCK:   12.95 KCAL/MOL
REMARK 922        TOTAL FREE ENERGY PREDICTED BY IDOCK:   19.81 KCAL/MOL
REMARK 923 INTER-LIGAND FREE ENERGY PREDICTED BY IDOCK:   19.11 KCAL/MOL
REMARK 924 INTRA-LIGAND FREE ENERGY PREDICTED BY IDOCK:    0.70 KCAL/MOL
REMARK 927      BINDING AFFINITY PREDICTED BY RF-SCORE:    0.00 PKD
ROOT
HETATM    1  C   UNL     1      -7.946  14.498  73.167  1.00  0.00     7.768 C  
HETATM    2  O   UNL     1      -7.143  13.756  74.080  1.00  0.00     1.614 OA 
ENDROOT
BRANCH   2   3
HETATM    3  C   UNL     1      -6.545  12.623  73.583  1.00  0.00     4.894 A  
HETATM    4  C   UNL     1      -5.840  12.500  72.375  1.00  0.00     1.707 A  
HETATM    5  C   UNL     1      -6.259  10.239  73.988  1.00  0.00     1.377 A  
HETATM    6  C   UNL     1      -5.343  11.239  71.998  1.00  0.00     0.375 A  
HETATM    7  C   UNL     1      -5.538  10.103  72.795  1.00  0.00     0.466 A  
HETATM    8  C   UNL     1      -6.761  11.487  74.371  1.00  0.00     4.227 A  
BRANCH   4   9
HETATM    9  O   UNL     1      -5.717  13.615  71.589  1.00  0.00    -0.321 OA 
HETATM   10  C   UNL     1      -5.169  13.450  70.289  1.00  0.00    -0.106 C  
ENDBRANCH   4   9
BRANCH   7  11
HETATM   11  C   UNL     1      -5.127   8.730  72.263  1.00  0.00    -0.044 C  
BRANCH  11  12
HETATM   12  C   UNL     1      -5.184   8.803  70.732  1.00  0.00    -0.027 C  
BRANCH  12  13
HETATM   13  N   UNL     1      -5.824   7.777  69.903  1.00  0.00    -0.023 NA 
HETATM   14  C   UNL     1      -7.099   7.320  70.453  1.00  0.00    -0.065 C  
BRANCH  13  15
HETATM   15  C   UNL     1      -5.992   8.224  68.494  1.00  0.00    -0.041 C  
BRANCH  15  16
HETATM   16  C   UNL     1      -7.271   9.007  68.058  1.00  0.00    -0.080 C  
BRANCH  16  17
HETATM   17  C   UNL     1      -8.227   9.390  69.210  1.00  0.00    -0.111 C  
BRANCH  17  18
HETATM   18  C   UNL     1      -9.763   9.263  69.008  1.00  0.00    -0.162 C  
HETATM   19  N   UNL     1     -10.819   9.256  71.456  1.00  0.00    -0.363 NA 
HETATM   20  C   UNL     1     -10.357  10.561  68.277  1.00  0.00    -0.193 C  
HETATM   21  C   UNL     1     -10.372   9.252  70.384  1.00  0.00    -0.240 C  
HETATM   22  C   UNL     1      -9.856  10.831  66.849  1.00  0.00    -0.224 C  
HETATM   23  C   UNL     1     -10.114  11.868  69.064  1.00  0.00     0.032 C  
BRANCH  18  24
HETATM   24  C   UNL     1     -10.024   7.958  68.247  1.00  0.00    -0.204 A  
HETATM   25  C   UNL     1     -10.052   6.715  68.901  1.00  0.00    -0.178 A  
HETATM   26  C   UNL     1     -10.098   5.508  68.197  1.00  0.00    -0.172 A  
HETATM   27  C   UNL     1     -10.093   7.953  66.842  1.00  0.00    -0.362 A  
HETATM   28  C   UNL     1     -10.151   5.537  66.793  1.00  0.00    -0.207 A  
HETATM   29  C   UNL     1     -10.175   6.761  66.132  1.00  0.00     0.310 A  
BRANCH  26  30
HETATM   30  O   UNL     1     -10.063   4.274  68.793  1.00  0.00    -0.033 OA 
HETATM   31  C   UNL     1      -9.369   4.168  70.031  1.00  0.00    -0.167 C  
ENDBRANCH  26  30
BRANCH  28  32
HETATM   32  O   UNL     1     -10.144   4.322  66.150  1.00  0.00    -0.226 OA 
HETATM   33  C   UNL     1     -10.733   4.282  64.855  1.00  0.00    -0.108 C  
ENDBRANCH  28  32
ENDBRANCH  18  24
ENDBRANCH  17  18
ENDBRANCH  16  17
ENDBRANCH  15  16
ENDBRANCH  13  15
ENDBRANCH  12  13
ENDBRANCH  11  12
ENDBRANCH   7  11
ENDBRANCH   2   3
TORSDOF 12
ENDMDL
MODEL      392
REMARK 921   NORMALIZED FREE ENERGY PREDICTED BY IDOCK:   14.64 KCAL/MOL
REMARK 922        TOTAL FREE ENERGY PREDICTED BY IDOCK:   22.68 KCAL/MOL
REMARK 923 INTER-LIGAND FREE ENERGY PREDICTED BY IDOCK:   17.76 KCAL/MOL
REMARK 924 INTRA-LIGAND FREE ENERGY PREDICTED BY IDOCK:    4.92 KCAL/MOL
REMARK 927      BINDING AFFINITY PREDICTED BY RF-SCORE:    0.00 PKD
ROOT
HETATM    1  C   UNL     1      -7.457   3.073  69.310  1.00  0.00    -0.047 C  
HETATM    2  O   UNL     1      -8.466   2.939  68.314  1.00  0.00    -0.075 OA 
ENDROOT
BRANCH   2   3
HETATM    3  C   UNL     1      -8.245   3.604  67.131  1.00  0.00    -0.091 A  
HETATM    4  C   UNL     1      -7.141   3.460  66.274  1.00  0.00    -0.063 A  
HETATM    5  C   UNL     1      -9.124   5.363  65.696  1.00  0.00    -0.148 A  
HETATM    6  C   UNL     1      -7.055   4.271  65.129  1.00  0.00    -0.063 A  
HETATM    7  C   UNL     1      -8.040   5.221  64.823  1.00  0.00    -0.124 A  
HETATM    8  C   UNL     1      -9.219   4.566  66.842  1.00  0.00    -0.142 A  
BRANCH   4   9
HETATM    9  O   UNL     1      -6.166   2.567  66.631  1.00  0.00    -0.023 OA 
HETATM   10  C   UNL     1      -5.610   1.752  65.608  1.00  0.00    -0.013 C  
ENDBRANCH   4   9
BRANCH   7  11
HETATM   11  C   UNL     1      -7.817   6.190  63.663  1.00  0.00    -0.112 C  
BRANCH  11  12
HETATM   12  C   UNL     1      -9.003   6.026  62.703  1.00  0.00     0.452 C  
BRANCH  12  13
HETATM   13  N   UNL     1     -10.278   6.730  62.874  1.00  0.00     5.398 NA 
HETATM   14  C   UNL     1     -11.434   5.852  62.709  1.00  0.00     6.331 C  
BRANCH  13  15
HETATM   15  C   UNL     1     -10.347   7.447  64.176  1.00  0.00     8.066 C  
BRANCH  15  16
HETATM   16  C   UNL     1      -9.139   8.302  64.674  1.00  0.00     0.545 C  
BRANCH  16  17
HETATM   17  C   UNL     1      -8.515   7.835  66.009  1.00  0.00    -0.146 C  
BRANCH  17  18
HETATM   18  C   UNL     1      -7.816   8.870  66.934  1.00  0.00    -0.101 C  
HETATM   19  N   UNL     1      -5.201   8.402  66.700  1.00  0.00    -0.031 NA 
HETATM   20  C   UNL     1      -8.044  10.365  66.401  1.00  0.00    -0.129 C  
HETATM   21  C   UNL     1      -6.338   8.613  66.816  1.00  0.00    -0.059 C  
HETATM   22  C   UNL     1      -9.496  10.869  66.379  1.00  0.00    -0.214 C  
HETATM   23  C   UNL     1      -7.495  10.594  64.976  1.00  0.00     0.071 C  
BRANCH  18  24
HETATM   24  C   UNL     1      -8.333   8.642  68.359  1.00  0.00    -0.127 A  
HETATM   25  C   UNL     1      -8.870   7.406  68.760  1.00  0.00    -0.130 A  
HETATM   26  C   UNL     1      -9.516   7.244  69.990  1.00  0.00    -0.161 A  
HETATM   27  C   UNL     1      -8.423   9.713  69.265  1.00  0.00    -0.150 A  
HETATM   28  C   UNL     1      -9.603   8.339  70.867  1.00  0.00    -0.165 A  
HETATM   29  C   UNL     1      -9.032   9.554  70.506  1.00  0.00    -0.265 A  
BRANCH  26  30
HETATM   30  O   UNL     1     -10.108   6.075  70.393  1.00  0.00    -0.180 OA 
HETATM   31  C   UNL     1     -10.536   5.177  69.376  1.00  0.00    -0.034 C  
ENDBRANCH  26  30
BRANCH  28  32
HETATM   32  O   UNL     1     -10.291   8.137  72.039  1.00  0.00    -0.215 OA 
HETATM   33  C   UNL     1      -9.557   8.302  73.247  1.00  0.00    -0.096 C  
ENDBRANCH  28  32
ENDBRANCH  18  24
ENDBRANCH  17  18
ENDBRANCH  16  17
ENDBRANCH  15  16
ENDBRANCH  13  15
ENDBRANCH  12  13
ENDBRANCH  11  12
ENDBRANCH   7  11
ENDBRANCH   2   3
TORSDOF 12
ENDMDL
MODEL      393
REMARK 921   NORMALIZED FREE ENERGY PREDICTED BY IDOCK:   15.32 KCAL/MOL
REMARK 922        TOTAL FREE ENERGY PREDICTED BY IDOCK:   23.85 KCAL/MOL
REMARK 923 INTER-LIGAND FREE ENERGY PREDICTED BY IDOCK:   21.30 KCAL/MOL
REMARK 924 INTRA-LIGAND FREE ENERGY PREDICTED BY IDOCK:    2.55 KCAL/MOL
REMARK 927      BINDING AFFINITY PREDICTED BY RF-SCORE:    0.00 PKD
ROOT
HETATM    1  C   UNL     1      -7.946  14.579  73.945  1.00  0.00     8.140 C  
HETATM    2  O   UNL     1      -7.561  15.085  72.671  1.00  0.00     4.110 OA 
ENDROOT
BRANCH   2   3
HETATM    3  C   UNL     1      -6.896  14.211  71.844  1.00  0.00     2.397 A  
HETATM    4  C   UNL     1      -6.483  14.445  70.523  1.00  0.00    -0.052 A  
HETATM    5  C   UNL     1      -6.086  11.920  71.687  1.00  0.00     1.708 A  
HETATM    6  C   UNL     1      -5.863  13.406  69.806  1.00  0.00    -0.119 A  
HETATM    7  C   UNL     1      -5.652  12.142  70.375  1.00  0.00    -0.162 A  
HETATM    8  C   UNL     1      -6.707  12.944  72.410  1.00  0.00     5.311 A  
BRANCH   4   9
HETATM    9  O   UNL     1      -6.756  15.669  69.974  1.00  0.00    -0.136 OA 
HETATM   10  C   UNL     1      -5.657  16.477  69.577  1.00  0.00    -0.157 C  
ENDBRANCH   4   9
BRANCH   7  11
HETATM   11  C   UNL     1      -5.130  11.001  69.503  1.00  0.00    -0.041 C  
BRANCH  11  12
HETATM   12  C   UNL     1      -5.737  11.184  68.107  1.00  0.00    -0.045 C  
BRANCH  12  13
HETATM   13  N   UNL     1      -6.736  10.272  67.540  1.00  0.00    -0.071 NA 
HETATM   14  C   UNL     1      -8.003  10.937  67.241  1.00  0.00    -0.123 C  
BRANCH  13  15
HETATM   15  C   UNL     1      -6.223   9.560  66.340  1.00  0.00    -0.064 C  
BRANCH  15  16
HETATM   16  C   UNL     1      -6.897   8.240  65.851  1.00  0.00    -0.064 C  
BRANCH  16  17
HETATM   17  C   UNL     1      -8.440   8.224  65.938  1.00  0.00    -0.151 C  
BRANCH  17  18
HETATM   18  C   UNL     1      -9.133   7.608  67.185  1.00  0.00    -0.146 C  
HETATM   19  N   UNL     1     -11.110   6.088  66.239  1.00  0.00     0.176 NA 
HETATM   20  C   UNL     1      -8.145   6.611  67.960  1.00  0.00    -0.110 C  
HETATM   21  C   UNL     1     -10.256   6.751  66.665  1.00  0.00    -0.141 C  
HETATM   22  C   UNL     1      -6.877   7.237  68.562  1.00  0.00    -0.073 C  
HETATM   23  C   UNL     1      -7.661   5.432  67.087  1.00  0.00    -0.096 C  
BRANCH  18  24
HETATM   24  C   UNL     1      -9.640   8.765  68.053  1.00  0.00    -0.160 A  
HETATM   25  C   UNL     1      -9.130   9.000  69.341  1.00  0.00    -0.146 A  
HETATM   26  C   UNL     1      -9.713   9.927  70.211  1.00  0.00    -0.154 A  
HETATM   27  C   UNL     1     -10.740   9.538  67.640  1.00  0.00    -0.314 A  
HETATM   28  C   UNL     1     -10.821  10.672  69.774  1.00  0.00    -0.261 A  
HETATM   29  C   UNL     1     -11.306  10.488  68.483  1.00  0.00    -0.320 A  
BRANCH  26  30
HETATM   30  O   UNL     1      -9.287  10.141  71.497  1.00  0.00     1.241 OA 
HETATM   31  C   UNL     1      -8.070   9.518  71.891  1.00  0.00     1.251 C  
ENDBRANCH  26  30
BRANCH  28  32
HETATM   32  O   UNL     1     -11.385  11.532  70.686  1.00  0.00     0.111 OA 
HETATM   33  C   UNL     1     -12.801  11.669  70.643  1.00  0.00    -0.040 C  
ENDBRANCH  28  32
ENDBRANCH  18  24
ENDBRANCH  17  18
ENDBRANCH  16  17
ENDBRANCH  15  16
ENDBRANCH  13  15
ENDBRANCH  12  13
ENDBRANCH  11  12
ENDBRANCH   7  11
ENDBRANCH   2   3
TORSDOF 12
ENDMDL
MODEL      394
REMARK 921   NORMALIZED FREE ENERGY PREDICTED BY IDOCK:   18.34 KCAL/MOL
REMARK 922        TOTAL FREE ENERGY PREDICTED BY IDOCK:   28.99 KCAL/MOL
REMARK 923 INTER-LIGAND FREE ENERGY PREDICTED BY IDOCK:   24.18 KCAL/MOL
REMARK 924 INTRA-LIGAND FREE ENERGY PREDICTED BY IDOCK:    4.81 KCAL/MOL
REMARK 927      BINDING AFFINITY PREDICTED BY RF-SCORE:    0.00 PKD
ROOT
HETATM    1  C   UNL     1     -13.883  10.009  67.840  1.00  0.00    14.750 C  
HETATM    2  O   UNL     1     -12.812  10.620  68.553  1.00  0.00     0.845 OA 
ENDROOT
BRANCH   2   3
HETATM    3  C   UNL     1     -11.571  10.548  67.966  1.00  0.00    -0.023 A  
HETATM    4  C   UNL     1     -11.263  10.758  66.612  1.00  0.00     0.080 A  
HETATM    5  C   UNL     1      -9.244   9.979  68.403  1.00  0.00    -0.131 A  
HETATM    6  C   UNL     1      -9.937  10.584  66.178  1.00  0.00    -0.286 A  
HETATM    7  C   UNL     1      -8.917  10.202  67.060  1.00  0.00    -0.148 A  
HETATM    8  C   UNL     1     -10.560  10.145  68.847  1.00  0.00    -0.237 A  
BRANCH   4   9
HETATM    9  O   UNL     1     -12.290  11.072  65.763  1.00  0.00     1.501 OA 
HETATM   10  C   UNL     1     -11.971  11.769  64.567  1.00  0.00    -0.115 C  
ENDBRANCH   4   9
BRANCH   7  11
HETATM   11  C   UNL     1      -7.532   9.863  66.510  1.00  0.00    -0.100 C  
BRANCH  11  12
HETATM   12  C   UNL     1      -6.621   9.591  67.714  1.00  0.00    -0.062 C  
BRANCH  12  13
HETATM   13  N   UNL     1      -6.048  10.657  68.543  1.00  0.00    -0.046 NA 
HETATM   14  C   UNL     1      -5.475  11.742  67.751  1.00  0.00    -0.057 C  
BRANCH  13  15
HETATM   15  C   UNL     1      -7.031  11.187  69.525  1.00  0.00    -0.111 C  
BRANCH  15  16
HETATM   16  C   UNL     1      -8.157  12.167  69.069  1.00  0.00     0.245 C  
BRANCH  16  17
HETATM   17  C   UNL     1      -7.736  13.189  67.988  1.00  0.00    -0.146 C  
BRANCH  17  18
HETATM   18  C   UNL     1      -8.066  14.695  68.185  1.00  0.00    -0.137 C  
HETATM   19  N   UNL     1      -8.258  15.057  70.820  1.00  0.00     1.554 NA 
HETATM   20  C   UNL     1      -6.848  15.620  67.702  1.00  0.00    -0.201 C  
HETATM   21  C   UNL     1      -8.183  14.912  69.669  1.00  0.00     0.041 C  
HETATM   22  C   UNL     1      -6.489  15.553  66.209  1.00  0.00     2.736 C  
HETATM   23  C   UNL     1      -5.535  15.345  68.466  1.00  0.00    -0.096 C  
BRANCH  18  24
HETATM   24  C   UNL     1      -9.381  14.981  67.451  1.00  0.00    -0.204 A  
HETATM   25  C   UNL     1     -10.589  14.375  67.837  1.00  0.00    -0.240 A  
HETATM   26  C   UNL     1     -11.749  14.478  67.063  1.00  0.00    -0.393 A  
HETATM   27  C   UNL     1      -9.388  15.746  66.270  1.00  0.00    -0.360 A  
HETATM   28  C   UNL     1     -11.718  15.237  65.881  1.00  0.00     0.102 A  
HETATM   29  C   UNL     1     -10.544  15.885  65.512  1.00  0.00    -0.419 A  
BRANCH  26  30
HETATM   30  O   UNL     1     -12.930  13.852  67.370  1.00  0.00     0.664 OA 
HETATM   31  C   UNL     1     -13.377  13.929  68.719  1.00  0.00     3.531 C  
ENDBRANCH  26  30
BRANCH  28  32
HETATM   32  O   UNL     1     -12.872  15.263  65.134  1.00  0.00     0.360 OA 
HETATM   33  C   UNL     1     -13.612  14.050  65.061  1.00  0.00     1.280 C  
ENDBRANCH  28  32
ENDBRANCH  18  24
ENDBRANCH  17  18
ENDBRANCH  16  17
ENDBRANCH  15  16
ENDBRANCH  13  15
ENDBRANCH  12  13
ENDBRANCH  11  12
ENDBRANCH   7  11
ENDBRANCH   2   3
TORSDOF 12
ENDMDL
MODEL      395
REMARK 921   NORMALIZED FREE ENERGY PREDICTED BY IDOCK:   18.85 KCAL/MOL
REMARK 922        TOTAL FREE ENERGY PREDICTED BY IDOCK:   29.86 KCAL/MOL
REMARK 923 INTER-LIGAND FREE ENERGY PREDICTED BY IDOCK:   16.30 KCAL/MOL
REMARK 924 INTRA-LIGAND FREE ENERGY PREDICTED BY IDOCK:   13.56 KCAL/MOL
REMARK 927      BINDING AFFINITY PREDICTED BY RF-SCORE:    0.00 PKD
ROOT
HETATM    1  C   UNL     1     -13.263  10.399  66.027  1.00  0.00    12.984 C  
HETATM    2  O   UNL     1     -12.269   9.402  66.245  1.00  0.00     5.505 OA 
ENDROOT
BRANCH   2   3
HETATM    3  C   UNL     1     -10.982   9.742  65.905  1.00  0.00     0.904 A  
HETATM    4  C   UNL     1     -10.518  11.007  65.506  1.00  0.00    -0.238 A  
HETATM    5  C   UNL     1      -8.760   8.817  65.535  1.00  0.00    -0.217 A  
HETATM    6  C   UNL     1      -9.169  11.156  65.137  1.00  0.00    -0.209 A  
HETATM    7  C   UNL     1      -8.278  10.074  65.152  1.00  0.00    -0.146 A  
HETATM    8  C   UNL     1     -10.100   8.655  65.901  1.00  0.00     0.204 A  
BRANCH   4   9
HETATM    9  O   UNL     1     -11.426  12.030  65.443  1.00  0.00    -0.340 OA 
HETATM   10  C   UNL     1     -10.956  13.347  65.693  1.00  0.00    -0.281 C  
ENDBRANCH   4   9
BRANCH   7  11
HETATM   11  C   UNL     1      -6.870  10.250  64.583  1.00  0.00    -0.077 C  
BRANCH  11  12
HETATM   12  C   UNL     1      -6.169   8.889  64.685  1.00  0.00    -0.066 C  
BRANCH  12  13
HETATM   13  N   UNL     1      -6.073   8.127  65.934  1.00  0.00    -0.041 NA 
HETATM   14  C   UNL     1      -6.604   8.857  67.084  1.00  0.00    -0.062 C  
BRANCH  13  15
HETATM   15  C   UNL     1      -6.714   6.790  65.821  1.00  0.00    -0.052 C  
BRANCH  15  16
HETATM   16  C   UNL     1      -7.856   6.543  64.786  1.00  0.00    -0.112 C  
BRANCH  16  17
HETATM   17  C   UNL     1      -8.592   5.192  64.934  1.00  0.00    -0.151 C  
BRANCH  17  18
HETATM   18  C   UNL     1      -7.814   3.946  65.443  1.00  0.00    -0.089 C  
HETATM   19  N   UNL     1      -9.215   1.831  64.620  1.00  0.00    -0.128 NA 
HETATM   20  C   UNL     1      -6.382   3.829  64.729  1.00  0.00    -0.027 C  
HETATM   21  C   UNL     1      -8.597   2.744  64.990  1.00  0.00    -0.103 C  
HETATM   22  C   UNL     1      -5.389   4.971  64.999  1.00  0.00    -0.013 C  
HETATM   23  C   UNL     1      -6.476   3.704  63.193  1.00  0.00    -0.026 C  
BRANCH  18  24
HETATM   24  C   UNL     1      -7.731   4.043  66.971  1.00  0.00    -0.085 A  
HETATM   25  C   UNL     1      -8.626   3.350  67.804  1.00  0.00    -0.118 A  
HETATM   26  C   UNL     1      -8.682   3.579  69.182  1.00  0.00    -0.089 A  
HETATM   27  C   UNL     1      -6.846   4.950  67.581  1.00  0.00    -0.060 A  
HETATM   28  C   UNL     1      -7.795   4.503  69.759  1.00  0.00    -0.057 A  
HETATM   29  C   UNL     1      -6.869   5.159  68.955  1.00  0.00    -0.054 A  
BRANCH  26  30
HETATM   30  O   UNL     1      -9.582   2.973  70.021  1.00  0.00    -0.157 OA 
HETATM   31  C   UNL     1      -9.060   2.314  71.169  1.00  0.00    -0.097 C  
ENDBRANCH  26  30
BRANCH  28  32
HETATM   32  O   UNL     1      -7.928   4.726  71.109  1.00  0.00    -0.084 OA 
HETATM   33  C   UNL     1      -9.149   4.309  71.708  1.00  0.00    -0.123 C  
ENDBRANCH  28  32
ENDBRANCH  18  24
ENDBRANCH  17  18
ENDBRANCH  16  17
ENDBRANCH  15  16
ENDBRANCH  13  15
ENDBRANCH  12  13
ENDBRANCH  11  12
ENDBRANCH   7  11
ENDBRANCH   2   3
TORSDOF 12
ENDMDL
MODEL      396
REMARK 921   NORMALIZED FREE ENERGY PREDICTED BY IDOCK:   23.80 KCAL/MOL
REMARK 922        TOTAL FREE ENERGY PREDICTED BY IDOCK:   38.28 KCAL/MOL
REMARK 923 INTER-LIGAND FREE ENERGY PREDICTED BY IDOCK:   29.03 KCAL/MOL
REMARK 924 INTRA-LIGAND FREE ENERGY PREDICTED BY IDOCK:    9.24 KCAL/MOL
REMARK 927      BINDING AFFINITY PREDICTED BY RF-SCORE:    0.00 PKD
ROOT
HETATM    1  C   UNL     1      -9.222   8.436  68.756  1.00  0.00    -0.143 C  
HETATM    2  O   UNL     1      -8.396   8.756  67.641  1.00  0.00    -0.113 OA 
ENDROOT
BRANCH   2   3
HETATM    3  C   UNL     1      -7.945  10.052  67.570  1.00  0.00    -0.106 A  
HETATM    4  C   UNL     1      -6.951  10.647  68.364  1.00  0.00    -0.066 A  
HETATM    5  C   UNL     1      -8.340  12.190  66.473  1.00  0.00     0.019 A  
HETATM    6  C   UNL     1      -6.660  12.011  68.188  1.00  0.00    -0.055 A  
HETATM    7  C   UNL     1      -7.340  12.793  67.244  1.00  0.00    -0.095 A  
HETATM    8  C   UNL     1      -8.642  10.834  66.642  1.00  0.00    -0.143 A  
BRANCH   4   9
HETATM    9  O   UNL     1      -6.347   9.873  69.319  1.00  0.00    -0.043 OA 
HETATM   10  C   UNL     1      -5.556   8.777  68.879  1.00  0.00    -0.040 C  
ENDBRANCH   4   9
BRANCH   7  11
HETATM   11  C   UNL     1      -7.106  14.303  67.208  1.00  0.00     0.042 C  
BRANCH  11  12
HETATM   12  C   UNL     1      -7.177  14.807  68.655  1.00  0.00    -0.119 C  
BRANCH  12  13
HETATM   13  N   UNL     1      -8.433  14.919  69.405  1.00  0.00    -0.118 NA 
HETATM   14  C   UNL     1      -8.655  16.261  69.938  1.00  0.00     0.797 C  
BRANCH  13  15
HETATM   15  C   UNL     1      -9.603  14.475  68.600  1.00  0.00    -0.219 C  
BRANCH  15  16
HETATM   16  C   UNL     1     -10.948  14.098  69.298  1.00  0.00    -0.252 C  
BRANCH  16  17
HETATM   17  C   UNL     1     -12.077  15.143  69.147  1.00  0.00    -0.258 C  
BRANCH  17  18
HETATM   18  C   UNL     1     -11.737  16.657  69.228  1.00  0.00     0.358 C  
HETATM   19  N   UNL     1     -13.997  17.940  68.629  1.00  0.00    10.228 NA 
HETATM   20  C   UNL     1     -11.373  17.087  70.730  1.00  0.00     0.832 C  
HETATM   21  C   UNL     1     -13.004  17.394  68.886  1.00  0.00     6.899 C  
HETATM   22  C   UNL     1     -10.123  16.435  71.343  1.00  0.00     2.932 C  
HETATM   23  C   UNL     1     -12.520  16.830  71.732  1.00  0.00     1.526 C  
BRANCH  18  24
HETATM   24  C   UNL     1     -10.614  16.935  68.222  1.00  0.00    -0.363 A  
HETATM   25  C   UNL     1      -9.882  18.135  68.246  1.00  0.00    -0.360 A  
HETATM   26  C   UNL     1      -8.992  18.479  67.223  1.00  0.00    -0.270 A  
HETATM   27  C   UNL     1     -10.384  16.056  67.149  1.00  0.00    -0.295 A  
HETATM   28  C   UNL     1      -8.797  17.585  66.157  1.00  0.00    -0.125 A  
HETATM   29  C   UNL     1      -9.475  16.371  66.145  1.00  0.00    -0.363 A  
BRANCH  26  30
HETATM   30  O   UNL     1      -8.307  19.666  67.175  1.00  0.00    -0.279 OA 
HETATM   31  C   UNL     1      -8.981  20.827  67.646  1.00  0.00    -0.052 C  
ENDBRANCH  26  30
BRANCH  28  32
HETATM   32  O   UNL     1      -7.950  17.996  65.155  1.00  0.00     0.597 OA 
HETATM   33  C   UNL     1      -8.534  18.731  64.087  1.00  0.00     8.680 C  
ENDBRANCH  28  32
ENDBRANCH  18  24
ENDBRANCH  17  18
ENDBRANCH  16  17
ENDBRANCH  15  16
ENDBRANCH  13  15
ENDBRANCH  12  13
ENDBRANCH  11  12
ENDBRANCH   7  11
ENDBRANCH   2   3
TORSDOF 12
ENDMDL
MODEL      397
REMARK 921   NORMALIZED FREE ENERGY PREDICTED BY IDOCK:   27.53 KCAL/MOL
REMARK 922        TOTAL FREE ENERGY PREDICTED BY IDOCK:   44.62 KCAL/MOL
REMARK 923 INTER-LIGAND FREE ENERGY PREDICTED BY IDOCK:   38.13 KCAL/MOL
REMARK 924 INTRA-LIGAND FREE ENERGY PREDICTED BY IDOCK:    6.49 KCAL/MOL
REMARK 927      BINDING AFFINITY PREDICTED BY RF-SCORE:    0.00 PKD
ROOT
HETATM    1  C   UNL     1     -10.765  19.480  69.289  1.00  0.00     0.845 C  
HETATM    2  O   UNL     1     -10.079  18.237  69.407  1.00  0.00    -0.197 OA 
ENDROOT
BRANCH   2   3
HETATM    3  C   UNL     1      -9.414  17.801  68.287  1.00  0.00    -0.290 A  
HETATM    4  C   UNL     1      -8.182  17.127  68.244  1.00  0.00    -0.230 A  
HETATM    5  C   UNL     1      -9.476  17.834  65.853  1.00  0.00     0.048 A  
HETATM    6  C   UNL     1      -7.621  16.807  66.995  1.00  0.00    -0.235 A  
HETATM    7  C   UNL     1      -8.257  17.148  65.793  1.00  0.00     0.229 A  
HETATM    8  C   UNL     1     -10.042  18.162  67.090  1.00  0.00    -0.358 A  
BRANCH   4   9
HETATM    9  O   UNL     1      -7.556  16.862  69.432  1.00  0.00    -0.158 OA 
HETATM   10  C   UNL     1      -6.728  17.875  69.984  1.00  0.00     0.456 C  
ENDBRANCH   4   9
BRANCH   7  11
HETATM   11  C   UNL     1      -7.529  16.929  64.467  1.00  0.00     7.783 C  
BRANCH  11  12
HETATM   12  C   UNL     1      -6.540  15.776  64.679  1.00  0.00    13.474 C  
BRANCH  12  13
HETATM   13  N   UNL     1      -6.568  14.900  65.855  1.00  0.00     4.974 NA 
HETATM   14  C   UNL     1      -7.916  14.719  66.391  1.00  0.00     0.839 C  
BRANCH  13  15
HETATM   15  C   UNL     1      -5.930  13.585  65.584  1.00  0.00     8.627 C  
BRANCH  15  16
HETATM   16  C   UNL     1      -6.561  12.268  66.139  1.00  0.00     1.631 C  
BRANCH  16  17
HETATM   17  C   UNL     1      -7.580  12.464  67.285  1.00  0.00    -0.141 C  
BRANCH  17  18
HETATM   18  C   UNL     1      -8.602  11.338  67.604  1.00  0.00    -0.124 C  
HETATM   19  N   UNL     1      -9.588  11.916  70.013  1.00  0.00     2.210 NA 
HETATM   20  C   UNL     1      -9.848  11.388  66.596  1.00  0.00    -0.233 C  
HETATM   21  C   UNL     1      -9.163  11.649  68.966  1.00  0.00     0.187 C  
HETATM   22  C   UNL     1      -9.536  11.140  65.111  1.00  0.00    -0.273 C  
HETATM   23  C   UNL     1     -10.621  12.724  66.648  1.00  0.00    -0.272 C  
BRANCH  18  24
HETATM   24  C   UNL     1      -7.846  10.005  67.578  1.00  0.00    -0.095 A  
HETATM   25  C   UNL     1      -7.044   9.632  66.486  1.00  0.00    -0.089 A  
HETATM   26  C   UNL     1      -6.507   8.346  66.366  1.00  0.00    -0.058 A  
HETATM   27  C   UNL     1      -8.054   9.047  68.587  1.00  0.00    -0.107 A  
HETATM   28  C   UNL     1      -6.747   7.407  67.384  1.00  0.00    -0.069 A  
HETATM   29  C   UNL     1      -7.495   7.777  68.496  1.00  0.00    -0.103 A  
BRANCH  26  30
HETATM   30  O   UNL     1      -5.774   7.922  65.288  1.00  0.00    -0.036 OA 
HETATM   31  C   UNL     1      -5.241   8.924  64.429  1.00  0.00    -0.051 C  
ENDBRANCH  26  30
BRANCH  28  32
HETATM   32  O   UNL     1      -6.238   6.146  67.191  1.00  0.00    -0.027 OA 
HETATM   33  C   UNL     1      -6.124   5.320  68.345  1.00  0.00    -0.026 C  
ENDBRANCH  28  32
ENDBRANCH  18  24
ENDBRANCH  17  18
ENDBRANCH  16  17
ENDBRANCH  15  16
ENDBRANCH  13  15
ENDBRANCH  12  13
ENDBRANCH  11  12
ENDBRANCH   7  11
ENDBRANCH   2   3
TORSDOF 12
ENDMDL
MODEL      398
REMARK 921   NORMALIZED FREE ENERGY PREDICTED BY IDOCK:   29.13 KCAL/MOL
REMARK 922        TOTAL FREE ENERGY PREDICTED BY IDOCK:   47.35 KCAL/MOL
REMARK 923 INTER-LIGAND FREE ENERGY PREDICTED BY IDOCK:   26.72 KCAL/MOL
REMARK 924 INTRA-LIGAND FREE ENERGY PREDICTED BY IDOCK:   20.63 KCAL/MOL
REMARK 927      BINDING AFFINITY PREDICTED BY RF-SCORE:    0.00 PKD
ROOT
HETATM    1  C   UNL     1     -12.231   4.253  68.604  1.00  0.00    14.881 C  
HETATM    2  O   UNL     1     -11.401   5.411  68.602  1.00  0.00     0.494 OA 
ENDROOT
BRANCH   2   3
HETATM    3  C   UNL     1     -10.211   5.305  67.924  1.00  0.00    -0.145 A  
HETATM    4  C   UNL     1      -9.614   4.128  67.442  1.00  0.00    -0.180 A  
HETATM    5  C   UNL     1      -8.280   6.585  67.174  1.00  0.00    -0.113 A  
HETATM    6  C   UNL     1      -8.356   4.205  66.818  1.00  0.00    -0.101 A  
HETATM    7  C   UNL     1      -7.680   5.424  66.672  1.00  0.00    -0.100 A  
HETATM    8  C   UNL     1      -9.530   6.521  67.799  1.00  0.00    -0.119 A  
BRANCH   4   9
HETATM    9  O   UNL     1     -10.270   2.945  67.653  1.00  0.00     0.885 OA 
HETATM   10  C   UNL     1     -11.621   2.851  67.223  1.00  0.00    11.773 C  
ENDBRANCH   4   9
BRANCH   7  11
HETATM   11  C   UNL     1      -6.246   5.432  66.142  1.00  0.00    -0.034 C  
BRANCH  11  12
HETATM   12  C   UNL     1      -6.171   6.517  65.059  1.00  0.00    -0.038 C  
BRANCH  12  13
HETATM   13  N   UNL     1      -6.992   7.732  65.083  1.00  0.00    -0.058 NA 
HETATM   14  C   UNL     1      -8.331   7.520  64.536  1.00  0.00     0.049 C  
BRANCH  13  15
HETATM   15  C   UNL     1      -7.069   8.325  66.444  1.00  0.00    -0.071 C  
BRANCH  15  16
HETATM   16  C   UNL     1      -8.333   8.105  67.334  1.00  0.00    -0.122 C  
BRANCH  16  17
HETATM   17  C   UNL     1      -8.041   7.819  68.825  1.00  0.00    -0.126 C  
BRANCH  17  18
HETATM   18  C   UNL     1      -7.764   9.003  69.793  1.00  0.00    -0.077 C  
HETATM   19  N   UNL     1      -7.987   7.994  72.252  1.00  0.00    -0.114 NA 
HETATM   20  C   UNL     1      -6.248   9.511  69.663  1.00  0.00    -0.040 C  
HETATM   21  C   UNL     1      -7.892   8.448  71.186  1.00  0.00    -0.106 C  
HETATM   22  C   UNL     1      -5.839  10.096  68.301  1.00  0.00    -0.041 C  
HETATM   23  C   UNL     1      -5.209   8.415  69.983  1.00  0.00    -0.022 C  
BRANCH  18  24
HETATM   24  C   UNL     1      -8.803  10.092  69.504  1.00  0.00    -0.198 A  
HETATM   25  C   UNL     1      -8.600  11.059  68.504  1.00  0.00    -0.158 A  
HETATM   26  C   UNL     1      -9.445  12.164  68.360  1.00  0.00    -0.179 A  
HETATM   27  C   UNL     1      -9.927  10.246  70.336  1.00  0.00     0.176 A  
HETATM   28  C   UNL     1     -10.550  12.296  69.217  1.00  0.00     0.110 A  
HETATM   29  C   UNL     1     -10.794  11.321  70.178  1.00  0.00     0.274 A  
BRANCH  26  30
HETATM   30  O   UNL     1      -9.247  13.162  67.440  1.00  0.00    -0.195 OA 
HETATM   31  C   UNL     1      -7.925  13.673  67.309  1.00  0.00    -0.114 C  
ENDBRANCH  26  30
BRANCH  28  32
HETATM   32  O   UNL     1     -11.318  13.426  69.064  1.00  0.00    -0.258 OA 
HETATM   33  C   UNL     1     -12.729  13.247  69.093  1.00  0.00     0.782 C  
ENDBRANCH  28  32
ENDBRANCH  18  24
ENDBRANCH  17  18
ENDBRANCH  16  17
ENDBRANCH  15  16
ENDBRANCH  13  15
ENDBRANCH  12  13
ENDBRANCH  11  12
ENDBRANCH   7  11
ENDBRANCH   2   3
TORSDOF 12
ENDMDL
MODEL      399
REMARK 921   NORMALIZED FREE ENERGY PREDICTED BY IDOCK:   32.49 KCAL/MOL
REMARK 922        TOTAL FREE ENERGY PREDICTED BY IDOCK:   53.06 KCAL/MOL
REMARK 923 INTER-LIGAND FREE ENERGY PREDICTED BY IDOCK:   40.57 KCAL/MOL
REMARK 924 INTRA-LIGAND FREE ENERGY PREDICTED BY IDOCK:   12.49 KCAL/MOL
REMARK 927      BINDING AFFINITY PREDICTED BY RF-SCORE:    0.00 PKD
ROOT
HETATM    1  C   UNL     1      -7.654   3.127  68.972  1.00  0.00    -0.048 C  
HETATM    2  O   UNL     1      -8.764   2.893  68.111  1.00  0.00    -0.087 OA 
ENDROOT
BRANCH   2   3
HETATM    3  C   UNL     1      -8.853   3.697  67.001  1.00  0.00    -0.127 A  
HETATM    4  C   UNL     1      -7.834   3.979  66.076  1.00  0.00    -0.090 A  
HETATM    5  C   UNL     1     -10.338   5.224  65.821  1.00  0.00    -0.012 A  
HETATM    6  C   UNL     1      -8.092   4.877  65.026  1.00  0.00    -0.107 A  
HETATM    7  C   UNL     1      -9.338   5.502  64.881  1.00  0.00     0.312 A  
HETATM    8  C   UNL     1     -10.092   4.335  66.873  1.00  0.00    -0.097 A  
BRANCH   4   9
HETATM    9  O   UNL     1      -6.609   3.400  66.278  1.00  0.00    -0.036 OA 
HETATM   10  C   UNL     1      -6.139   2.486  65.297  1.00  0.00    -0.019 C  
ENDBRANCH   4   9
BRANCH   7  11
HETATM   11  C   UNL     1      -9.515   6.594  63.827  1.00  0.00     2.623 C  
BRANCH  11  12
HETATM   12  C   UNL     1     -10.515   6.064  62.791  1.00  0.00     4.216 C  
BRANCH  12  13
HETATM   13  N   UNL     1     -11.969   6.114  62.979  1.00  0.00     8.627 NA 
HETATM   14  C   UNL     1     -12.650   4.942  62.433  1.00  0.00     4.520 C  
BRANCH  13  15
HETATM   15  C   UNL     1     -12.338   6.318  64.406  1.00  0.00    10.581 C  
BRANCH  15  16
HETATM   16  C   UNL     1     -11.559   7.343  65.288  1.00  0.00     9.395 C  
BRANCH  16  17
HETATM   17  C   UNL     1     -10.824   6.733  66.503  1.00  0.00     0.068 C  
BRANCH  17  18
HETATM   18  C   UNL     1     -10.034   7.661  67.468  1.00  0.00    -0.233 C  
HETATM   19  N   UNL     1      -7.456   7.202  66.966  1.00  0.00    -0.095 NA 
HETATM   20  C   UNL     1     -10.282   9.205  67.115  1.00  0.00    -0.329 C  
HETATM   21  C   UNL     1      -8.575   7.408  67.199  1.00  0.00    -0.118 C  
HETATM   22  C   UNL     1     -11.724   9.718  67.269  1.00  0.00     2.004 C  
HETATM   23  C   UNL     1      -9.851   9.578  65.679  1.00  0.00    -0.343 C  
BRANCH  18  24
HETATM   24  C   UNL     1     -10.434   7.288  68.901  1.00  0.00    -0.216 A  
HETATM   25  C   UNL     1      -9.490   6.827  69.834  1.00  0.00    -0.156 A  
HETATM   26  C   UNL     1      -9.869   6.306  71.075  1.00  0.00    -0.181 A  
HETATM   27  C   UNL     1     -11.788   7.255  69.278  1.00  0.00     0.690 A  
HETATM   28  C   UNL     1     -11.232   6.273  71.415  1.00  0.00    -0.293 A  
HETATM   29  C   UNL     1     -12.174   6.772  70.523  1.00  0.00    -0.253 A  
BRANCH  26  30
HETATM   30  O   UNL     1      -8.986   5.788  71.988  1.00  0.00    -0.138 OA 
HETATM   31  C   UNL     1      -8.206   6.714  72.737  1.00  0.00    -0.108 C  
ENDBRANCH  26  30
BRANCH  28  32
HETATM   32  O   UNL     1     -11.552   5.705  72.625  1.00  0.00    -0.307 OA 
HETATM   33  C   UNL     1     -12.893   5.258  72.786  1.00  0.00     0.925 C  
ENDBRANCH  28  32
ENDBRANCH  18  24
ENDBRANCH  17  18
ENDBRANCH  16  17
ENDBRANCH  15  16
ENDBRANCH  13  15
ENDBRANCH  12  13
ENDBRANCH  11  12
ENDBRANCH   7  11
ENDBRANCH   2   3
TORSDOF 12
ENDMDL
MODEL      400
REMARK 921   NORMALIZED FREE ENERGY PREDICTED BY IDOCK:   53.57 KCAL/MOL
REMARK 922        TOTAL FREE ENERGY PREDICTED BY IDOCK:   88.93 KCAL/MOL
REMARK 923 INTER-LIGAND FREE ENERGY PREDICTED BY IDOCK:   55.15 KCAL/MOL
REMARK 924 INTRA-LIGAND FREE ENERGY PREDICTED BY IDOCK:   33.78 KCAL/MOL
REMARK 927      BINDING AFFINITY PREDICTED BY RF-SCORE:    0.00 PKD
ROOT
HETATM    1  C   UNL     1     -12.287   4.227  68.618  1.00  0.00    16.420 C  
HETATM    2  O   UNL     1     -11.464   5.386  68.694  1.00  0.00     0.809 OA 
ENDROOT
BRANCH   2   3
HETATM    3  C   UNL     1     -10.268   5.329  68.019  1.00  0.00    -0.143 A  
HETATM    4  C   UNL     1      -9.690   4.199  67.417  1.00  0.00    -0.154 A  
HETATM    5  C   UNL     1      -8.306   6.642  67.425  1.00  0.00    -0.121 A  
HETATM    6  C   UNL     1      -8.425   4.315  66.816  1.00  0.00    -0.104 A  
HETATM    7  C   UNL     1      -7.723   5.529  66.806  1.00  0.00    -0.100 A  
HETATM    8  C   UNL     1      -9.563   6.537  68.030  1.00  0.00    -0.119 A  
BRANCH   4   9
HETATM    9  O   UNL     1     -10.372   3.013  67.496  1.00  0.00     1.237 OA 
HETATM   10  C   UNL     1     -11.727   3.000  67.070  1.00  0.00    12.272 C  
ENDBRANCH   4   9
BRANCH   7  11
HETATM   11  C   UNL     1      -6.285   5.564  66.291  1.00  0.00    -0.034 C  
BRANCH  11  12
HETATM   12  C   UNL     1      -6.156   6.803  65.396  1.00  0.00    -0.035 C  
BRANCH  12  13
HETATM   13  N   UNL     1      -7.029   7.976  65.517  1.00  0.00    -0.059 NA 
HETATM   14  C   UNL     1      -8.223   7.879  64.679  1.00  0.00    -0.091 C  
BRANCH  13  15
HETATM   15  C   UNL     1      -7.402   8.248  66.930  1.00  0.00    -0.084 C  
BRANCH  15  16
HETATM   16  C   UNL     1      -8.784   7.783  67.489  1.00  0.00    -0.125 C  
BRANCH  16  17
HETATM   17  C   UNL     1      -8.735   7.124  68.887  1.00  0.00    -0.128 C  
BRANCH  17  18
HETATM   18  C   UNL     1      -8.750   8.018  70.158  1.00  0.00    -0.135 C  
HETATM   19  N   UNL     1      -9.236   6.370  72.197  1.00  0.00    -0.141 NA 
HETATM   20  C   UNL     1      -7.302   8.648  70.437  1.00  0.00    -0.060 C  
HETATM   21  C   UNL     1      -9.029   7.100  71.317  1.00  0.00    -0.147 C  
HETATM   22  C   UNL     1      -6.755   9.606  69.366  1.00  0.00    -0.053 C  
HETATM   23  C   UNL     1      -6.205   7.581  70.651  1.00  0.00    -0.035 C  
BRANCH  18  24
HETATM   24  C   UNL     1      -9.850   9.070  69.972  1.00  0.00    -0.203 A  
HETATM   25  C   UNL     1     -11.172   8.709  69.662  1.00  0.00     0.067 A  
HETATM   26  C   UNL     1     -12.134   9.658  69.304  1.00  0.00     0.881 A  
HETATM   27  C   UNL     1      -9.532  10.440  69.960  1.00  0.00     0.179 A  
HETATM   28  C   UNL     1     -11.781  11.018  69.286  1.00  0.00    -0.326 A  
HETATM   29  C   UNL     1     -10.490  11.396  69.640  1.00  0.00     0.162 A  
BRANCH  26  30
HETATM   30  O   UNL     1     -13.417   9.343  68.933  1.00  0.00     4.746 OA 
HETATM   31  C   UNL     1     -13.583   8.272  68.010  1.00  0.00    19.818 C  
ENDBRANCH  26  30
BRANCH  28  32
HETATM   32  O   UNL     1     -12.750  11.902  68.878  1.00  0.00     0.241 OA 
HETATM   33  C   UNL     1     -12.888  13.094  69.643  1.00  0.00     0.713 C  
ENDBRANCH  28  32
ENDBRANCH  18  24
ENDBRANCH  17  18
ENDBRANCH  16  17
ENDBRANCH  15  16
ENDBRANCH  13  15
ENDBRANCH  12  13
ENDBRANCH  11  12
ENDBRANCH   7  11
ENDBRANCH   2   3
TORSDOF 12
ENDMDL
